data_mof_unit_4123.cif
_audit_creation_date              2012-12-10T19:07:01-0500
_audit_creation_method            fapswitch 2.2
_symmetry_space_group_name_H-M    P1
_symmetry_Int_Tables_number       1
_space_group_crystal_system       triclinic
_cell_length_a                    27.733078
_cell_length_b                    10.850994
_cell_length_c                    9.619853
_cell_angle_alpha                 89.973933
_cell_angle_beta                  89.186747
_cell_angle_gamma                 91.585261
_cell_volume                      2893.51590963

loop_
_atom_site_label
_atom_site_type_symbol
_atom_type_description
_atom_site_fract_x
_atom_site_fract_y
_atom_site_fract_z
_atom_type_partial_charge
C1    C     C_R   0.499524 0.262852 0.499745 0.790829
C2    C     C_R   0.278934 0.563966 0.602430 -0.105744
C3    C     C_R   0.253612 0.499013 0.499336 0.356722
C4    C     C_R   0.101571 0.490175 0.503873 -0.071529
C5    C     C_R   0.126118 0.378343 0.522102 -0.084350
C6    C     C_R   0.098267 0.266388 0.543561 0.139281
C7    C     C_R   0.127599 0.602504 0.484554 -0.004032
C8    C     C_R   0.354762 0.501020 0.500174 -0.023921
C9    C     C_R   0.645645 0.497768 0.497897 -0.037049
C10   C     C_R   0.974043 0.380718 0.474285 0.003175
C11   C     C_R   0.975821 0.600829 0.535675 0.040330
C12   C     C_R   0.407637 0.500675 0.500492 0.789806
C13   C     C_R   0.949421 0.489685 0.506349 -0.004022
C14   C     C_R   0.947798 0.278805 0.417081 0.147480
C15   C     C_R   0.897159 0.270851 0.437860 0.117934
C16   C     C_R   0.872038 0.380665 0.467726 -0.090476
C17   C     C_R   0.898542 0.488233 0.506623 -0.079971
C18   C     C_R   0.874112 0.594018 0.549177 -0.025904
C19   C     C_R   0.823612 0.593175 0.547466 0.545035
C20   C     C_R   0.821451 0.390067 0.453138 0.530046
C21   C     C_R   0.722320 0.507651 0.372218 -0.094872
C22   C     C_R   0.671986 0.509201 0.372307 -0.224996
C23   C     C_R   0.499360 0.737579 0.500235 0.792084
C24   C     C_R   0.670580 0.483878 0.622921 -0.218622
C25   C     C_R   0.720787 0.482482 0.622549 -0.119454
C26   C     C_R   0.746826 0.494427 0.497427 0.361728
C27   C     C_R   0.024195 0.378937 0.500211 -0.000306
C28   C     C_R   0.050661 0.490608 0.504293 0.062356
C29   C     C_R   0.026211 0.603065 0.507188 0.054144
C30   C     C_R   0.047717 0.269894 0.530808 -0.188896
C31   C     C_R   0.102697 0.711751 0.464251 -0.165951
C32   C     C_R   0.950774 0.700897 0.597386 0.137460
C33   C     C_R   0.900223 0.696418 0.599095 -0.203472
C34   C     C_R   0.592508 0.499598 0.499204 0.799462
C35   C     C_R   0.052612 0.711734 0.474632 -0.211404
C36   C     C_R   0.519128 0.066504 0.609752 0.136147
C37   C     C_R   0.500837 0.130037 0.497470 -0.088685
C38   C     C_R   0.484732 0.063774 0.381074 -0.206885
C39   C     C_R   0.483294 0.935441 0.383974 -0.230946
C40   C     C_R   0.499894 0.871574 0.499899 -0.097200
C41   C     C_R   0.519208 0.939036 0.610759 0.120683
C42   C     C_3   0.504717 0.935792 0.760869 -0.485311
C43   C     C_3   0.504584 0.074852 0.758850 -0.465156
C44   C     C_R   0.539918 0.537660 0.069832 0.239728
C45   C     C_R   0.177436 0.385140 0.520812 0.521887
C46   C     C_R   0.463782 0.444460 0.078346 -0.092830
C47   C     C_R   0.463732 0.441019 0.930232 0.223870
C48   C     C_R   0.540953 0.530297 0.924128 0.179339
C49   C     C_3   0.573065 0.640589 0.906742 -0.491009
C50   C     C_3   0.568486 0.658159 0.064131 -0.105894
C51   C     C_R   0.177972 0.602771 0.481916 0.531566
C52   C     C_R   0.279129 0.437142 0.395020 -0.097641
C53   C     C_R   0.329412 0.438185 0.395333 -0.225483
C54   C     C_R   0.329248 0.565895 0.602045 -0.230971
Cu1   Cu    Cu3+1 0.500000 0.499980 0.640670 0.929993
Cu2   Cu    Cu3+1 0.500000 0.500020 0.359330 0.933844
H1    H     H_    0.348203 0.619893 0.679496 0.147308
H2    H     H_    0.259926 0.387797 0.314106 0.143689
H3    H     H_    0.121803 0.797737 0.440375 0.188990
H4    H     H_    0.651368 0.473125 0.721046 0.151218
H5    H     H_    0.880919 0.772150 0.644471 0.176408
H6    H     H_    0.739562 0.471595 0.719543 0.136164
H7    H     H_    0.034755 0.795314 0.448237 0.138061
H8    H     H_    0.470667 0.110633 0.291469 0.158733
H9    H     H_    0.466818 0.886444 0.299081 0.172555
H10   H     H_    0.468350 0.892508 0.778864 0.209853
H11   H     H_    0.259579 0.613081 0.682661 0.146371
H12   H     H_    0.533905 0.902040 0.826447 0.202310
H13   H     H_    0.467985 0.112256 0.774186 0.194105
H14   H     H_    0.533304 0.118590 0.823188 0.200451
H15   H     H_    0.434882 0.399435 0.137579 0.150341
H16   H     H_    0.609987 0.615383 0.873302 0.168492
H17   H     H_    0.557140 0.711336 0.840373 0.220482
H18   H     H_    0.653789 0.519567 0.274358 0.146047
H19   H     H_    0.742302 0.516948 0.275089 0.140593
H20   H     H_    0.025551 0.189022 0.552806 0.156442
H21   H     H_    0.348488 0.388720 0.314712 0.141571
N1    N     N_R   0.201737 0.495618 0.500712 -0.458691
N2    N     N_R   0.798516 0.492808 0.498448 -0.460762
N3    N     N_R   0.500300 0.500930 0.147930 -0.203370
N4    N     N_R   0.500310 0.500890 0.852020 -0.202649
O1    O     O_R   0.500000 0.319640 0.618810 -0.599615
O2    O     O_2   0.795495 0.300822 0.388438 -0.561944
O3    O     O_2   0.203179 0.709378 0.459898 -0.546034
O4    O     O_2   0.799681 0.692750 0.591918 -0.548892
O5    O     O_R   0.500010 0.319680 0.381230 -0.581792
O6    O     O_R   0.430260 0.500000 0.618780 -0.581288
O7    O     O_R   0.430270 0.500040 0.381190 -0.588277
O8    O     O_R   0.499990 0.680320 0.618770 -0.579670
O9    O     O_R   0.500000 0.680360 0.381190 -0.583576
O10   O     O_R   0.569730 0.499960 0.618810 -0.578638
O11   O     O_R   0.569740 0.500000 0.381220 -0.583815
O12   O     O_2   0.203334 0.283387 0.539342 -0.572067
C55   C     C_3   0.974952 0.803524 0.682345 -0.412019
C56   C     C_3   0.003728 0.752871 0.803028 -0.787992
H22   H     H_    0.980381 0.690751 0.868499 0.251207
H23   H     H_    0.035320 0.701586 0.765122 0.260638
H24   H     H_    0.017180 0.830482 0.868377 0.235158
H25   H     H_    0.997550 0.867318 0.618567 0.194044
H26   H     H_    0.947384 0.863942 0.729275 0.201785
C57   C     C_3   0.424574 0.358835 0.869249 -0.368627
C58   C     C_3   0.374942 0.414674 0.888014 -0.821135
H27   H     H_    0.376699 0.514397 0.863132 0.258288
H28   H     H_    0.348602 0.367184 0.818985 0.255214
H29   H     H_    0.362022 0.403665 0.997240 0.229852
H30   H     H_    0.431087 0.333886 0.760594 0.251412
H31   H     H_    0.424118 0.268630 0.924283 0.154858
H32   H     H_    0.603877 0.652130 0.116194 0.128749
C59   C     C_3   0.541977 0.777425 0.100858 -0.304088
C60   C     C_3   0.488594 0.778072 0.059626 -0.807094
H33   H     H_    0.482919 0.740075 0.954192 0.251117
H34   H     H_    0.465901 0.722997 0.133721 0.270669
H35   H     H_    0.475902 0.874189 0.059980 0.220142
H36   H     H_    0.545683 0.796422 0.212963 0.220016
H37   H     H_    0.561382 0.855716 0.048334 0.184130
C61   C     C_3   0.121896 0.144897 0.579851 -0.295304
C62   C     C_3   0.088092 0.034200 0.611928 -0.928547
H38   H     H_    0.063766 0.054448 0.701276 0.258310
H39   H     H_    0.109815 0.953805 0.640481 0.268028
H40   H     H_    0.066735 0.008746 0.518961 0.240360
H41   H     H_    0.145445 0.117594 0.491353 0.244426
H42   H     H_    0.144193 0.159735 0.673759 0.239291
C63   C     C_3   0.871908 0.143820 0.444987 -0.322149
C64   C     C_3   0.898700 0.052391 0.535063 -0.913922
H43   H     H_    0.932333 0.021941 0.483768 0.243768
H44   H     H_    0.907421 0.094056 0.637469 0.257916
H45   H     H_    0.875188 0.969462 0.552895 0.262642
H46   H     H_    0.836099 0.148747 0.496489 0.256275
H47   H     H_    0.866568 0.105763 0.339054 0.211602
C65   C     C_3   0.971121 0.193522 0.310108 -0.401337
C66   C     C_3   0.994428 0.266061 0.189229 -0.810005
H48   H     H_    0.967894 0.328264 0.142647 0.252705
H49   H     H_    0.026211 0.321457 0.224168 0.259709
H50   H     H_    0.006818 0.201057 0.107934 0.237361
H51   H     H_    0.997889 0.132529 0.355900 0.190929
H52   H     H_    0.943796 0.130544 0.262987 0.210569

loop_
_geom_bond_atom_site_label_1
_geom_bond_atom_site_label_2
_ccdc_geom_bond_type
C10   C27   A    
C57   H31   S    
C32   C55   S    
C21   C26   A    
C57   C58   S    
C47   C57   S    
C41   C42   S    
C56   H22   S    
Cu1   Cu2   S    
C66   H50   S    
C45   O12   S    
C56   H24   S    
C63   C64   S    
C48   N4    A    
C28   C29   A    
C15   C63   S    
C16   C20   A    
C62   H39   S    
C5    C6    A    
C58   H28   S    
C9    C22   A    
Cu2   O7    S    
C23   C40   S    
C1    O5    A    
C61   C62   S    
C58   H29   S    
C18   C19   A    
C31   H3    S    
C60   H33   S    
Cu1   O10   S    
C34   O10   A    
C65   H51   S    
C16   C17   A    
C49   H16   S    
C23   O8    A    
C45   N1    A    
Cu1   N4    S    
C20   N2    A    
C24   H4    S    
Cu2   O9    S    
C43   H13   S    
C21   C22   A    
C63   H47   S    
C27   C30   A    
C50   H32   S    
C39   H9    S    
C36   C41   A    
C55   C56   S    
C4    C7    A    
C4    C28   A    
C38   H8    S    
C52   H2    S    
C7    C31   A    
C61   H41   S    
C12   O7    A    
C44   N3    A    
C24   C25   A    
C2    H11   S    
C10   C14   A    
C62   H40   S    
C8    C54   A    
C39   C40   A    
C47   N4    A    
C66   H49   S    
C1    O1    A    
C5    C45   A    
C50   C59   S    
C53   H21   S    
C37   C38   A    
C30   H20   S    
Cu2   O5    S    
C55   H26   S    
C8    C12   S    
C17   C18   A    
C23   O9    A    
Cu1   O1    S    
C19   N2    A    
C60   H35   S    
C6    C61   S    
C46   H15   S    
C61   H42   S    
C59   H36   S    
C64   H45   S    
C33   H5    S    
C48   C49   S    
C6    C30   A    
C11   C32   A    
C43   H14   S    
C2    C54   A    
C9    C34   S    
C31   C35   A    
C42   C43   S    
C22   H18   S    
C66   H48   S    
C52   C53   A    
C64   H44   S    
C14   C65   S    
C44   C50   S    
C57   H30   S    
C29   C35   A    
C46   C47   A    
C40   C41   A    
C12   O6    A    
C65   H52   S    
C4    C5    A    
C19   O4    S    
C10   C13   A    
C8    C53   A    
C3    C52   A    
C56   H23   S    
C9    C24   A    
C1    C37   S    
C21   H19   S    
C26   N2    S    
Cu2   N3    S    
C13   C17   A    
C32   C33   A    
C2    C3    A    
C25   C26   A    
C51   N1    A    
C7    C51   A    
Cu1   O8    S    
C62   H38   S    
C46   N3    A    
C11   C13   A    
C63   H46   S    
C38   C39   A    
C55   H25   S    
C65   C66   S    
C49   H17   S    
C25   H6    S    
C42   H12   S    
Cu1   O6    S    
C58   H27   S    
C18   C33   A    
C60   H34   S    
C59   H37   S    
C44   C48   A    
Cu2   O11   S    
C11   C29   A    
C36   C37   A    
C49   C50   S    
C20   O2    S    
C27   C28   A    
C42   H10   S    
C14   C15   A    
C36   C43   S    
C35   H7    S    
C59   C60   S    
C3    N1    S    
C51   O3    S    
C54   H1    S    
C15   C16   A    
C64   H43   S    
C34   O11   A    
