data_mof_unit_3374.cif
_audit_creation_date              2012-12-10T18:05:44-0500
_audit_creation_method            fapswitch 2.2
_symmetry_space_group_name_H-M    P1
_symmetry_Int_Tables_number       1
_space_group_crystal_system       triclinic
_cell_length_a                    10.897164
_cell_length_b                    10.802547
_cell_length_c                    9.563375
_cell_angle_alpha                 90.30844
_cell_angle_beta                  90.905425
_cell_angle_gamma                 90.401202
_cell_volume                      1125.58787104

loop_
_atom_site_label
_atom_site_type_symbol
_atom_type_description
_atom_site_fract_x
_atom_site_fract_y
_atom_site_fract_z
_atom_type_partial_charge
C1    C     C_R   0.501594 0.262493 0.499503 0.807538
C2    C     C_R   0.497436 0.737626 0.500554 0.799122
C3    C     C_R   0.871668 0.492249 0.504345 -0.092210
C4    C     C_R   0.128136 0.496720 0.495953 -0.086036
C5    C     C_R   0.941268 0.492188 0.630101 -0.001430
C6    C     C_R   0.058359 0.483182 0.370951 -0.003194
C7    C     C_R   0.567945 0.062512 0.397525 0.170311
C8    C     C_R   0.429339 0.938828 0.601511 0.152961
C9    C     C_R   0.563878 0.933655 0.399809 -0.253266
C10   C     C_R   0.433578 0.066917 0.599252 -0.213832
C11   C     C_R   0.496302 0.871661 0.501545 -0.095364
C12   C     C_R   0.501992 0.128726 0.498492 -0.089328
C13   C     C_R   0.471057 0.395303 0.072981 -0.002462
C14   C     C_R   0.530627 0.604206 0.927093 -0.021634
C15   C     C_R   0.471787 0.395171 0.924823 -0.020335
C16   C     C_R   0.530396 0.604262 0.075244 -0.038617
C17   C     C_R   0.262193 0.498692 0.498531 0.783188
C18   C     C_R   0.737686 0.496613 0.501484 0.787318
C19   C     C_R   0.183780 0.512009 0.006816 -0.125057
C20   C     C_R   0.792711 0.317356 0.923460 -0.133686
C21   C     C_R   0.146021 0.543973 0.141135 -0.102566
C22   C     C_R   0.844419 0.344728 0.794597 -0.101010
C23   C     C_R   0.110256 0.451143 0.234247 0.143911
C24   C     C_R   0.887859 0.464817 0.767364 0.147172
C25   C     C_R   0.111409 0.326659 0.191533 -0.140705
C26   C     C_R   0.881122 0.556596 0.871032 -0.136132
C27   C     C_R   0.147840 0.295223 0.056786 -0.152094
C28   C     C_R   0.828724 0.528934 0.999655 -0.137253
C29   C     C_R   0.183292 0.387771 0.964299 -0.123299
C30   C     C_R   0.784420 0.409425 0.025640 -0.097828
C31   C     C_R   0.931662 0.487328 0.376789 -0.251608
C32   C     C_R   0.067850 0.503314 0.623872 -0.250242
Cu1   Cu    Cu3+1 0.500000 0.500020 0.640660 0.934706
Cu2   Cu    Cu3+1 0.500000 0.499980 0.359340 0.944500
H1    H     H_    0.212193 0.362533 0.860380 0.131678
H2    H     H_    0.742526 0.387937 0.124396 0.150838
H3    H     H_    0.447612 0.310860 0.869484 0.118722
H4    H     H_    0.556419 0.687995 0.130691 0.121147
H5    H     H_    0.212877 0.583596 0.935644 0.127460
H6    H     H_    0.758240 0.225091 0.943789 0.120194
H7    H     H_    0.143706 0.640460 0.172232 0.112078
H8    H     H_    0.849874 0.272866 0.715539 0.103732
H9    H     H_    0.081882 0.254419 0.261833 0.118305
H10   H     H_    0.914946 0.649319 0.851592 0.112986
H11   H     H_    0.148063 0.199234 0.023810 0.128568
H12   H     H_    0.821540 0.600508 0.078628 0.118673
H13   H     H_    0.879716 0.480947 0.280407 0.160633
H14   H     H_    0.119544 0.510754 0.720481 0.158733
H15   H     H_    0.615518 0.881447 0.323836 0.139049
H16   H     H_    0.381222 0.118547 0.675148 0.155802
H17   H     H_    0.446186 0.311246 0.126575 0.145549
H18   H     H_    0.557351 0.687630 0.873531 0.116825
N1    N     N_R   0.500030 0.500030 0.852070 -0.154169
N2    N     N_R   0.499970 0.499970 0.147930 -0.163401
O1    O     O_R   0.499990 0.319660 0.618740 -0.602853
O2    O     O_R   0.500010 0.680340 0.381260 -0.590144
O3    O     O_R   0.499990 0.319630 0.381170 -0.564008
O4    O     O_R   0.500010 0.680370 0.618830 -0.597392
O5    O     O_R   0.319650 0.500020 0.618780 -0.596313
O6    O     O_R   0.680350 0.499980 0.381220 -0.595720
O7    O     O_R   0.319640 0.500000 0.381210 -0.567839
O8    O     O_R   0.680360 0.500000 0.618790 -0.562491
N3    N     N_3   0.640536 0.126184 0.295715 -0.588888
H19   H     H_    0.714191 0.168623 0.349013 0.200999
H20   H     H_    0.678331 0.063429 0.225064 0.200005
N4    N     N_3   0.352467 0.880285 0.702332 -0.606773
H21   H     H_    0.294090 0.817032 0.650931 0.217385
H22   H     H_    0.407627 0.833436 0.774557 0.229088

loop_
_geom_bond_atom_site_label_1
_geom_bond_atom_site_label_2
_ccdc_geom_bond_type
Cu1   O1    S    
Cu2   O3    S    
N4    H22   S    
C16   H4    S    
C2    O4    A    
C9    H15   S    
C8    N4    S    
Cu1   O4    S    
C1    O3    A    
C27   C29   A    
C32   H14   S    
C29   H1    S    
C26   C28   A    
C13   C15   A    
C30   H2    S    
Cu2   O2    S    
C3    C31   A    
C5    C32   A    
C7    N3    S    
C25   H9    S    
N3    H20   S    
Cu1   Cu2   S    
C1    O1    A    
C4    C32   A    
C26   H10   S    
Cu1   O5    S    
C10   H16   S    
C31   H13   S    
C23   C25   A    
Cu2   O6    S    
C9    C11   A    
Cu2   N2    S    
C28   H12   S    
C22   H8    S    
C1    C12   S    
C19   H5    S    
C17   O5    A    
C8    C11   A    
C21   H7    S    
C2    C11   S    
C15   N1    A    
C22   C24   A    
C28   C30   A    
C19   C21   A    
C20   C22   A    
C6    C31   A    
C16   N2    A    
C21   C23   A    
Cu1   N1    S    
C7    C12   A    
C10   C12   A    
C14   C16   A    
C4    C6    A    
C25   C27   A    
C27   H11   S    
C6    C23   S    
N3    H19   S    
C19   C29   A    
C14   N1    A    
N4    H21   S    
C18   O8    A    
C3    C18   S    
C8    C10   A    
C13   N2    A    
Cu2   O7    S    
C15   H3    S    
C18   O6    A    
C7    C9    A    
C5    C24   S    
C20   C30   A    
C17   O7    A    
C13   H17   S    
C20   H6    S    
C2    O2    A    
C14   H18   S    
C24   C26   A    
Cu1   O8    S    
C3    C5    A    
C4    C17   S    
