data_mof_unit_703.cif
_audit_creation_date              2012-12-10T17:24:45-0500
_audit_creation_method            fapswitch 2.2
_symmetry_space_group_name_H-M    P1
_symmetry_Int_Tables_number       1
_space_group_crystal_system       triclinic
_cell_length_a                    18.309106
_cell_length_b                    18.987188
_cell_length_c                    19.005213
_cell_angle_alpha                 109.515419
_cell_angle_beta                  108.972989
_cell_angle_gamma                 108.644318
_cell_volume                      5164.63446042

loop_
_atom_site_label
_atom_site_type_symbol
_atom_type_description
_atom_site_fract_x
_atom_site_fract_y
_atom_site_fract_z
_atom_type_partial_charge
C1    C     C_R   0.620292 0.619183 0.498622 0.917592
C2    C     C_3   0.178042 0.432482 0.221652 -0.168656
C3    C     C_3   0.230828 0.502525 0.315685 -0.106431
C4    C     C_3   0.315265 0.505071 0.316111 -0.217082
C5    C     C_R   0.674546 0.805992 0.586306 -0.052912
C6    C     C_R   0.641007 0.860750 0.572261 -0.179831
C7    C     C_R   0.647392 0.884109 0.509980 -0.150248
C8    C     C_R   0.698393 0.862595 0.472973 0.561090
C9    C     C_R   0.738198 0.814937 0.496125 -0.060497
C10   C     C_R   0.702233 0.768344 0.529517 0.000995
C11   C     C_R   0.808594 0.805544 0.485560 -0.088432
C12   C     C_R   0.380770 0.501796 0.380621 0.995405
C13   C     C_R   0.804461 0.724209 0.460637 -0.033399
C14   C     C_R   0.726403 0.658945 0.442940 -0.042721
C15   C     C_R   0.685175 0.682659 0.492811 -0.005022
C16   C     C_R   0.862207 0.701718 0.434640 0.409617
C17   C     C_R   0.830564 0.617251 0.372375 -0.198157
C18   C     C_R   0.743229 0.555240 0.340163 0.318679
C19   C     C_R   0.688865 0.578120 0.370354 -0.229016
C20   C     C_R   0.813598 0.599330 0.684436 -0.161669
C21   C     C_R   0.892708 0.678606 0.740224 -0.215154
C22   C     C_R   0.932350 0.707717 0.828855 0.405156
C23   C     C_R   0.371928 0.381076 0.492960 0.851851
C24   C     C_R   0.903802 0.651550 0.858606 0.488437
C25   C     C_R   0.832171 0.568239 0.800234 -0.092346
C26   C     C_R   0.776545 0.554482 0.721362 -0.055722
C27   C     C_R   0.812541 0.497090 0.814859 -0.061659
C28   C     C_R   0.726210 0.424271 0.760370 0.025914
C29   C     C_R   0.661222 0.439142 0.714734 -0.107837
C30   C     C_R   0.686667 0.496979 0.685008 -0.056724
C31   C     C_R   0.699173 0.339760 0.749272 -0.151101
C32   C     C_R   0.607856 0.282972 0.711808 -0.175289
C33   C     C_R   0.546238 0.311810 0.690591 0.480328
C34   C     C_R   0.620973 0.499475 0.619984 0.850986
C35   C     C_R   0.574438 0.393528 0.698322 -0.282795
C36   C     C_R   0.279872 0.418154 0.593272 -0.120623
C37   C     C_R   0.275208 0.441612 0.668897 -0.056322
C38   C     C_R   0.250287 0.380072 0.693099 -0.246777
C39   C     C_R   0.225712 0.295278 0.640644 0.476536
C40   C     C_R   0.225410 0.270266 0.560563 0.019262
C41   C     C_R   0.264826 0.335225 0.544062 0.104907
C42   C     C_R   0.183141 0.184427 0.494324 -0.145696
C43   C     C_R   0.185026 0.165781 0.415391 0.022286
C44   C     C_R   0.244667 0.230951 0.411324 -0.101820
C45   C     C_3   0.330422 0.576445 0.292693 -0.159473
C46   C     C_R   0.290419 0.315952 0.480376 -0.168857
C47   C     C_R   0.126749 0.085286 0.338198 -0.134162
C48   C     C_R   0.155897 0.059972 0.278229 -0.211347
C49   C     C_R   0.224257 0.123421 0.281217 0.430550
C50   C     C_R   0.252065 0.208706 0.335479 -0.232882
C51   C     C_R   0.004142 0.619802 0.124480 1.019172
C52   C     C_R   0.124906 0.502885 0.127301 1.048590
C53   C     C_R   0.998758 0.382115 0.877275 0.882714
C54   C     C_R   0.881655 0.499237 0.882559 0.969217
C55   C     C_R   0.000314 0.879096 0.381496 1.049809
C56   C     C_3   0.244223 0.573643 0.290945 -0.310013
C57   C     C_R   0.879078 0.876665 0.495213 1.068637
C58   C     C_R   0.999256 0.120884 0.618012 0.918718
C59   C     C_R   0.120101 0.118040 0.497857 0.969132
C60   C     C_R   0.169643 0.777229 0.259217 0.446459
C61   C     C_R   0.235333 0.863213 0.295474 0.405469
C62   C     C_R   0.229930 0.927443 0.351413 -0.381596
C63   C     C_R   0.164386 0.908771 0.374052 0.476932
C64   C     C_R   0.084516 0.828050 0.318439 -0.047920
C65   C     C_R   0.086049 0.762210 0.256451 -0.119567
C66   C     C_R   0.002174 0.814232 0.315964 -0.048659
C67   C     C_3   0.192468 0.503684 0.196064 -0.184869
C68   C     C_R   0.920868 0.748461 0.240738 -0.045442
C69   C     C_R   0.922046 0.687161 0.174425 -0.094924
C70   C     C_R   0.003702 0.687256 0.189365 -0.121933
C71   C     C_R   0.837931 0.746529 0.224598 0.468931
C72   C     C_R   0.778039 0.720039 0.140466 -0.223615
C73   C     C_R   0.777437 0.658705 0.075514 -0.365573
C74   C     C_R   0.841711 0.632851 0.093481 0.490233
C75   C     C_R   0.010035 0.400093 0.721503 -0.220915
C76   C     C_R   0.022039 0.405478 0.653044 0.425818
C77   C     C_R   0.030611 0.342103 0.597934 -0.120537
C78   C     C_3   0.279186 0.507619 0.198237 0.409361
C79   C     C_R   0.029510 0.275350 0.613253 -0.262050
C80   C     C_R   0.012934 0.265216 0.677983 0.085203
C81   C     C_R   0.008340 0.330415 0.737785 -0.012979
C82   C     C_R   0.996926 0.188278 0.680794 -0.148277
C83   C     C_R   0.981575 0.176822 0.745080 -0.031731
C84   C     C_R   0.003352 0.248491 0.816307 -0.002716
C85   C     C_R   0.003416 0.320631 0.809055 -0.139494
C86   C     C_R   0.946636 0.096804 0.742294 -0.057599
C87   C     C_R   0.951869 0.092765 0.815527 -0.179745
C88   C     C_R   0.992274 0.166754 0.892010 -0.183402
C89   C     C_3   0.263328 0.435773 0.221287 0.450058
C90   C     C_R   0.024878 0.245672 0.893556 -0.133100
H1    H     H_    0.234244 0.628783 0.319427 0.219148
H2    H     H_    0.293681 0.464737 0.572170 0.198212
H3    H     H_    0.247720 0.396914 0.752306 0.194019
H4    H     H_    0.726083 0.629278 0.010396 0.205057
H5    H     H_    0.279317 0.993304 0.381379 0.166401
H6    H     H_    0.039500 0.229444 0.571382 0.215769
H7    H     H_    0.921514 0.031688 0.812464 0.186486
O1    O     O_R   0.592010 0.539900 0.448660 -0.653437
O2    O     O_R   0.054870 0.643310 0.094700 -0.577790
O3    O     O_R   0.044440 0.448270 0.096110 -0.588052
O4    O     O_R   0.147870 0.551680 0.096080 -0.589098
O5    O     O_R   0.952810 0.356650 0.912880 -0.625374
O6    O     O_R   0.056240 0.460060 0.912840 -0.583638
O7    O     O_R   0.859800 0.448280 0.911500 -0.649675
O8    O     O_R   0.963240 0.551690 0.911470 -0.540422
O9    O     O_R   0.052860 0.908430 0.461230 -0.587761
O10   O     O_R   0.948620 0.908400 0.356980 -0.601498
O11   O     O_R   0.960510 0.908410 0.552140 -0.606188
O12   O     O_R   0.591210 0.643320 0.551330 -0.602609
O13   O     O_R   0.856270 0.908390 0.447890 -0.543868
O14   O     O_R   0.051380 0.091620 0.643040 -0.605152
O15   O     O_R   0.947140 0.091600 0.538800 -0.595285
O16   O     O_R   0.143730 0.091640 0.552130 -0.587691
O17   O     O_R   0.039490 0.091610 0.447890 -0.620119
O18   O     O_R   0.408080 0.448290 0.356360 -0.535058
O19   O     O_R   0.407280 0.551710 0.459030 -0.584441
O20   O     O_R   0.408790 0.356680 0.448670 -0.648088
O21   O     O_R   0.407990 0.460100 0.551340 -0.598402
O22   O     O_R   0.592720 0.448290 0.540970 -0.589471
O23   O     O_R   0.591920 0.551710 0.643640 -0.597583
O24   O     O_R   0.951440 0.539900 0.094740 -0.602153
Zn1   Zn    Zn3+2 0.500540 0.430950 0.431450 1.058349
Zn2   Zn    Zn3+2 0.499460 0.569050 0.568550 1.128726
Zn3   Zn    Zn3+2 0.934770 0.430930 0.003810 1.047076
Zn4   Zn    Zn3+2 0.072900 0.569020 0.003770 1.149749
Zn5   Zn    Zn3+2 0.069600 0.000030 0.569620 0.993324
Zn6   Zn    Zn3+2 0.930400 0.000000 0.430410 1.104030
C91   C     C_2   0.606065 0.934742 0.486840 0.948485
O25   O     O_2   0.534640 0.921896 0.482864 -0.670329
O26   O     O_R   0.648262 0.996529 0.468712 -0.725853
H8    H     H_    0.613342 0.026223 0.453638 0.340025
O27   O     O_3   0.708425 0.888085 0.415085 -0.532401
C92   C     C_3   0.639418 0.825801 0.331954 -0.257831
H9    H     H_    0.585438 0.842159 0.315935 0.181468
H10   H     H_    0.613316 0.759470 0.321834 0.141032
H11   H     H_    0.664552 0.827440 0.286487 0.235023
O28   O     O_3   0.946015 0.762405 0.462255 -0.605087
C93   C     C_3   0.003536 0.770935 0.538861 -0.124730
H12   H     H_    0.999194 0.708900 0.531950 0.172390
H13   H     H_    0.990246 0.800529 0.591025 0.182089
H14   H     H_    0.072117 0.813826 0.557435 0.169157
C94   C     C_2   0.883478 0.597312 0.331035 0.988411
O29   O     O_2   0.963737 0.632251 0.372361 -0.604151
O30   O     O_R   0.841385 0.539539 0.243857 -0.770748
H15   H     H_    0.884269 0.532414 0.222923 0.349047
C95   C     C_2   0.592788 0.532939 0.309339 1.038489
O31   O     O_2   0.557032 0.574933 0.296182 -0.682105
O32   O     O_R   0.541800 0.444317 0.267627 -0.725059
H16   H     H_    0.573323 0.415986 0.291606 0.320152
O33   O     O_3   0.458784 0.260533 0.664101 -0.584354
C96   C     C_3   0.413130 0.213437 0.574131 -0.263115
H17   H     H_    0.438034 0.169562 0.549868 0.140841
H18   H     H_    0.416943 0.255846 0.545288 0.177621
H19   H     H_    0.342736 0.173802 0.552754 0.195162
C97   C     C_2   0.787565 0.550439 0.592528 0.985057
O34   O     O_2   0.751728 0.472547 0.556681 -0.595139
O35   O     O_R   0.810295 0.591730 0.548604 -0.801905
H20   H     H_    0.797787 0.550597 0.490625 0.324447
C98   C     C_2   0.938675 0.730003 0.709307 1.021317
O36   O     O_2   0.900235 0.753682 0.664412 -0.576523
O37   O     O_R   0.028114 0.755869 0.736608 -0.766962
H21   H     H_    0.054491 0.794854 0.715932 0.315008
O38   O     O_3   0.005389 0.787280 0.887198 -0.542419
C99   C     C_3   0.981497 0.851961 0.892279 -0.144321
H22   H     H_    0.913092 0.833073 0.881959 0.100990
H23   H     H_    0.990192 0.873146 0.846417 0.176471
H24   H     H_    0.026541 0.907830 0.957091 0.242978
O39   O     O_3   0.939882 0.682236 0.945496 -0.559049
C100  C     C_3   0.886848 0.711554 0.972113 -0.240638
H25   H     H_    0.818109 0.659333 0.940153 0.148174
H26   H     H_    0.886920 0.765461 0.961164 0.164775
H27   H     H_    0.914516 0.735757 0.041342 0.191001
C101  C     C_2   0.417292 0.656165 0.338375 0.955688
O40   O     O_2   0.477266 0.671640 0.403522 -0.623068
O41   O     O_R   0.429285 0.712749 0.306580 -0.851707
H28   H     H_    0.487317 0.766895 0.346736 0.329602
C102  C     C_2   0.761010 0.304606 0.762672 1.012275
O42   O     O_2   0.812357 0.315200 0.734543 -0.672259
O43   O     O_R   0.757896 0.256334 0.804496 -0.769204
H29   H     H_    0.797880 0.229843 0.803454 0.358637
C103  C     C_2   0.574862 0.192883 0.692976 0.987773
O44   O     O_2   0.523869 0.163475 0.716710 -0.582357
O45   O     O_R   0.599908 0.141014 0.645621 -0.782159
H30   H     H_    0.571236 0.080481 0.634940 0.384474
C104  C     C_2   0.521457 0.437604 0.709707 1.000642
O46   O     O_2   0.441537 0.396648 0.673840 -0.581341
O47   O     O_R   0.561409 0.524775 0.766724 -0.733619
H31   H     H_    0.627699 0.552642 0.801862 0.297637
O48   O     O_3   0.248673 0.103755 0.218570 -0.541598
C105  C     C_3   0.317480 0.084774 0.246613 -0.179055
H32   H     H_    0.294088 0.026170 0.252173 0.174291
H33   H     H_    0.374859 0.139194 0.308306 0.130135
H34   H     H_    0.340239 0.072475 0.198543 0.208107
C106  C     C_2   0.299843 0.531096 0.723992 0.917136
O49   O     O_2   0.299125 0.552034 0.791929 -0.616085
O50   O     O_R   0.324373 0.592063 0.698583 -0.806542
H35   H     H_    0.339280 0.650576 0.741340 0.359300
O51   O     O_3   0.200943 0.238325 0.668939 -0.637280
C107  C     C_3   0.277579 0.244206 0.726160 -0.193930
H36   H     H_    0.318888 0.308025 0.784349 0.162017
H37   H     H_    0.316722 0.229446 0.694895 0.206374
H38   H     H_    0.257523 0.196331 0.746699 0.181857
C108  C     C_2   0.030647 0.056946 0.299793 0.995661
O52   O     O_2   0.976286 0.981383 0.257950 -0.600276
O53   O     O_R   0.002433 0.118248 0.310226 -0.763253
H39   H     H_    0.935908 0.092062 0.281424 0.351805
C109  C     C_2   0.105643 0.972177 0.203627 1.001052
O54   O     O_2   0.103682 0.959955 0.135472 -0.556915
O55   O     O_R   0.060504 0.903084 0.211174 -0.803111
H40   H     H_    0.034342 0.846793 0.158425 0.337299
O56   O     O_3   0.296419 0.511508 0.132087 -0.562568
C110  C     C_3   0.380928 0.521290 0.149722 -0.164482
H41   H     H_    0.396586 0.480452 0.175794 0.200799
H42   H     H_    0.431367 0.589131 0.193434 0.207136
H43   H     H_    0.383832 0.502025 0.089221 0.190596
C111  C     C_2   0.266873 0.267492 0.300277 1.110779
O57   O     O_2   0.309172 0.266595 0.262153 -0.491832
O58   O     O_R   0.233130 0.324335 0.310239 -0.800662
H44   H     H_    0.192524 0.315287 0.335723 0.317061
O59   O     O_3   0.184801 0.707489 0.233259 -0.670235
C112  C     C_3   0.267222 0.727097 0.236442 -0.100061
H45   H     H_    0.322080 0.774376 0.302121 0.193792
H46   H     H_    0.270672 0.744941 0.187150 0.216086
H47   H     H_    0.275023 0.669900 0.219604 0.211467
O60   O     O_3   0.297980 0.883677 0.269016 -0.619952
C113  C     C_3   0.383599 0.942434 0.338969 -0.323991
H48   H     H_    0.394855 0.933139 0.395684 0.204071
H49   H     H_    0.396782 0.008832 0.356454 0.157700
H50   H     H_    0.432198 0.933105 0.319522 0.214010
O61   O     O_3   0.176382 0.975201 0.443433 -0.620829
C114  C     C_3   0.244277 0.989463 0.518079 -0.230071
H51   H     H_    0.309648 0.016602 0.521438 0.151238
H52   H     H_    0.230319 0.930046 0.522689 0.159518
H53   H     H_    0.248982 0.036520 0.575144 0.202137
O62   O     O_3   0.814887 0.765840 0.288723 -0.619051
C115  C     C_3   0.732002 0.698601 0.261670 -0.300972
H54   H     H_    0.729964 0.635590 0.237094 0.188638
H55   H     H_    0.676598 0.696849 0.213492 0.167452
H56   H     H_    0.718700 0.709387 0.315529 0.184508
C116  C     C_2   0.714090 0.752466 0.120290 0.985368
O63   O     O_2   0.645951 0.709418 0.052152 -0.554469
O64   O     O_R   0.730530 0.832266 0.177190 -0.760939
H57   H     H_    0.791125 0.866761 0.229015 0.347263
O65   O     O_3   0.830197 0.563311 0.027270 -0.616677
C117  C     C_3   0.750884 0.490390 0.998189 -0.209020
H58   H     H_    0.694909 0.485853 0.947411 0.148290
H59   H     H_    0.736223 0.488952 0.050435 0.178897
H60   H     H_    0.756509 0.432379 0.969906 0.208839
C118  C     C_2   0.990706 0.158367 0.966186 1.020264
O66   O     O_2   0.023435 0.118647 0.990869 -0.564366
O67   O     O_R   0.946973 0.190544 0.004974 -0.713783
H61   H     H_    0.918778 0.218878 0.977062 0.322443
O68   O     O_3   0.287250 0.370746 0.201106 -0.543915
C119  C     C_3   0.247375 0.316392 0.113310 -0.093836
H62   H     H_    0.255767 0.351648 0.078163 0.170871
H63   H     H_    0.177854 0.271140 0.088438 0.217159
H64   H     H_    0.280775 0.277456 0.102927 0.191605
C120  C     C_2   0.990578 0.466061 0.764964 1.017159
O69   O     O_2   0.051235 0.534963 0.824491 -0.549442
O70   O     O_R   0.907251 0.458304 0.726164 -0.765968
H65   H     H_    0.865197 0.403981 0.669526 0.358235
O71   O     O_3   0.016701 0.469749 0.635838 -0.576394
C121  C     C_3   0.102352 0.538170 0.675449 -0.133735
H66   H     H_    0.096871 0.593431 0.671587 0.205612
H67   H     H_    0.138657 0.521631 0.641609 0.157891
H68   H     H_    0.140598 0.558634 0.744129 0.185043
C122  C     C_2   0.035763 0.341201 0.520753 0.933481
O72   O     O_2   0.018232 0.387839 0.495027 -0.548236
O73   O     O_R   0.058457 0.284876 0.475609 -0.806856
H69   H     H_    0.060727 0.290859 0.425198 0.382238
C123  C     C_2   0.886808 0.017405 0.661910 0.854947
O74   O     O_2   0.883318 0.950873 0.657934 -0.606734
O75   O     O_R   0.830136 0.016838 0.591657 -0.768906
H70   H     H_    0.825880 0.071245 0.605394 0.340582
C124  C     C_2   0.094897 0.323052 0.973676 0.853415
O76   O     O_2   0.091059 0.334692 0.038520 -0.654756
O77   O     O_R   0.165721 0.383632 0.976792 -0.740670
H71   H     H_    0.169645 0.364241 0.922262 0.310363
C125  C     C_2   0.093418 0.355960 0.191021 1.135018
O78   O     O_2   0.088801 0.285767 0.168475 -0.540435
O79   O     O_R   0.021285 0.366101 0.191584 -0.757606
H72   H     H_    0.968493 0.310319 0.170593 0.361631
C126  C     C_2   0.210260 0.505669 0.386820 0.972604
O80   O     O_2   0.147869 0.445085 0.374680 -0.615637
O81   O     O_R   0.263073 0.578646 0.467002 -0.752974
H73   H     H_    0.243526 0.573301 0.509988 0.355011
O82   O     O_3   0.707302 0.475145 0.271938 -0.568501
C127  C     C_3   0.732321 0.424181 0.303341 -0.199520
H74   H     H_    0.804675 0.448479 0.332419 0.178014
H75   H     H_    0.700259 0.358913 0.249150 0.204524
H76   H     H_    0.710193 0.419190 0.350353 0.133817
C128  C     C_2   0.703224 0.805212 0.669437 1.000220
O83   O     O_2   0.681704 0.836939 0.721186 -0.608705
O84   O     O_R   0.757398 0.769146 0.689181 -0.773754
H77   H     H_    0.771893 0.771290 0.746318 0.326283
C129  C     C_2   0.600232 0.893365 0.621923 1.061503
O85   O     O_2   0.627049 0.970004 0.661220 -0.612742
O86   O     O_R   0.530998 0.836082 0.623458 -0.731425
H78   H     H_    0.508466 0.865774 0.659334 0.354004

loop_
_geom_bond_atom_site_label_1
_geom_bond_atom_site_label_2
_ccdc_geom_bond_type
C121  H68   S    
C66   C68   A    
C108  O52   D    
C40   C41   A    
C105  H32   S    
C22   O38   S    
C20   C97   S    
C126  O81   S    
C21   C98   S    
C73   C74   A    
C106  O50   S    
C124  O76   D    
O20   Zn1   S    
C91   O25   D    
C23   O21   A    
O37   H21   S    
C104  O46   D    
C27   C54   S    
C7    C8    A    
O2    Zn4   S    
O53   H39   S    
O65   C117  S    
O56   C110  S    
C108  O53   S    
C118  O66   D    
O35   H20   S    
C41   C46   A    
C31   C102  S    
C83   C84   A    
C58   O15   A    
C54   O7    A    
C28   C29   A    
C124  O77   S    
C111  O58   S    
C86   C123  S    
C4    C89   S    
C112  H47   S    
C10   C15   A    
C60   O59   S    
O84   H77   S    
C80   C81   A    
C6    C129  S    
C104  O47   S    
C11   C13   A    
C49   O48   S    
C123  O74   D    
C45   C78   S    
C34   O22   A    
O73   H69   S    
C115  H54   S    
C38   H3    S    
O81   H73   S    
C123  O75   S    
C18   C19   A    
C100  H25   S    
C96   H19   S    
C49   C50   A    
C33   O33   S    
C59   O17   A    
O24   Zn3   S    
C119  H63   S    
C105  H34   S    
C1    O12   A    
C21   C22   A    
C84   C85   A    
C56   H1    S    
C98   O36   D    
C45   C56   S    
C62   H5    S    
C8    C9    A    
C102  O43   S    
C64   C65   A    
C8    O27   S    
C107  H38   S    
O4    Zn4   S    
O62   C115  S    
C98   O37   S    
C90   C124  S    
C1    C15   S    
C51   C70   S    
C71   O62   S    
C7    C91   S    
C4    C12   S    
C29   C30   A    
C9    C10   A    
O23   Zn2   S    
C59   O16   A    
O13   Zn6   S    
C72   C73   A    
C12   O18   A    
C74   O65   S    
C36   H2    S    
C40   C42   A    
C106  O49   D    
C96   H17   S    
C107  H36   S    
O18   Zn1   S    
C89   O68   S    
C13   C14   A    
C96   H18   S    
C34   O23   A    
C99   H23   S    
C100  H26   S    
C99   H22   S    
C36   C41   A    
C69   C70   A    
C67   C78   S    
C84   C90   A    
C73   H4    S    
O14   Zn5   S    
O5    Zn3   S    
C116  O64   S    
O59   C112  S    
C44   C46   A    
C81   C85   A    
O60   C113  S    
C6    C7    A    
C95   O32   S    
C4    C45   S    
C101  O41   S    
C78   C89   S    
C51   O2    A    
C38   C39   A    
C27   C28   A    
O55   H40   S    
C52   O4    A    
C118  O67   S    
C16   O28   S    
C28   C31   A    
C30   C34   S    
C55   O9    A    
C109  O54   D    
C19   C95   S    
C47   C48   A    
C32   C103  S    
C121  H66   S    
C24   C25   A    
C80   C82   A    
C2    C67   S    
C103  O45   S    
C2    C125  S    
C117  H58   S    
C86   C87   A    
C68   C69   A    
C18   O82   S    
C119  H64   S    
O79   H72   S    
C103  O44   D    
C128  O84   S    
C52   O3    A    
O61   C114  S    
C61   O60   S    
O43   H29   S    
C55   O10   A    
C17   C94   S    
O3    Zn3   S    
C127  H75   S    
C1    O1    A    
O19   Zn2   S    
C120  O70   S    
C75   C76   A    
C127  H76   S    
O45   H30   S    
C37   C38   A    
O68   C119  S    
C45   C101  S    
C92   H11   S    
C112  H45   S    
C3    C56   S    
O26   H8    S    
C31   C32   A    
C110  H43   S    
C50   C111  S    
C53   O5    A    
C35   C104  S    
C111  O57   D    
C57   O11   A    
C62   C63   A    
C72   C116  S    
C17   C18   A    
O67   H61   S    
C77   C79   A    
C47   C108  S    
C69   C74   A    
C114  H52   S    
C11   C57   S    
O32   H16   S    
C76   C77   A    
C97   O35   S    
C9    C11   A    
O9    Zn5   S    
O51   C107  S    
C52   C67   S    
C93   H13   S    
C63   O61   S    
C37   C106  S    
O39   C100  S    
C39   O51   S    
C88   C90   A    
C60   C65   A    
C102  O42   D    
C113  H49   S    
C82   C83   A    
C117  H59   S    
C43   C44   A    
C92   H9    S    
C51   O24   A    
C100  H27   S    
C22   C24   A    
C129  O86   S    
C13   C16   A    
C42   C43   A    
C3    C4    S    
C113  H50   S    
C5    C128  S    
C114  H51   S    
C55   C66   S    
O16   Zn5   S    
C79   C80   A    
C92   H10   S    
C95   O31   D    
O22   Zn1   S    
C44   C50   A    
O48   C105  S    
O1    Zn1   S    
O70   H65   S    
C76   O71   S    
C36   C37   A    
C105  H33   S    
C88   C118  S    
C54   O8    A    
C24   O39   S    
C20   C21   A    
C14   C15   A    
C14   C19   A    
C99   H24   S    
O12   Zn2   S    
O82   C127  S    
C109  O55   S    
O50   H35   S    
C93   H14   S    
C91   O26   S    
C42   C59   S    
C23   O20   A    
C53   C85   S    
C122  O72   D    
C57   O13   A    
C26   C30   A    
O71   C121  S    
O7    Zn3   S    
C75   C81   A    
C12   O19   A    
C25   C27   A    
C56   C67   S    
C128  O83   D    
O28   C93   S    
C29   C35   A    
O33   C96   S    
C115  H56   S    
O8    Zn4   S    
O30   H15   S    
C58   O14   A    
C127  H74   S    
C126  O80   D    
C119  H62   S    
C58   C82   S    
C2    C3    S    
C25   C26   A    
C125  O78   D    
O10   Zn6   S    
C79   H6    S    
C112  H46   S    
O41   H28   S    
C121  H67   S    
C32   C33   A    
O17   Zn6   S    
C122  O73   S    
O58   H44   S    
C5    C6    A    
C20   C26   A    
C53   O6    A    
C68   C71   A    
C48   C49   A    
O64   H57   S    
C48   C109  S    
C3    C126  S    
C116  O63   D    
C33   C35   A    
O15   Zn6   S    
C115  H55   S    
O27   C92   S    
C114  H53   S    
C94   O30   S    
O21   Zn2   S    
C125  O79   S    
C61   C62   A    
O6    Zn4   S    
C107  H37   S    
O38   C99   S    
C93   H12   S    
C110  H42   S    
C101  O40   D    
C63   C64   A    
C39   C40   A    
C2    C89   S    
C77   C122  S    
C5    C10   A    
C83   C86   A    
C71   C72   A    
C110  H41   S    
C87   C88   A    
C113  H48   S    
O86   H78   S    
C117  H60   S    
C120  O69   D    
C97   O34   D    
C23   C46   S    
C94   O29   D    
C60   C61   A    
O47   H31   S    
O11   Zn5   S    
O77   H71   S    
C43   C47   A    
C78   O56   S    
C129  O85   D    
C65   C70   A    
C16   C17   A    
C64   C66   A    
C75   C120  S    
C87   H7    S    
O75   H70   S    
