data_mof_unit_219.cif
_audit_creation_date              2012-10-26T21:14:45-0400
_audit_creation_method            fapswitch 2.2
_symmetry_space_group_name_H-M    P1
_symmetry_Int_Tables_number       1
_space_group_crystal_system       triclinic
_cell_length_a                    15.079489
_cell_length_b                    10.82957
_cell_length_c                    13.680016
_cell_angle_alpha                 90.079957
_cell_angle_beta                  89.852405
_cell_angle_gamma                 89.721291
_cell_volume                      2233.9704968

loop_
_atom_site_label
_atom_site_type_symbol
_atom_type_description
_atom_site_fract_x
_atom_site_fract_y
_atom_site_fract_z
_atom_type_partial_charge
C1    C     C_R   0.497747 0.262145 0.499751 0.546896
C2    C     C_R   0.581058 0.878990 0.666228 0.056313
C3    C     C_R   0.456819 0.111718 0.239907 0.411487
C4    C     C_R   0.543171 0.888273 0.760092 0.411488
C5    C     C_R   0.416983 0.171504 0.160647 -0.054105
C6    C     C_R   0.583006 0.828489 0.839353 -0.054106
C7    C     C_R   0.339346 0.240418 0.174278 -0.149495
C8    C     C_R   0.660648 0.759583 0.825726 -0.149491
C9    C     C_R   0.467386 0.933350 0.420496 -0.092873
C10   C     C_R   0.532614 0.066650 0.579504 -0.092876
C11   C     C_R   0.503982 0.871713 0.500796 -0.010025
C12   C     C_R   0.502253 0.737855 0.500248 0.546897
C13   C     C_R   0.496018 0.128287 0.499204 -0.010027
C14   C     C_R   0.537724 0.938755 0.581149 0.006468
C15   C     C_R   0.462275 0.061245 0.418850 0.006466
C16   C     C_R   0.328450 0.500120 0.500098 0.548934
C17   C     C_R   0.671550 0.499882 0.499902 0.548937
C18   C     C_R   0.556668 0.423347 0.792918 0.076349
C19   C     C_R   0.443332 0.576652 0.207082 0.076351
C20   C     C_R   0.443437 0.576577 0.793484 0.046168
C21   C     C_R   0.556562 0.423421 0.206516 0.046168
C22   C     C_R   0.442207 0.578513 0.896541 -0.076825
C23   C     C_R   0.045775 0.478305 0.677330 -0.122690
C24   C     C_R   0.557791 0.421486 0.103459 -0.076823
C25   C     C_R   0.500072 0.499920 0.948155 -0.027044
C26   C     C_R   0.499927 0.500079 0.051845 -0.027044
C27   C     C_R   0.558049 0.421188 0.896113 0.008734
C28   C     C_R   0.441950 0.578811 0.103887 0.008735
C29   C     C_R   0.384809 0.657101 0.948874 -0.092869
C30   C     C_R   0.615190 0.342897 0.051126 -0.092865
C31   C     C_R   0.384516 0.657403 0.051600 0.366442
C32   C     C_R   0.615483 0.342595 0.948400 0.366441
C33   C     C_R   0.814905 0.510569 0.411345 -0.129662
C34   C     C_R   0.954224 0.521743 0.322675 -0.122689
C35   C     C_R   0.185093 0.489473 0.588659 -0.129657
C36   C     C_R   0.768366 0.499650 0.499810 -0.013955
C37   C     C_R   0.231634 0.500358 0.500191 -0.013954
C38   C     C_R   0.814512 0.488419 0.588288 -0.139349
C39   C     C_R   0.185487 0.511567 0.411712 -0.139350
C40   C     C_R   0.906870 0.488747 0.589015 0.011435
C41   C     C_R   0.093129 0.511257 0.410987 0.011436
C42   C     C_R   0.953519 0.499898 0.499955 0.063703
C43   C     C_R   0.046479 0.500116 0.500048 0.063704
C44   C     C_R   0.907304 0.510765 0.410796 0.013683
C45   C     C_R   0.300771 0.248772 0.267041 -0.111274
C46   C     C_R   0.092695 0.489267 0.589208 0.013683
C47   C     C_R   0.953316 0.478040 0.677234 -0.123984
C48   C     C_R   0.046683 0.521982 0.322770 -0.123983
C49   C     C_R   0.699229 0.751238 0.732966 -0.111275
C50   C     C_R   0.340184 0.189195 0.346579 -0.112123
C51   C     C_R   0.659818 0.810814 0.653427 -0.112130
C52   C     C_R   0.418939 0.121010 0.333773 0.056309
Cu1   Cu    Cu3+1 0.500010 0.499980 0.597420 0.959751
Cu2   Cu    Cu3+1 0.499990 0.500020 0.402580 0.959750
F1    F     F_    0.328137 0.734633 0.099656 -0.638993
F2    F     F_    0.671862 0.265366 0.900344 -0.638995
F3    F     F_    0.533225 0.047347 0.225636 -0.632414
F4    F     F_    0.466760 0.952634 0.774357 -0.632415
H1    H     H_    0.779357 0.519263 0.342874 0.133128
H2    H     H_    0.659887 0.281529 0.089763 0.159213
H3    H     H_    0.778675 0.479013 0.656676 0.133373
H4    H     H_    0.221324 0.520949 0.343322 0.133365
H5    H     H_    0.918136 0.469507 0.746055 0.126560
H6    H     H_    0.081863 0.530520 0.253948 0.126564
H7    H     H_    0.080580 0.469928 0.746228 0.121018
H8    H     H_    0.919419 0.530150 0.253778 0.121018
H9    H     H_    0.309079 0.287310 0.112926 0.131091
H10   H     H_    0.690913 0.712693 0.887080 0.131090
H11   H     H_    0.240357 0.301537 0.277315 0.124247
H12   H     H_    0.220642 0.480812 0.657133 0.133124
H13   H     H_    0.759646 0.698478 0.722695 0.124252
H14   H     H_    0.309955 0.197113 0.418249 0.116461
H15   H     H_    0.690052 0.802902 0.581759 0.116460
H16   H     H_    0.446724 0.165363 0.088687 0.155867
H17   H     H_    0.553259 0.834623 0.911311 0.155865
H18   H     H_    0.440043 0.881572 0.359766 0.164762
H19   H     H_    0.559957 0.118427 0.640234 0.164754
H20   H     H_    0.600649 0.363799 0.751387 0.174700
H21   H     H_    0.399351 0.636201 0.248613 0.174702
H22   H     H_    0.399525 0.636632 0.752662 0.143722
H23   H     H_    0.600473 0.363366 0.247338 0.143720
H24   H     H_    0.340112 0.718469 0.910237 0.159216
N1    N     N_R   0.499960 0.499900 0.743810 -0.253052
N2    N     N_R   0.500040 0.500100 0.256190 -0.253053
O1    O     O_R   0.500000 0.319630 0.582270 -0.503988
O2    O     O_R   0.500000 0.680370 0.417730 -0.503989
O3    O     O_R   0.499990 0.319660 0.417730 -0.495655
O4    O     O_R   0.500010 0.680340 0.582270 -0.495654
O5    O     O_R   0.370260 0.499960 0.582280 -0.505957
O6    O     O_R   0.629740 0.500040 0.417720 -0.505957
O7    O     O_R   0.370250 0.499990 0.417740 -0.514166
O8    O     O_R   0.629750 0.500010 0.582260 -0.514167

loop_
_geom_bond_atom_site_label_1
_geom_bond_atom_site_label_2
_ccdc_geom_bond_type
C1    O3    A    
C40   C47   A    
C38   C40   A    
C22   C29   A    
C34   H8    S    
Cu2   N2    S    
C6    H17   S    
C39   C41   A    
Cu1   Cu2   S    
C7    C45   A    
C35   C37   A    
C24   C26   A    
Cu2   O6    S    
C47   H5    S    
Cu2   O3    S    
C11   C14   A    
C48   H6    S    
C33   C36   A    
C5    H16   S    
C50   H14   S    
C35   H12   S    
C49   C51   A    
C22   C25   A    
C30   H2    S    
C50   C52   A    
C9    H18   S    
C16   C37   S    
C38   H3    S    
C40   C42   A    
C16   O5    A    
C33   H1    S    
C23   C46   A    
C41   C43   A    
C17   O8    A    
C42   C44   A    
C10   H19   S    
C17   O6    A    
C1    O1    A    
C23   C47   A    
C20   H22   S    
C45   H11   S    
C34   C44   A    
C4    C6    A    
C10   C14   A    
Cu2   O2    S    
C12   O4    A    
C6    C8    A    
C25   C26   A    
C2    C4    A    
C21   N2    A    
C18   H20   S    
Cu1   O8    S    
C18   N1    A    
C15   C52   S    
C19   H21   S    
C19   C28   A    
C9    C11   A    
C3    F3    S    
C17   C36   S    
C20   C22   A    
C8    H10   S    
C13   C15   A    
Cu1   O5    S    
C21   C24   A    
C1    C13   S    
C42   C43   A    
C19   N2    A    
C5    C7    A    
C39   H4    S    
C27   C32   A    
C33   C44   A    
C28   C31   A    
C18   C27   A    
C51   H15   S    
C21   H23   S    
C3    C5    A    
C10   C13   A    
C3    C52   A    
C25   C27   A    
C26   C28   A    
C12   O2    A    
Cu1   N1    S    
C23   H7    S    
C36   C38   A    
C9    C15   A    
Cu2   O7    S    
C29   C31   A    
C30   C32   A    
C45   C50   A    
C41   C48   A    
Cu1   O4    S    
C2    C14   S    
C43   C46   A    
C24   C30   A    
C2    C51   A    
C7    H9    S    
C29   H24   S    
C34   C48   A    
C16   O7    A    
C37   C39   A    
C49   H13   S    
C20   N1    A    
C4    F4    S    
Cu1   O1    S    
C31   F1    S    
C35   C46   A    
C8    C49   A    
C32   F2    S    
C11   C12   S    
