data_mof_unit_58.cif
_audit_creation_date              2012-10-26T19:21:08-0400
_audit_creation_method            fapswitch 2.2
_symmetry_space_group_name_H-M    P1
_symmetry_Int_Tables_number       1
_space_group_crystal_system       triclinic
_cell_length_a                    9.814515
_cell_length_b                    11.043988
_cell_length_c                    13.50493
_cell_angle_alpha                 94.290595
_cell_angle_beta                  81.631772
_cell_angle_gamma                 111.317522
_cell_volume                      1348.76391376

loop_
_atom_site_label
_atom_site_type_symbol
_atom_type_description
_atom_site_fract_x
_atom_site_fract_y
_atom_site_fract_z
_atom_type_partial_charge
C1    C     C_R   0.556561 0.745486 0.507311 0.536080
C2    C     C_R   0.372733 0.463903 0.797589 0.002876
C3    C     C_2   0.588421 0.884724 0.511409 -0.115039
C4    C     C_R   0.422400 0.488996 0.690377 0.549758
C5    C     C_2   0.484119 0.930497 0.498515 -0.154112
C6    C     C_2   0.411405 0.115259 0.489023 -0.107687
C7    C     C_2   0.515576 0.069479 0.502233 -0.149742
C8    C     C_2   0.921037 0.489245 0.491189 0.027610
C9    C     C_2   0.075415 0.508134 0.508431 0.107492
C10   C     C_R   0.443375 0.254507 0.492840 0.566719
C11   C     C_R   0.577234 0.510639 0.309720 0.572447
C12   C     C_R   0.441328 0.457189 0.964709 0.034180
C13   C     C_R   0.795834 0.647407 0.067117 -0.142177
C14   C     C_R   0.622887 0.525463 0.201666 0.016717
C15   C     C_R   0.235070 0.366703 0.824935 0.369302
C16   C     C_R   0.204337 0.309785 0.917437 -0.106295
C17   C     C_R   0.308254 0.349199 0.984183 -0.127376
C18   C     C_R   0.472694 0.515422 0.869584 -0.035861
C19   C     C_R   0.546748 0.506821 0.034426 0.056322
C20   C     C_R   0.686334 0.603021 0.003109 0.005120
C21   C     C_R   0.712834 0.660188 0.910473 -0.117127
C22   C     C_R   0.604852 0.622059 0.847259 -0.107288
C23   C     C_R   0.516154 0.471492 0.135917 0.357060
C24   C     C_R   0.764760 0.607659 0.165672 -0.180878
Cu1   Cu    Cu3+1 0.362000 0.479240 0.482530 1.156314
Cu2   Cu    Cu3+1 0.638000 0.520760 0.517470 0.948975
F1    F     F_    0.095425 0.367024 0.382386 -0.521532
F2    F     F_    0.379023 0.395808 0.175541 -0.617227
F3    F     F_    0.135855 0.316662 0.758609 -0.617549
H1    H     H_    0.374509 0.865228 0.484993 0.156463
H2    H     H_    0.903450 0.718249 0.042339 0.134227
H3    H     H_    0.282511 0.288186 0.047628 0.219173
H4    H     H_    0.102296 0.228703 0.935316 0.153091
H5    H     H_    0.627062 0.677169 0.780097 0.138973
H6    H     H_    0.302046 0.049717 0.475378 0.120307
H7    H     H_    0.697826 0.950265 0.524962 0.126527
H8    H     H_    0.870618 0.421002 0.433339 0.205329
H9    H     H_    0.895364 0.616769 0.598083 0.204213
H10   H     H_    0.625143 0.134746 0.515850 0.173630
H11   H     H_    0.847913 0.649397 0.215611 0.152798
H12   H     H_    0.123129 0.575381 0.567646 0.075123
H13   H     H_    0.815766 0.738669 0.888298 0.117417
N1    N     N_2   0.845330 0.551960 0.543750 -0.375977
N2    N     N_2   0.154690 0.448120 0.456210 0.056415
O1    O     O_R   0.426290 0.668220 0.490680 -0.536257
O2    O     O_R   0.659360 0.703290 0.520190 -0.499520
O3    O     O_R   0.326580 0.473880 0.629020 -0.457830
O4    O     O_R   0.559660 0.508940 0.658530 -0.511905
O5    O     O_R   0.340640 0.296710 0.479810 -0.439073
O6    O     O_R   0.573710 0.331780 0.509320 -0.508709
O7    O     O_R   0.440340 0.491060 0.341470 -0.386445
O8    O     O_R   0.673420 0.526120 0.370980 -0.525053

loop_
_geom_bond_atom_site_label_1
_geom_bond_atom_site_label_2
_ccdc_geom_bond_type
C14   C23   A    
C6    C10   S    
C2    C4    S    
Cu1   O7    S    
C23   F2    S    
C6    C7    D    
Cu2   O8    S    
C16   H4    S    
C2    C18   A    
Cu1   O3    S    
C9    H12   S    
C19   C20   A    
C8    N1    D    
Cu2   O4    S    
H9    N1    S    
C21   C22   A    
C20   C21   A    
C12   C17   A    
C2    C15   A    
C1    O1    A    
C3    H7    S    
Cu1   N2    S    
C24   H11   S    
Cu2   N1    S    
C15   F3    S    
Cu2   O6    S    
C22   H5    S    
C11   C14   S    
Cu1   O5    S    
C1    O2    A    
C11   O7    A    
C8    H8    S    
Cu2   O2    S    
C14   C24   A    
C21   H13   S    
C10   O6    A    
Cu1   O1    S    
C6    H6    S    
C12   C19   A    
C5    H1    S    
C4    O4    A    
C12   C18   A    
C5    C7    S    
C17   H3    S    
C7    H10   S    
C19   C23   A    
C16   C17   A    
C9    N2    D    
C11   O8    A    
C13   C20   A    
C3    C5    D    
Cu1   Cu2   S    
C18   C22   A    
C10   O5    A    
F1    N2    S    
C13   H2    S    
C15   C16   A    
C13   C24   A    
C8    C9    S    
C1    C3    S    
C4    O3    A    
