data_mof_unit_4827.cif
_audit_creation_date              2012-12-11T16:51:31-0500
_audit_creation_method            fapswitch 2.2
_symmetry_space_group_name_H-M    P1
_symmetry_Int_Tables_number       1
_space_group_crystal_system       triclinic
_cell_length_a                    24.451479
_cell_length_b                    17.21522
_cell_length_c                    15.572324
_cell_angle_alpha                 89.881204
_cell_angle_beta                  129.08614
_cell_angle_gamma                 90.086951
_cell_volume                      5087.95476158

loop_
_atom_site_label
_atom_site_type_symbol
_atom_type_description
_atom_site_fract_x
_atom_site_fract_y
_atom_site_fract_z
_atom_type_partial_charge
C1    C     C_R   0.845883 0.864151 0.228370 -0.140781
C2    C     C_R   0.184406 0.118792 0.502953 0.051991
C3    C     C_R   0.354160 0.682254 0.498277 0.070029
C4    C     C_R   0.684406 0.618792 0.502952 0.051992
C5    C     C_R   0.877362 0.173990 0.191476 0.140945
C6    C     C_R   0.146248 0.129584 0.860876 0.143494
C7    C     C_R   0.377362 0.673990 0.191476 0.140945
C8    C     C_R   0.646248 0.629584 0.860876 0.143495
C9    C     C_R   0.850840 0.714309 0.608719 0.076981
C10   C     C_R   0.220323 0.837746 0.391985 0.061944
C11   C     C_R   0.350840 0.214310 0.608720 0.076981
C12   C     C_R   0.166886 0.890608 0.799539 -0.097505
C13   C     C_R   0.720323 0.337746 0.391985 0.061945
C14   C     C_R   0.831956 0.741419 0.508525 0.091018
C15   C     C_R   0.238636 0.863903 0.492222 0.127641
C16   C     C_R   0.331956 0.241419 0.508525 0.091018
C17   C     C_R   0.738635 0.363903 0.492222 0.127641
C18   C     C_R   0.780747 0.699862 0.411526 -0.140337
C19   C     C_R   0.308857 0.853617 0.588780 -0.141412
C20   C     C_R   0.280747 0.199862 0.411527 -0.140337
C21   C     C_R   0.808857 0.353617 0.588780 -0.141411
C22   C     C_R   0.236244 0.148620 0.411243 -0.169871
C23   C     C_R   0.345883 0.364150 0.228370 -0.140782
C24   C     C_R   0.851540 0.299441 0.589085 -0.205462
C25   C     C_R   0.736244 0.648620 0.411242 -0.169872
C26   C     C_R   0.351540 0.799441 0.589085 -0.205462
C27   C     C_R   0.244210 0.139135 0.508342 -0.012678
C28   C     C_R   0.823768 0.256524 0.492795 0.101279
C29   C     C_R   0.744210 0.639135 0.508342 -0.012678
C30   C     C_R   0.323768 0.756524 0.492795 0.101278
C31   C     C_R   0.307534 0.163234 0.608807 0.054848
C32   C     C_R   0.761830 0.283539 0.392546 -0.096909
C33   C     C_R   0.807535 0.663233 0.608806 0.054848
C34   C     C_R   0.666886 0.390608 0.799539 -0.097505
C35   C     C_R   0.261830 0.783539 0.392546 -0.096908
C36   C     C_3   0.822035 0.701597 0.707746 0.639253
C37   C     C_3   0.198893 0.742096 0.294131 0.694181
C38   C     C_3   0.322033 0.201599 0.707745 0.639251
C39   C     C_3   0.698893 0.242096 0.294132 0.694181
C40   C     C_R   0.114486 0.900581 0.407622 -0.267158
C41   C     C_R   0.912980 0.856758 0.594044 -0.235890
C42   C     C_R   0.614486 0.400581 0.407622 -0.267158
C43   C     C_R   0.412980 0.356758 0.594044 -0.235889
C44   C     C_3   0.869271 0.757459 0.707280 -0.640962
C45   C     C_R   0.908274 0.141522 0.591885 -0.127100
C46   C     C_3   0.153666 0.802080 0.292495 -0.605224
C47   C     C_3   0.369270 0.257461 0.707279 -0.640961
C48   C     C_3   0.653666 0.302080 0.292495 -0.605226
C49   C     C_2   0.193453 0.845481 0.977428 -0.213435
C50   C     C_2   0.853753 0.751356 0.132772 -0.183798
C51   C     C_2   0.693453 0.345481 0.977428 -0.213435
C52   C     C_2   0.353753 0.251356 0.132772 -0.183798
C53   C     C_2   0.263222 0.845089 0.035290 -0.102664
C54   C     C_2   0.805425 0.708628 0.125826 -0.115758
C55   C     C_2   0.763222 0.345089 0.035290 -0.102664
C56   C     C_R   0.115757 0.103506 0.409610 -0.102925
C57   C     C_2   0.305425 0.208628 0.125826 -0.115758
C58   C     C_2   0.851638 0.245828 0.127873 -0.192876
C59   C     C_2   0.192813 0.156734 0.975178 -0.216000
C60   C     C_2   0.351638 0.745828 0.127873 -0.192876
C61   C     C_2   0.692813 0.656734 0.975178 -0.216000
C62   C     C_2   0.804826 0.289138 0.124081 -0.106972
C63   C     C_2   0.262681 0.155302 0.033927 -0.102191
C64   C     C_2   0.304826 0.789138 0.124081 -0.106973
C65   C     C_2   0.762681 0.655302 0.033927 -0.102191
C66   C     C_R   0.188161 0.897428 0.590420 0.704875
C67   C     C_R   0.408274 0.641522 0.591885 -0.127100
C68   C     C_R   0.832040 0.860656 0.410976 0.695309
C69   C     C_R   0.688161 0.397428 0.590420 0.704875
C70   C     C_R   0.332040 0.360656 0.410976 0.695310
C71   C     C_R   0.076911 0.893124 0.802847 -0.145970
C72   C     C_R   0.940436 0.862313 0.235628 -0.114844
C73   C     C_R   0.576911 0.393124 0.802847 -0.145970
C74   C     C_R   0.440436 0.362314 0.235628 -0.114844
C75   C     C_R   0.879367 0.823005 0.196716 0.111211
C76   C     C_R   0.147015 0.872825 0.863084 0.126712
C77   C     C_R   0.379367 0.323005 0.196716 0.111211
C78   C     C_R   0.615757 0.603506 0.409610 -0.102925
C79   C     C_R   0.647015 0.372825 0.863084 0.126712
C80   C     C_R   0.183159 0.884491 0.497933 -0.089748
C81   C     C_R   0.858103 0.815792 0.503742 -0.093119
C82   C     C_R   0.683159 0.384491 0.497933 -0.089748
C83   C     C_R   0.358103 0.315792 0.503742 -0.093120
C84   C     C_R   0.832557 0.138839 0.407554 -0.021726
C85   C     C_R   0.188746 0.101875 0.593257 -0.148822
C86   C     C_R   0.332557 0.638839 0.407554 -0.021726
C87   C     C_R   0.688746 0.601875 0.593257 -0.148823
C88   C     C_R   0.939244 0.135856 0.233100 -0.132146
C89   C     C_R   0.854160 0.182254 0.498277 0.070029
C90   C     C_R   0.076345 0.108411 0.800990 -0.153210
C91   C     C_R   0.439244 0.635856 0.233100 -0.132147
C92   C     C_R   0.576345 0.608411 0.800990 -0.153210
C93   C     C_R   0.166121 0.110583 0.797822 -0.112753
C94   C     C_R   0.844469 0.132625 0.223863 -0.142572
C95   C     C_R   0.666121 0.610583 0.797822 -0.112753
C96   C     C_R   0.344469 0.632625 0.223863 -0.142572
F1    F     F_    0.859594 0.653403 0.799563 -0.677102
F2    F     F_    0.188637 0.669278 0.320105 -0.669799
F3    F     F_    0.359592 0.153406 0.799563 -0.677103
F4    F     F_    0.688637 0.169278 0.320105 -0.669799
F5    F     F_    0.248274 0.905321 0.695868 -0.746871
F6    F     F_    0.766659 0.854687 0.312168 -0.736917
F7    F     F_    0.748274 0.405321 0.695868 -0.746871
F8    F     F_    0.266659 0.354687 0.312168 -0.736917
H1    H     H_    0.793195 0.854602 0.198822 0.189815
H2    H     H_    0.126203 0.840739 0.218849 0.148600
H3    H     H_    0.348703 0.317951 0.687773 0.175487
H4    H     H_    0.626202 0.340739 0.218849 0.148601
H5    H     H_    0.925858 0.751251 0.780515 0.232335
H6    H     H_    0.119452 0.776648 0.309399 0.239612
H7    H     H_    0.425856 0.251254 0.780515 0.232335
H8    H     H_    0.619452 0.276647 0.309400 0.239613
H9    H     H_    0.788572 0.274162 0.172902 0.118998
H10   H     H_    0.286805 0.127103 0.002952 0.146209
H11   H     H_    0.288572 0.774163 0.172902 0.118999
H12   H     H_    0.219394 0.890629 0.825014 0.164270
H13   H     H_    0.786805 0.627103 0.002952 0.146209
H14   H     H_    0.867717 0.260761 0.078803 0.144855
H15   H     H_    0.169402 0.185644 0.007078 0.145068
H16   H     H_    0.367716 0.760761 0.078803 0.144855
H17   H     H_    0.669402 0.685644 0.007078 0.145068
H18   H     H_    0.169826 0.816601 0.009152 0.136104
H19   H     H_    0.870220 0.737035 0.084124 0.155018
H20   H     H_    0.669826 0.316601 0.009152 0.136104
H21   H     H_    0.370220 0.237035 0.084124 0.155019
H22   H     H_    0.094510 0.910636 0.323854 0.149616
H23   H     H_    0.293195 0.354602 0.198822 0.189815
H24   H     H_    0.946095 0.839676 0.679599 0.156485
H25   H     H_    0.594510 0.410635 0.323854 0.149616
H26   H     H_    0.446095 0.339676 0.679599 0.156485
H27   H     H_    0.048473 0.896806 0.834750 0.098538
H28   H     H_    0.977870 0.847387 0.223077 0.109697
H29   H     H_    0.548473 0.396806 0.834750 0.098538
H30   H     H_    0.477870 0.347387 0.223077 0.109696
H31   H     H_    0.790155 0.151178 0.322953 0.103910
H32   H     H_    0.235984 0.093487 0.677443 0.170338
H33   H     H_    0.290155 0.651178 0.322953 0.103911
H34   H     H_    0.719394 0.390629 0.825014 0.164270
H35   H     H_    0.735984 0.593487 0.677443 0.170338
H36   H     H_    0.976751 0.150582 0.220586 0.105340
H37   H     H_    0.047478 0.105443 0.832214 0.100348
H38   H     H_    0.476751 0.650582 0.220586 0.105341
H39   H     H_    0.547478 0.605443 0.832214 0.100348
H40   H     H_    0.218476 0.110966 0.822446 0.115440
H41   H     H_    0.790718 0.139701 0.191318 0.102133
H42   H     H_    0.718476 0.610966 0.822446 0.115439
H43   H     H_    0.290718 0.639701 0.191318 0.102133
H44   H     H_    0.769311 0.713466 0.333802 0.166332
H45   H     H_    0.775546 0.729845 0.691870 0.005121
H46   H     H_    0.328493 0.879151 0.666701 0.208429
H47   H     H_    0.269312 0.213466 0.333803 0.166331
H48   H     H_    0.828493 0.379151 0.666701 0.208430
H49   H     H_    0.191194 0.125187 0.332969 0.126334
H50   H     H_    0.902265 0.285319 0.666906 0.133228
H51   H     H_    0.691194 0.625188 0.332969 0.126335
H52   H     H_    0.402265 0.785319 0.666906 0.133228
H53   H     H_    0.287577 0.873294 0.004574 0.140506
H54   H     H_    0.788658 0.722904 0.174035 0.140751
H55   H     H_    0.787577 0.373294 0.004574 0.140507
H56   H     H_    0.195938 0.743565 0.219906 -0.033916
H57   H     H_    0.288658 0.222904 0.174035 0.140751
H58   H     H_    0.937205 0.157744 0.677392 0.102013
H59   H     H_    0.096335 0.099713 0.325305 0.087602
H60   H     H_    0.437205 0.657744 0.677392 0.102013
H61   H     H_    0.596335 0.599713 0.325305 0.087602
H62   H     H_    0.275544 0.229847 0.691868 0.005122
H63   H     H_    0.695938 0.243565 0.219906 -0.033916
H64   H     H_    0.848705 0.817949 0.687776 0.175486
N1    N     N_R   0.888400 0.921830 0.294620 -0.053274
N2    N     N_R   0.874350 0.922400 0.443380 -0.097501
N3    N     N_R   0.625650 0.422400 0.556620 -0.100584
N4    N     N_R   0.374350 0.422400 0.443380 -0.097501
N5    N     N_R   0.054230 0.922730 0.705400 -0.043942
N6    N     N_R   0.945770 0.922730 0.294600 -0.045898
N7    N     N_R   0.554230 0.422730 0.705400 -0.043942
N8    N     N_R   0.445770 0.422730 0.294600 -0.045898
N9    N     N_R   0.873790 0.077030 0.443380 -0.050726
N10   N     N_R   0.126210 0.077030 0.556620 -0.046768
N11   N     N_R   0.373790 0.577030 0.443380 -0.050726
N12   N     N_R   0.111600 0.921830 0.705380 -0.049985
N13   N     N_R   0.626210 0.577030 0.556620 -0.046768
N14   N     N_R   0.945200 0.076700 0.294600 -0.045463
N15   N     N_R   0.054800 0.076700 0.705400 -0.044349
N16   N     N_R   0.445200 0.576700 0.294600 -0.045463
N17   N     N_R   0.554800 0.576700 0.705400 -0.044349
N18   N     N_R   0.111030 0.077600 0.705380 -0.046885
N19   N     N_R   0.888970 0.077600 0.294620 -0.046474
N20   N     N_R   0.611030 0.577600 0.705380 -0.046885
N21   N     N_R   0.388970 0.577600 0.294620 -0.046474
N22   N     N_R   0.919490 0.077280 0.556590 -0.046086
N23   N     N_R   0.388400 0.421830 0.294620 -0.053274
N24   N     N_R   0.080510 0.077280 0.443410 -0.044733
N25   N     N_R   0.419490 0.577280 0.556590 -0.046086
N26   N     N_R   0.580510 0.577280 0.443410 -0.044733
N27   N     N_R   0.611600 0.421830 0.705380 -0.049985
N28   N     N_R   0.079940 0.922160 0.443410 -0.071304
N29   N     N_R   0.920060 0.922160 0.556590 -0.071273
N30   N     N_R   0.579940 0.422160 0.443410 -0.071304
N31   N     N_R   0.420060 0.422160 0.556590 -0.071273
N32   N     N_R   0.125650 0.922400 0.556620 -0.100584
Ni1   Ni    Ni4+2 0.882160 0.999430 0.370180 0.270323
Ni2   Ni    Ni4+2 0.117840 0.999430 0.629820 0.254184
Ni3   Ni    Ni4+2 0.382160 0.499430 0.370180 0.270323
Ni4   Ni    Ni4+2 0.617840 0.499430 0.629820 0.254184
Ni5   Ni    Ni4+2 0.012460 0.999430 0.370180 0.198883
Ni6   Ni    Ni4+2 0.987540 0.999430 0.629820 0.209031
Ni7   Ni    Ni4+2 0.512460 0.499430 0.370180 0.198883
Ni8   Ni    Ni4+2 0.487540 0.499430 0.629820 0.209031

loop_
_geom_bond_atom_site_label_1
_geom_bond_atom_site_label_2
_ccdc_geom_bond_type
C34   N27   A    
C58   C62   D    
C56   N24   A    
C84   H31   S    
C25   H51   S    
C43   C83   A    
N24   Ni5   S    
C14   C18   A    
C13   C32   A    
C11   C47   S    
C42   C82   A    
N28   N32   A    
C19   H46   S    
C23   N23   A    
C5    C94   A    
C54   C65   S    
N21   Ni3   S    
C15   C19   A    
N26   Ni7   S    
C95   H42   S    
C56   H59   S    
C26   H52   S    
C50   C54   D    
N16   Ni7   S    
C30   C35   A    
C2    C85   A    
C68   C81   A    
C37   H56   S    
C35   C37   S    
C68   F6    S    
N3    N30   A    
C18   H44   S    
C10   C15   A    
C44   H64   S    
C71   C76   A    
C53   C64   S    
C70   F8    S    
C36   H45   S    
C21   H48   S    
C55   C62   S    
C29   C33   A    
C58   H14   S    
C33   C36   S    
N18   Ni2   S    
N4    N31   A    
C61   H17   S    
C17   C82   S    
C69   N3    A    
C32   C39   S    
N3    Ni4   S    
C92   H39   S    
C19   C26   A    
C70   N4    A    
C88   H36   S    
N2    Ni1   S    
C69   C82   A    
C86   H33   S    
C63   H10   S    
C68   N2    A    
C67   H60   S    
N22   Ni6   S    
C85   N10   A    
C9    C44   S    
C74   C77   A    
C10   C46   S    
N6    Ni5   S    
N1    N6    A    
C40   C80   A    
C72   H28   S    
C28   C89   S    
C8    C92   A    
C72   N6    A    
C45   C89   A    
C4    C29   S    
C8    C61   S    
C91   H38   S    
C44   H5    S    
C94   H41   S    
C55   H55   S    
C11   C31   A    
C64   H11   S    
C91   N16   A    
C3    C86   A    
C9    C33   A    
C51   H20   S    
C5    C88   A    
N17   Ni8   S    
N11   N25   A    
N29   Ni6   S    
N28   Ni5   S    
C18   C25   A    
N23   Ni3   S    
N7    Ni8   S    
C72   C75   A    
N7    N27   A    
C37   F2    S    
C24   H50   S    
C95   N20   A    
C57   C63   S    
C69   F7    S    
C25   C29   A    
C27   C31   A    
C1    C75   A    
C28   C32   A    
C94   N19   A    
C62   H9    S    
C41   N29   A    
N15   N18   A    
C4    C87   A    
C45   H58   S    
C92   N17   A    
N17   N20   A    
N27   Ni4   S    
N5    N12   A    
C6    C90   A    
C71   H27   S    
C34   H34   S    
C16   C83   S    
C8    C95   A    
C90   H37   S    
C71   N5    A    
C36   F1    S    
C96   N21   A    
C73   N7    A    
C3    C30   S    
C9    C14   A    
C74   N8    A    
C70   C83   A    
C34   C79   A    
C54   H54   S    
N10   N24   A    
C11   C16   A    
C88   N14   A    
C15   C80   S    
C42   N30   A    
C16   C20   A    
C6    C93   A    
C41   C81   A    
C73   C79   A    
C49   C76   S    
C23   C77   A    
N13   N26   A    
C38   C47   S    
N5    Ni6   S    
C93   H40   S    
C5    C58   S    
N32   Ni2   S    
C12   N12   A    
N11   Ni3   S    
C26   C30   A    
C47   H3    S    
C22   C27   A    
N10   Ni2   S    
C2    C27   S    
C78   N26   A    
N4    Ni3   S    
N9    Ni1   S    
C36   C44   S    
N13   Ni4   S    
C84   C89   A    
C20   C22   A    
C52   C77   S    
C7    C60   S    
N8    Ni7   S    
C23   H23   S    
C40   N28   A    
C38   H62   S    
C96   H43   S    
C78   H61   S    
C59   H15   S    
N9    N22   A    
C48   H8    S    
N30   Ni7   S    
N16   N21   A    
C53   H53   S    
C6    C59   S    
C43   H26   S    
C3    C67   A    
C50   H19   S    
C24   C28   A    
C87   H35   S    
C38   F3    S    
N8    N23   A    
C87   N13   A    
C13   C48   S    
C52   H21   S    
C20   H47   S    
C4    C78   A    
C66   C80   A    
N19   Ni1   S    
C59   C63   D    
C31   C38   S    
C13   C17   A    
C86   N11   A    
C60   C64   D    
N14   Ni5   S    
C12   C76   A    
C46   H6    S    
C2    C56   A    
C50   C75   S    
C93   N18   A    
C7    C91   A    
C39   F4    S    
C48   H4    S    
C47   H7    S    
C49   H18   S    
C74   H30   S    
C1    N1    A    
N31   Ni8   S    
C66   F5    S    
N20   Ni4   S    
C60   H16   S    
C42   H25   S    
C51   C55   D    
N14   N19   A    
C39   H63   S    
C84   N9    A    
C51   C79   S    
C49   C53   D    
C52   C57   D    
C46   H2    S    
C85   H32   S    
N1    Ni1   S    
C10   C35   A    
C61   C65   D    
C45   N22   A    
C57   H57   S    
C90   N15   A    
C41   H24   S    
N12   Ni2   S    
C73   H29   S    
C21   C24   A    
C7    C96   A    
N25   Ni8   S    
N15   Ni6   S    
C65   H13   S    
C40   H22   S    
C43   N31   A    
C14   C81   S    
C37   C46   S    
C67   N25   A    
N2    N29   A    
C66   N32   A    
C1    H1    S    
C39   C48   S    
C12   H12   S    
C22   H49   S    
C17   C21   A    
