data_mof_unit_2092.cif
_audit_creation_date              2012-12-10T17:03:56-0500
_audit_creation_method            fapswitch 2.2
_symmetry_space_group_name_H-M    P1
_symmetry_Int_Tables_number       1
_space_group_crystal_system       triclinic
_cell_length_a                    9.788945
_cell_length_b                    11.077311
_cell_length_c                    15.782538
_cell_angle_alpha                 95.009751
_cell_angle_beta                  78.350255
_cell_angle_gamma                 111.985201
_cell_volume                      1554.11177789

loop_
_atom_site_label
_atom_site_type_symbol
_atom_type_description
_atom_site_fract_x
_atom_site_fract_y
_atom_site_fract_z
_atom_type_partial_charge
C1    C     C_R   0.557250 0.745857 0.506224 0.794155
C2    C     C_R   0.442750 0.254143 0.493776 0.794157
C3    C     C_R   0.323788 0.460978 0.080679 -0.108403
C4    C     C_R   0.676204 0.538998 0.919322 -0.108399
C5    C     C_R   0.217194 0.427393 0.027958 -0.061765
C6    C     C_R   0.782799 0.572586 0.972043 -0.061760
C7    C     C_2   0.592023 0.885967 0.509638 0.221412
C8    C     C_2   0.407977 0.114033 0.490362 0.221414
C9    C     C_2   0.487095 0.930693 0.498955 -0.180220
C10   C     C_2   0.512905 0.069307 0.501044 -0.180221
C11   C     C_2   0.923396 0.490286 0.492291 -0.046513
C12   C     C_2   0.076604 0.509714 0.507709 -0.046513
C13   C     C_R   0.409719 0.487175 0.663466 0.865191
C14   C     C_R   0.590281 0.512824 0.336534 0.865189
C15   C     C_R   0.352029 0.476147 0.758085 -0.237683
C16   C     C_R   0.647969 0.523849 0.241915 -0.237684
C17   C     C_R   0.153174 0.394820 0.883471 0.424436
C18   C     C_R   0.846823 0.605171 0.116528 0.424437
C19   C     C_R   0.199310 0.406660 0.793466 0.033866
C20   C     C_R   0.800687 0.593337 0.206533 0.033865
C21   C     C_R   0.454635 0.531571 0.814504 0.290406
C22   C     C_R   0.545363 0.468417 0.185497 0.290401
C23   C     C_R   0.415174 0.492604 0.901737 -0.031050
C24   C     C_R   0.584821 0.507380 0.098264 -0.031046
C25   C     C_R   0.260672 0.436523 0.937893 -0.034127
C26   C     C_R   0.739323 0.563463 0.062107 -0.034132
C27   C     C_R   0.523516 0.509975 0.954707 0.107365
C28   C     C_R   0.476477 0.490005 0.045294 0.107369
Cu1   Cu    Cu3+1 0.362980 0.479380 0.485080 1.024010
Cu2   Cu    Cu3+1 0.637020 0.520620 0.514920 1.024012
H1    H     H_    0.100600 0.397182 0.058887 0.209400
H2    H     H_    0.899392 0.602795 0.941114 0.209402
H3    H     H_    0.284309 0.463832 0.149537 0.192827
H4    H     H_    0.715680 0.536140 0.850465 0.192829
H5    H     H_    0.621369 0.137693 0.511690 0.206595
H6    H     H_    0.378632 0.862307 0.488309 0.206595
H7    H     H_    0.121630 0.577299 0.558092 0.161866
H8    H     H_    0.878370 0.422701 0.441908 0.161866
H9    H     H_    0.111838 0.384882 0.415124 0.236176
H10   H     H_    0.888162 0.615118 0.584876 0.236178
N1    N     N_2   0.842890 0.551600 0.537350 -0.264703
N2    N     N_2   0.157110 0.448400 0.462650 -0.264704
O1    O     O_R   0.426810 0.668300 0.492040 -0.615062
O2    O     O_R   0.573190 0.331700 0.507960 -0.615062
O3    O     O_R   0.658240 0.703130 0.517240 -0.502153
O4    O     O_R   0.341760 0.296870 0.482760 -0.502153
O5    O     O_R   0.319390 0.472820 0.610170 -0.606861
O6    O     O_R   0.680610 0.527180 0.389830 -0.606860
O7    O     O_R   0.550820 0.507640 0.635370 -0.521131
O8    O     O_R   0.449180 0.492360 0.364630 -0.521135
Cl1   Cl    Cl    0.389233 0.323616 0.218066 -0.545070
Cl2   Cl    Cl    0.610770 0.676366 0.781937 -0.545075
N3    N     N_3   0.911825 0.651205 0.259924 -0.474585
H11   H     H_    0.879224 0.715641 0.304195 0.260660
H12   H     H_    0.922066 0.577835 0.292619 0.244153
N4    N     N_3   0.088173 0.348799 0.740074 -0.474588
H13   H     H_    0.120770 0.284363 0.695802 0.260663
H14   H     H_    0.077936 0.422173 0.707381 0.244152
Cl3   Cl    Cl    0.959531 0.319981 0.925854 -0.541374
Cl4   Cl    Cl    0.040465 0.680009 0.074144 -0.541372
Cl5   Cl    Cl    0.227904 0.009945 0.472498 -0.501822
Cl6   Cl    Cl    0.772096 0.990055 0.527502 -0.501823

loop_
_geom_bond_atom_site_label_1
_geom_bond_atom_site_label_2
_ccdc_geom_bond_type
C19   N4    S    
C9    H6    S    
C6    H2    S    
C11   C12   S    
Cu2   N1    S    
C10   H5    S    
C14   C16   S    
C23   C27   A    
Cu1   N2    S    
C11   H8    S    
C9    C10   S    
Cu1   O4    S    
Cu2   O3    S    
C18   C20   A    
C18   C26   A    
C8    Cl5   S    
C16   C20   A    
C17   C25   A    
C13   C15   S    
C6    C26   A    
C7    Cl6   S    
C14   O8    A    
N3    H11   S    
Cu1   O1    S    
C15   C19   A    
C24   C26   A    
Cu2   O2    S    
Cu1   Cu2   S    
C17   Cl3   S    
C13   O7    A    
C18   Cl4   S    
C3    C28   A    
C17   C19   A    
Cu2   O7    S    
Cu1   O5    S    
C11   N1    D    
H9    N2    S    
C22   C24   A    
Cu1   O8    S    
N3    H12   S    
C4    H4    S    
C8    C10   D    
C5    C25   A    
C22   Cl1   S    
C3    H3    S    
C12   N2    D    
C3    C5    A    
C15   C21   A    
C4    C27   A    
N4    H13   S    
C4    C6    A    
C23   C25   A    
C12   H7    S    
C1    O3    A    
Cu2   O6    S    
C27   C28   A    
C7    C9    D    
C14   O6    A    
H10   N1    S    
C16   C22   A    
C2    C8    S    
C1    C7    S    
N4    H14   S    
C13   O5    A    
C21   C23   A    
C1    O1    A    
C21   Cl2   S    
C2    O4    A    
C24   C28   A    
C2    O2    A    
C20   N3    S    
C5    H1    S    
