data_mof_unit_1573.cif
_audit_creation_date              2012-12-10T17:35:35-0500
_audit_creation_method            fapswitch 2.2
_symmetry_space_group_name_H-M    P1
_symmetry_Int_Tables_number       1
_space_group_crystal_system       triclinic
_cell_length_a                    10.705191
_cell_length_b                    12.351029
_cell_length_c                    13.159026
_cell_angle_alpha                 116.69236
_cell_angle_beta                  77.582478
_cell_angle_gamma                 100.339849
_cell_volume                      1511.23958892

loop_
_atom_site_label
_atom_site_type_symbol
_atom_type_description
_atom_site_fract_x
_atom_site_fract_y
_atom_site_fract_z
_atom_type_partial_charge
C1    C     C_R   0.511120 0.855062 0.286559 0.767937
C2    C     C_3   0.121279 0.998187 0.499898 0.170312
C3    C     C_3   0.070596 0.119178 0.593981 -0.399681
C4    C     C_3   0.041989 0.892718 0.526951 -0.366299
C5    C     C_R   0.325738 0.280017 0.023021 -0.197389
C6    C     C_R   0.453636 0.228819 0.835194 -0.051057
C7    C     C_R   0.594628 0.813218 0.083658 -0.194988
C8    C     C_R   0.619429 0.733566 0.968250 -0.149231
C9    C     C_R   0.573826 0.611317 0.931128 -0.189339
C10   C     C_R   0.497295 0.566670 0.009010 0.078614
C11   C     C_R   0.459198 0.651359 0.123856 0.085938
C12   C     C_R   0.739464 0.998588 0.499571 0.749026
C13   C     C_R   0.456046 0.441011 0.976396 0.072876
C14   C     C_R   0.367424 0.403719 0.054441 0.171428
C15   C     C_R   0.319060 0.490433 0.161886 -0.251201
C16   C     C_R   0.362742 0.612505 0.195569 -0.206331
C17   C     C_R   0.501297 0.350850 0.868724 -0.261413
C18   C     C_R   0.367875 0.192917 0.913428 -0.201783
C19   C     C_R   0.517622 0.772983 0.163081 -0.106860
C20   C     C_R   0.725727 0.356594 0.348664 -0.312214
C21   C     C_R   0.330996 0.764439 0.650977 0.073117
C22   C     C_R   0.307783 0.677849 0.694700 -0.277922
C23   C     C_R   0.480743 0.145096 0.713506 0.787750
C24   C     C_R   0.378878 0.577415 0.642879 -0.169691
C25   C     C_R   0.469852 0.559166 0.543020 0.009349
C26   C     C_R   0.498552 0.655546 0.508132 0.284490
C27   C     C_R   0.538117 0.452053 0.480706 -0.074190
C28   C     C_R   0.650052 0.454786 0.402004 0.139792
C29   C     C_R   0.682568 0.553558 0.374063 -0.278388
C30   C     C_R   0.605059 0.649091 0.422110 -0.191941
C31   C     C_R   0.495336 0.338900 0.487061 0.409454
C32   C     C_R   0.688287 0.254571 0.371138 0.010221
C33   C     C_R   0.260128 0.000187 0.499944 0.741957
C34   C     C_3   0.955008 0.980747 0.380885 -0.389039
C35   C     C_3   0.098425 0.976775 0.379638 -0.377570
C36   C     C_3   0.926837 0.118812 0.593607 -0.375055
C37   C     C_3   0.898874 0.891065 0.525278 -0.372641
C38   C     C_3   0.876941 0.996898 0.499850 0.166296
Cu1   Cu    Cu3+1 0.529690 0.098270 0.475420 0.931943
Cu2   Cu    Cu3+1 0.470310 0.901730 0.524580 0.910416
H1    H     H_    0.944129 0.057449 0.361843 0.165630
H2    H     H_    0.054770 0.904118 0.613116 0.162993
H3    H     H_    0.871666 0.132206 0.679731 0.150835
H4    H     H_    0.084890 0.131598 0.680037 0.148491
H5    H     H_    0.329552 0.098705 0.888437 0.144262
H6    H     H_    0.247157 0.463813 0.220417 0.138747
H7    H     H_    0.257748 0.251134 0.082143 0.127709
H8    H     H_    0.573137 0.373042 0.808103 0.145927
H9    H     H_    0.638526 0.906057 0.111163 0.151857
H10   H     H_    0.597668 0.554976 0.840417 0.125830
H11   H     H_    0.677935 0.765977 0.907550 0.138180
H12   H     H_    0.918233 0.895153 0.311862 0.145332
H13   H     H_    0.316984 0.675925 0.277436 0.170203
H14   H     H_    0.748632 0.180308 0.332556 0.132066
H15   H     H_    0.766293 0.555097 0.311283 0.146549
H16   H     H_    0.813585 0.358952 0.290325 0.140755
H17   H     H_    0.277548 0.843689 0.692789 0.119053
H18   H     H_    0.363809 0.516613 0.683832 0.152263
H19   H     H_    0.236536 0.689776 0.770114 0.142633
H20   H     H_    0.634297 0.717477 0.391236 0.203435
H21   H     H_    0.128841 0.886302 0.314448 0.148136
H22   H     H_    0.157147 0.044954 0.351951 0.166268
H23   H     H_    0.912948 0.196622 0.577439 0.172538
H24   H     H_    0.124295 0.197940 0.580521 0.184222
H25   H     H_    0.843027 0.899620 0.609928 0.173579
H26   H     H_    0.865325 0.802113 0.458171 0.165681
H27   H     H_    0.075898 0.803357 0.462342 0.166866
N1    N     N_R   0.574690 0.246280 0.438200 -0.191367
N2    N     N_R   0.426100 0.754320 0.561190 -0.205432
O1    O     O_R   0.537340 0.972510 0.318130 -0.572298
O2    O     O_R   0.487200 0.806530 0.359650 -0.599788
O3    O     O_R   0.707380 0.082980 0.479220 -0.592610
O4    O     O_R   0.657240 0.917000 0.520740 -0.601609
O5    O     O_R   0.512800 0.193470 0.640350 -0.590004
O6    O     O_R   0.462660 0.027490 0.681870 -0.582850
O7    O     O_R   0.342760 0.083000 0.479260 -0.555806
O8    O     O_R   0.292620 0.917020 0.520780 -0.603566
N3    N     N_2   0.363851 0.312676 0.524577 -0.407908
H28   H     H_    0.337765 0.308345 0.602837 0.243787
C39   C     C_3   0.267736 0.328543 0.470535 -0.712939
H29   H     H_    0.199713 0.392773 0.536670 0.220328
H30   H     H_    0.212969 0.240598 0.426468 0.225757
H31   H     H_    0.311424 0.362643 0.404457 0.229570

loop_
_geom_bond_atom_site_label_1
_geom_bond_atom_site_label_2
_ccdc_geom_bond_type
C2    C35   S    
Cu2   O2    S    
Cu1   N1    S    
C17   H8    S    
C20   H16   S    
C7    C8    A    
C3    H24   S    
C5    H7    S    
C11   C19   A    
C29   C30   A    
C21   C22   A    
C28   C29   A    
N3    C39   S    
C15   C16   A    
Cu2   O4    S    
C34   C35   S    
Cu1   O5    S    
C16   H13   S    
C8    C9    A    
C30   H20   S    
Cu1   O3    S    
C36   H23   S    
C9    C10   A    
C32   N1    A    
C12   O3    A    
C12   O4    A    
C34   H1    S    
C39   H31   S    
C32   H14   S    
C31   N1    A    
C6    C18   A    
C3    H4    S    
C1    C19   S    
Cu2   N2    S    
C27   C31   A    
C24   C25   A    
C7    H9    S    
C39   H30   S    
Cu1   Cu2   S    
N3    H28   S    
C5    C18   A    
C29   H15   S    
C25   C26   A    
C21   N2    A    
C2    C4    S    
C21   H17   S    
C37   C38   S    
C11   C16   A    
C33   O7    A    
C14   C15   A    
C37   H26   S    
C35   H21   S    
C1    O2    A    
Cu1   O7    S    
C8    H11   S    
C5    C14   A    
C2    C33   S    
C37   H25   S    
C26   C30   A    
C7    C19   A    
C22   C24   A    
C23   O5    A    
C18   H5    S    
C22   H19   S    
C31   N3    S    
C20   C32   A    
C6    C17   A    
C34   C38   S    
C9    H10   S    
C23   O6    A    
C39   H29   S    
C10   C13   A    
C4    H27   S    
C25   C27   A    
C20   C28   A    
C34   H12   S    
C1    O1    A    
Cu2   O6    S    
C13   C17   A    
C36   C38   S    
C2    C3    S    
C33   O8    A    
C4    H2    S    
C3    C36   S    
C6    C23   S    
Cu1   O1    S    
C35   H22   S    
C12   C38   S    
C10   C11   A    
C4    C37   S    
C24   H18   S    
C27   C28   A    
C26   N2    A    
Cu2   O8    S    
C36   H3    S    
C15   H6    S    
C13   C14   A    
