data_mof_unit_1761.cif
_audit_creation_date              2012-12-10T20:27:51-0500
_audit_creation_method            fapswitch 2.2
_symmetry_space_group_name_H-M    P1
_symmetry_Int_Tables_number       1
_space_group_crystal_system       triclinic
_cell_length_a                    12.834867
_cell_length_b                    10.664595
_cell_length_c                    9.858227
_cell_angle_alpha                 89.931366
_cell_angle_beta                  97.445758
_cell_angle_gamma                 89.834047
_cell_volume                      1337.99559178

loop_
_atom_site_label
_atom_site_type_symbol
_atom_type_description
_atom_site_fract_x
_atom_site_fract_y
_atom_site_fract_z
_atom_type_partial_charge
C1    C     C_R   0.503174 0.259828 0.500550 0.874735
C2    C     C_R   0.026983 0.543150 0.551640 0.066420
C3    C     C_R   0.972211 0.470114 0.445648 0.124705
C4    C     C_R   0.865855 0.451390 0.442804 -0.249279
C5    C     C_R   0.868258 0.568165 0.654924 -0.221761
C6    C     C_R   0.974993 0.588205 0.658456 -0.209910
C7    C     C_R   0.531361 0.063734 0.626890 0.142006
C8    C     C_R   0.521172 0.128452 0.503137 -0.099658
C9    C     C_R   0.533569 0.064673 0.381840 -0.234770
C10   C     C_R   0.534896 0.935188 0.382111 -0.226241
C11   C     C_R   0.523671 0.871065 0.503622 -0.098823
C12   C     C_R   0.298173 0.502307 0.472760 0.926555
C13   C     C_R   0.532776 0.935814 0.627260 0.124852
C14   C     C_3   0.469770 0.928127 0.744477 -0.473471
C15   C     C_3   0.467788 0.070352 0.743456 -0.494033
C16   C     C_R   0.448623 0.408176 0.062810 0.213547
C17   C     C_R   0.558331 0.583856 0.081737 -0.128089
C18   C     C_R   0.558379 0.583827 0.937708 -0.131779
C19   C     C_R   0.448458 0.408297 0.920184 0.210421
C20   C     C_3   0.333623 0.381098 0.895693 -0.490005
C21   C     C_3   0.334032 0.380582 0.049750 -0.523712
C22   C     C_R   0.505569 0.739835 0.500849 0.858979
C23   C     C_R   0.701828 0.499219 0.527221 0.869672
C24   C     C_R   0.813937 0.503455 0.544645 -0.036416
C25   C     C_R   0.185764 0.503140 0.454715 -0.162226
C26   C     C_R   0.024111 0.417644 0.343315 -0.217208
C27   C     C_R   0.131515 0.431963 0.349545 -0.289677
C28   C     C_R   0.133022 0.567988 0.549016 0.407545
H1    H     H_    0.822830 0.398503 0.359757 0.148935
H2    H     H_    0.516022 0.888179 0.837764 0.197725
H3    H     H_    0.388089 0.110393 0.713267 0.195877
H4    H     H_    0.512471 0.112468 0.836364 0.203382
H5    H     H_    0.603771 0.653126 0.143694 0.144120
H6    H     H_    0.603902 0.652992 0.890875 0.138287
H7    H     H_    0.286988 0.459650 0.844085 0.251524
H8    H     H_    0.317047 0.287561 0.848411 0.190288
H9    H     H_    0.287713 0.458778 0.086790 0.223543
H10   H     H_    0.318180 0.286648 0.091433 0.196748
H11   H     H_    0.827505 0.607821 0.734531 0.154306
H12   H     H_    0.982437 0.361779 0.262022 0.152006
H13   H     H_    0.016010 0.640241 0.743286 0.170984
H14   H     H_    0.172676 0.384037 0.275406 0.176026
H15   H     H_    0.534331 0.113470 0.285518 0.170961
H16   H     H_    0.536411 0.886517 0.285979 0.169040
H17   H     H_    0.391109 0.885552 0.716237 0.218811
N1    N     N_R   0.499290 0.499140 0.142710 -0.105349
N2    N     N_R   0.499290 0.499180 0.857070 -0.101278
O1    O     O_R   0.500010 0.316790 0.614690 -0.619811
O2    O     O_R   0.500000 0.316760 0.385350 -0.625864
O3    O     O_R   0.346360 0.499990 0.595720 -0.575913
O4    O     O_R   0.346350 0.499960 0.366370 -0.631659
O5    O     O_R   0.500000 0.683240 0.614650 -0.615381
O6    O     O_R   0.499990 0.683210 0.385310 -0.625003
O7    O     O_R   0.653650 0.500040 0.633630 -0.625883
O8    O     O_R   0.653640 0.500010 0.404280 -0.623021
Zn1   Zn    Zn3+2 0.500010 0.500020 0.653130 0.958033
Zn2   Zn    Zn3+2 0.499990 0.499980 0.346870 0.936803
O9    O     O_3   0.187525 0.649606 0.642109 -0.649977
C29   C     C_3   0.163266 0.775530 0.602877 0.043654
H18   H     H_    0.190319 0.835679 0.692388 0.169973
H19   H     H_    0.077244 0.792517 0.578070 0.133080
C30   C     C_3   0.219781 0.816363 0.482142 -0.360094
H20   H     H_    0.303640 0.790157 0.503405 0.227603
H21   H     H_    0.185291 0.767443 0.387490 0.209647
C31   C     C_3   0.211128 0.957585 0.458004 -0.947456
H22   H     H_    0.127431 0.985645 0.432936 0.264000
H23   H     H_    0.253955 0.983665 0.371228 0.270305
H24   H     H_    0.246423 0.009189 0.550327 0.258652

loop_
_geom_bond_atom_site_label_1
_geom_bond_atom_site_label_2
_ccdc_geom_bond_type
C12   O3    A    
C23   C24   S    
C1    O1    A    
C23   O8    A    
C30   H20   S    
O4    Zn2   S    
C28   O9    S    
C22   O6    A    
C1    C8    S    
C18   H6    S    
C9    C10   A    
C11   C22   S    
C30   H21   S    
C4    H1    S    
C7    C13   A    
C12   C25   S    
C31   H24   S    
C18   N2    A    
C7    C15   S    
C17   C18   A    
C21   H9    S    
C7    C8    A    
C13   C14   S    
C17   N1    A    
C25   C28   A    
C15   H3    S    
C11   C13   A    
C27   H14   S    
C26   H12   S    
C26   C27   A    
C2    C6    A    
C5    C24   A    
C17   H5    S    
C14   H2    S    
C16   C19   A    
C1    O2    A    
C2    C3    A    
C14   H17   S    
O7    Zn1   S    
O8    Zn2   S    
N1    Zn2   S    
C5    C6    A    
C4    C24   A    
C19   N2    A    
C9    H15   S    
C29   H19   S    
C10   C11   A    
C10   H16   S    
C3    C4    A    
C20   H8    S    
O5    Zn1   S    
C29   H18   S    
C12   O4    A    
O2    Zn2   S    
C20   C21   S    
C23   O7    A    
C22   O5    A    
C31   H22   S    
C16   N1    A    
O1    Zn1   S    
C5    H11   S    
O6    Zn2   S    
C14   C15   S    
N2    Zn1   S    
C29   C30   S    
C2    C28   A    
C30   C31   S    
O9    C29   S    
C20   H7    S    
C16   C21   S    
C6    H13   S    
C3    C26   A    
O3    Zn1   S    
C21   H10   S    
C19   C20   S    
C8    C9    A    
C31   H23   S    
C25   C27   A    
C15   H4    S    
