data_mof_unit_3892.cif
_audit_creation_date              2012-12-10T18:42:28-0500
_audit_creation_method            fapswitch 2.2
_symmetry_space_group_name_H-M    P1
_symmetry_Int_Tables_number       1
_space_group_crystal_system       triclinic
_cell_length_a                    8.588446
_cell_length_b                    10.635748
_cell_length_c                    9.857545
_cell_angle_alpha                 89.94559
_cell_angle_beta                  98.626434
_cell_angle_gamma                 90.17435
_cell_volume                      890.242412967

loop_
_atom_site_label
_atom_site_type_symbol
_atom_type_description
_atom_site_fract_x
_atom_site_fract_y
_atom_site_fract_z
_atom_type_partial_charge
C1    C     C_R   0.503787 0.260227 0.500561 0.906382
C2    C     C_R   0.496213 0.739772 0.499439 0.906383
C3    C     C_R   0.201134 0.499948 0.464099 0.976312
C4    C     C_R   0.798866 0.500052 0.535901 0.976312
C5    C     C_2   0.036004 0.500296 0.444790 -0.354032
C6    C     C_2   0.963996 0.499704 0.555210 -0.354032
C7    C     C_R   0.392066 0.066782 0.406881 -0.227620
C8    C     C_R   0.607934 0.933218 0.593119 -0.227620
C9    C     C_R   0.385911 0.937699 0.405758 0.165904
C10   C     C_R   0.614089 0.062301 0.594241 0.165904
C11   C     C_R   0.495278 0.872092 0.499230 -0.099723
C12   C     C_R   0.504722 0.127908 0.500770 -0.099723
C13   C     C_R   0.598605 0.577703 0.084658 -0.043974
C14   C     C_R   0.401395 0.422297 0.915342 -0.043974
C15   C     C_R   0.598564 0.577668 0.940872 -0.045674
C16   C     C_R   0.401436 0.422332 0.059128 -0.045674
H1    H     H_    0.974151 0.501187 0.340039 0.185823
H2    H     H_    0.025849 0.498813 0.659960 0.185823
H3    H     H_    0.307237 0.119640 0.336688 0.171438
H4    H     H_    0.692763 0.880360 0.663312 0.171438
H5    H     H_    0.677516 0.639863 0.149247 0.142915
H6    H     H_    0.322483 0.360137 0.850753 0.142915
H7    H     H_    0.677410 0.639823 0.896697 0.136256
H8    H     H_    0.322590 0.360177 0.103303 0.136256
N1    N     N_R   0.499960 0.499970 0.857200 -0.086112
N2    N     N_R   0.500040 0.500030 0.142800 -0.086112
O1    O     O_R   0.499990 0.316750 0.614620 -0.598649
O2    O     O_R   0.500010 0.683250 0.385380 -0.598648
O3    O     O_R   0.499990 0.316780 0.385290 -0.624134
O4    O     O_R   0.500010 0.683220 0.614710 -0.624134
O5    O     O_R   0.271750 0.499990 0.587840 -0.620207
O6    O     O_R   0.728250 0.500010 0.412160 -0.620208
O7    O     O_R   0.271750 0.500010 0.358510 -0.615382
O8    O     O_R   0.728250 0.499990 0.641490 -0.615382
Zn1   Zn    Zn3+2 0.500000 0.499980 0.653120 0.977879
Zn2   Zn    Zn3+2 0.500000 0.500020 0.346880 0.977879
I1    I     I_    0.203191 0.850006 0.268079 -0.347403
I2    I     I_    0.796809 0.149994 0.731921 -0.347402

loop_
_geom_bond_atom_site_label_1
_geom_bond_atom_site_label_2
_ccdc_geom_bond_type
C4    O8    A    
C7    H3    S    
C2    O4    A    
C10   I2    S    
C15   H7    S    
C14   H6    S    
C1    O3    A    
C13   H5    S    
C16   H8    S    
C8    H4    S    
C3    O5    A    
C9    C11   A    
O3    Zn2   S    
C4    O6    A    
C1    C12   S    
C10   C12   A    
O4    Zn1   S    
N1    Zn1   S    
C8    C11   A    
C5    C6    D    
C2    C11   S    
O6    Zn2   S    
C9    I1    S    
O5    Zn1   S    
C13   C15   A    
C14   N1    A    
C16   N2    A    
C7    C12   A    
C6    H2    S    
C14   C16   A    
C13   N2    A    
C15   N1    A    
C5    H1    S    
C3    O7    A    
C7    C9    A    
O7    Zn2   S    
O2    Zn2   S    
C4    C6    S    
O8    Zn1   S    
N2    Zn2   S    
C1    O1    A    
C2    O2    A    
O1    Zn1   S    
C8    C10   A    
C3    C5    S    
