data_mof_unit_4551.cif
_audit_creation_date              2012-12-11T14:52:41-0500
_audit_creation_method            fapswitch 2.2
_symmetry_space_group_name_H-M    P1
_symmetry_Int_Tables_number       1
_space_group_crystal_system       triclinic
_cell_length_a                    20.64875
_cell_length_b                    7.247308
_cell_length_c                    20.307031
_cell_angle_alpha                 90.231016
_cell_angle_beta                  101.545928
_cell_angle_gamma                 90.231429
_cell_volume                      2977.34942876

loop_
_atom_site_label
_atom_site_type_symbol
_atom_type_description
_atom_site_fract_x
_atom_site_fract_y
_atom_site_fract_z
_atom_type_partial_charge
O1    O     O_R   0.673670 0.377510 0.185950 -0.517850
O2    O     O_R   0.326330 0.622490 0.814050 -0.519454
O3    O     O_R   0.826330 0.877510 0.314050 -0.534728
O4    O     O_R   0.173670 0.122490 0.685950 -0.536671
O5    O     O_R   0.806260 0.705340 0.185590 -0.537704
O6    O     O_R   0.193740 0.294660 0.814410 -0.535079
O7    O     O_R   0.693740 0.205340 0.314410 -0.528642
O8    O     O_R   0.306260 0.794660 0.685590 -0.530512
C1    C     C_R   0.825531 0.538742 0.170827 0.711053
C2    C     C_R   0.174339 0.461234 0.829037 0.711267
C3    C     C_R   0.674485 0.038730 0.329206 0.724546
C4    C     C_R   0.325623 0.961213 0.670901 0.727193
O9    O     O_R   0.672940 0.707120 0.178050 -0.549413
O10   O     O_R   0.327060 0.292880 0.821950 -0.543509
O11   O     O_R   0.827060 0.207120 0.321950 -0.539226
O12   O     O_R   0.172940 0.792880 0.678050 -0.538255
O13   O     O_R   0.692060 0.879040 0.306460 -0.534330
O14   O     O_R   0.307940 0.120960 0.693540 -0.533798
O15   O     O_R   0.807940 0.379040 0.193540 -0.534325
O16   O     O_R   0.192060 0.620960 0.806460 -0.533038
C5    C     C_R   0.649441 0.537864 0.160672 0.753544
C6    C     C_R   0.350697 0.462143 0.839177 0.714543
C7    C     C_R   0.850711 0.039310 0.339238 0.690668
C8    C     C_R   0.149212 0.960691 0.660864 0.689181
O17   O     O_3   0.756430 0.544390 0.292140 -0.381445
O18   O     O_3   0.243570 0.455610 0.707860 -0.382405
O19   O     O_3   0.743570 0.044390 0.207860 -0.375149
O20   O     O_3   0.256430 0.955610 0.792140 -0.371519
V1    V     V_3+5 0.748810 0.818610 0.242180 1.389365
V2    V     V_3+5 0.251190 0.181390 0.757820 1.403424
V3    V     V_3+5 0.751190 0.318610 0.257820 1.410621
V4    V     V_3+5 0.248810 0.681390 0.742180 1.414576
C9    C     C_R   0.087680 0.965715 0.608283 -0.183930
C10   C     C_R   0.912163 0.034424 0.391938 -0.184593
C11   C     C_R   0.412917 0.476406 0.890687 -0.183493
C12   C     C_R   0.587734 0.524062 0.108579 -0.142686
C13   C     C_R   0.026162 0.133723 0.432290 -0.170114
C14   C     C_R   0.973610 0.866739 0.568056 -0.174097
C15   C     C_R   0.474132 0.413471 0.076028 -0.218276
C16   C     C_R   0.526628 0.587035 0.923042 -0.180587
C17   C     C_R   0.969156 0.129918 0.381553 0.230175
C18   C     C_R   0.030639 0.870706 0.618806 0.234020
C19   C     C_R   0.530766 0.445581 0.125836 0.230759
C20   C     C_R   0.469736 0.555402 0.872664 0.247947
C21   C     C_R   0.914021 0.940291 0.453567 0.214967
C22   C     C_R   0.085752 0.059977 0.546688 0.213038
C23   C     C_R   0.586902 0.570977 0.040638 0.203614
C24   C     C_R   0.413936 0.429495 0.958650 0.219639
C25   C     C_R   0.971727 0.950723 0.505374 0.003704
C26   C     C_R   0.028054 0.049451 0.494906 0.003229
C27   C     C_R   0.528742 0.540061 0.990641 0.012865
C28   C     C_R   0.471967 0.460615 0.008466 0.032436
H1    H     H_    0.069560 0.202405 0.421685 0.179492
H2    H     H_    0.930178 0.798382 0.578717 0.177014
H3    H     H_    0.431534 0.351320 0.090935 0.168577
H4    H     H_    0.569948 0.648111 0.909646 0.176096
C29   C     C_3   0.558226 0.075308 0.534497 0.212485
C30   C     C_3   0.446778 0.922947 0.470068 0.254247
C31   C     C_3   0.941229 0.571354 0.965271 0.210973
C32   C     C_3   0.053535 0.428252 0.029896 0.252850
C33   C     C_3   0.528317 0.893137 0.556807 -0.342343
C34   C     C_3   0.475904 0.104332 0.448256 -0.303524
C35   C     C_3   0.971813 0.389670 0.943582 -0.341077
C36   C     C_3   0.023735 0.609308 0.051017 -0.304602
H5    H     H_    0.549290 0.807220 0.601004 0.135615
H6    H     H_    0.453792 0.190680 0.404547 0.165541
H7    H     H_    0.951039 0.300446 0.899843 0.138888
H8    H     H_    0.045653 0.699122 0.094221 0.168735
C37   C     C_1   0.371515 0.968916 0.625634 -0.180889
C38   C     C_1   0.629438 0.030623 0.375322 -0.193154
C39   C     C_1   0.128355 0.469129 0.874200 -0.185544
C40   C     C_1   0.870602 0.530676 0.124726 -0.191918
C41   C     C_3   0.489848 0.167077 0.523080 0.509110
C42   C     C_3   0.514980 0.830841 0.481947 0.523580
C43   C     C_3   0.009176 0.667175 0.975895 0.505269
C44   C     C_3   0.985766 0.331951 0.018735 0.523981
C45   C     C_3   0.459029 0.987063 0.543747 -0.085652
C46   C     C_3   0.544960 0.011058 0.460359 -0.105486
C47   C     C_3   0.040671 0.487729 0.955910 -0.082484
C48   C     C_3   0.955116 0.511689 0.039685 -0.104641
C49   C     C_1   0.410624 0.975839 0.588403 0.017216
C50   C     C_1   0.591456 0.022995 0.413709 -0.012584
C51   C     C_1   0.089143 0.476353 0.911316 0.017663
C52   C     C_1   0.908616 0.523241 0.086361 -0.011705
N1    N     N_2   0.142190 0.160309 0.535481 -0.529017
H9    H     H_    0.187230 0.104085 0.556926 0.249054
C53   C     C_3   0.139478 0.357464 0.546497 -0.497646
H10   H     H_    0.140275 0.387614 0.600213 0.208904
H11   H     H_    0.093984 0.417302 0.515624 0.184356
H12   H     H_    0.182932 0.425050 0.532130 0.193680
N2    N     N_2   0.857430 0.840862 0.464876 -0.531570
H13   H     H_    0.812481 0.897533 0.443377 0.244831
C54   C     C_3   0.859790 0.643564 0.454061 -0.508573
H14   H     H_    0.858743 0.612859 0.400340 0.212009
H15   H     H_    0.816301 0.576799 0.468663 0.183541
H16   H     H_    0.905263 0.583397 0.484855 0.186716
N3    N     N_2   0.356211 0.356019 0.977705 -0.530420
H17   H     H_    0.331613 0.256720 0.945621 0.269850
C55   C     C_3   0.312332 0.493741 0.995943 -0.554695
H18   H     H_    0.291231 0.579704 0.951716 0.189494
H19   H     H_    0.339214 0.583789 0.036931 0.208788
H20   H     H_    0.271166 0.424457 0.014034 0.197697
N4    N     N_2   0.644840 0.643741 0.021812 -0.533201
H21   H     H_    0.669642 0.742134 0.054177 0.265399
C56   C     C_3   0.688464 0.505439 0.003469 -0.582164
H22   H     H_    0.709373 0.419013 0.047634 0.187134
H23   H     H_    0.729775 0.574152 0.985444 0.195090
H24   H     H_    0.661439 0.415919 0.962392 0.210030
N5    N     N_2   0.028004 0.788384 0.681970 -0.521015
H25   H     H_    0.059752 0.843089 0.723180 0.247707
C57   C     C_3   0.025831 0.588817 0.681898 -0.525033
H26   H     H_    0.072694 0.532155 0.671623 0.195971
H27   H     H_    0.983624 0.536534 0.643518 0.192929
H28   H     H_    0.019432 0.539532 0.731932 0.179287
N6    N     N_2   0.971712 0.213578 0.318602 -0.513157
H29   H     H_    0.940045 0.159265 0.277264 0.255609
C58   C     C_3   0.973558 0.413192 0.319196 -0.508030
H30   H     H_    0.979894 0.463782 0.269312 0.189103
H31   H     H_    0.015660 0.465333 0.357729 0.191228
H32   H     H_    0.926599 0.468796 0.329595 0.192036
N7    N     N_2   0.467968 0.602467 0.803644 -0.498982
H33   H     H_    0.442215 0.511897 0.768515 0.242840
C59   C     C_3   0.524441 0.688164 0.783633 -0.581808
H34   H     H_    0.511736 0.722677 0.729337 0.188559
H35   H     H_    0.567006 0.591909 0.791841 0.188262
H36   H     H_    0.537766 0.818873 0.811930 0.208917
N8    N     N_2   0.530671 0.393738 0.193466 -0.513407
H37   H     H_    0.500280 0.282880 0.197695 0.252022
C60   C     C_3   0.520932 0.545105 0.237111 -0.533723
H38   H     H_    0.524903 0.493693 0.289217 0.208340
H39   H     H_    0.471091 0.605845 0.219975 0.183908
H40   H     H_    0.559138 0.653721 0.237802 0.201017
N9    N     N_2   0.619204 0.163488 0.567899 -0.519370
H41   H     H_    0.655080 0.169221 0.539233 0.257288
C61   C     C_3   0.644206 0.108283 0.636555 -0.586101
H42   H     H_    0.685478 0.201258 0.659575 0.197753
H43   H     H_    0.662881 0.964513 0.637812 0.196846
H44   H     H_    0.604865 0.117755 0.666552 0.199610
N10   N     N_2   0.385755 0.837668 0.435674 -0.473789
H45   H     H_    0.344438 0.905854 0.444115 0.255503
C62   C     C_3   0.382560 0.796180 0.365387 -0.491226
H46   H     H_    0.335782 0.721429 0.344917 0.187971
H47   H     H_    0.424358 0.706777 0.358884 0.233381
H48   H     H_    0.383742 0.925646 0.336524 0.169708
N11   N     N_2   0.879912 0.655822 0.931976 -0.520858
H49   H     H_    0.845761 0.672735 0.962184 0.253917
C63   C     C_3   0.851903 0.586932 0.865480 -0.585781
H50   H     H_    0.809618 0.674899 0.842334 0.197699
H51   H     H_    0.833885 0.443140 0.868514 0.194882
H52   H     H_    0.889321 0.591066 0.833067 0.205463
N12   N     N_2   0.115096 0.348134 0.064334 -0.479075
H53   H     H_    0.155960 0.418011 0.055213 0.249615
C64   C     C_3   0.118984 0.311063 0.134912 -0.477540
H54   H     H_    0.166150 0.239772 0.155448 0.186067
H55   H     H_    0.077657 0.220139 0.142225 0.239400
H56   H     H_    0.117489 0.442185 0.163097 0.171246
O21   O     O_3   0.523228 0.651768 0.457368 -0.531541
C65   C     C_3   0.588619 0.592709 0.480993 -0.164731
H57   H     H_    0.600438 0.583755 0.536690 0.138140
H58   H     H_    0.624907 0.683296 0.463062 0.115332
H59   H     H_    0.593865 0.452304 0.460828 0.168076
O22   O     O_3   0.473411 0.347828 0.540040 -0.519226
C66   C     C_3   0.497009 0.382960 0.608964 -0.168915
H60   H     H_    0.550520 0.416403 0.618744 0.151568
H61   H     H_    0.487264 0.267500 0.641565 0.110155
H62   H     H_    0.471157 0.506029 0.623382 0.152717
O23   O     O_3   0.978311 0.153828 0.044190 -0.530015
C67   C     C_3   0.913310 0.089702 0.020429 -0.156012
H63   H     H_    0.902205 0.075296 0.964837 0.137981
H64   H     H_    0.876279 0.180190 0.036984 0.112952
H65   H     H_    0.908447 0.950846 0.041748 0.166008
O24   O     O_3   0.024445 0.847487 0.957393 -0.521473
C68   C     C_3   0.000078 0.875851 0.888273 -0.169084
H66   H     H_    0.946302 0.904316 0.878610 0.153506
H67   H     H_    0.010478 0.758804 0.856457 0.116739
H68   H     H_    0.024739 0.999799 0.872616 0.150071

loop_
_geom_bond_atom_site_label_1
_geom_bond_atom_site_label_2
_ccdc_geom_bond_type
C30   N10   S    
C30   C34   S    
C61   H44   S    
C53   H10   S    
C32   C47   S    
O1    C5    A    
C54   H14   S    
O19   V1    S    
C58   H30   S    
O13   V1    S    
O3    C7    A    
C66   H60   S    
C1    C40   S    
C4    C37   S    
O15   V3    S    
N11   H49   S    
C3    C38   S    
C61   H42   S    
C5    C12   S    
C35   C47   S    
N1    H9    S    
O7    C3    A    
C6    C11   S    
C56   H23   S    
O21   C65   S    
C12   C23   A    
C9    C18   A    
C36   H8    S    
O9    V1    S    
C66   H61   S    
C18   N5    S    
O10   V2    S    
C14   C18   A    
C62   H47   S    
O4    C8    A    
C67   H64   S    
C59   H35   S    
C35   C44   S    
N6    H29   S    
C20   N7    S    
O1    V3    S    
C44   O23   S    
O2    V4    S    
C29   C41   S    
O3    V1    S    
N4    H21   S    
C30   C45   S    
N11   C63   S    
C1    O15   A    
C67   H65   S    
C15   H3    S    
C63   H50   S    
C2    O16   A    
C16   H4    S    
O2    C6    A    
N12   H53   S    
C34   C41   S    
O14   V2    S    
C45   C49   S    
C64   H55   S    
C16   C20   A    
O5    V1    S    
C65   H59   S    
C48   C52   S    
C60   H40   S    
C13   H1    S    
C2    C39   S    
O11   C7    A    
C15   C28   A    
C54   H15   S    
C65   H58   S    
C9    C22   A    
C36   C48   S    
C29   N9    S    
C10   C17   A    
C17   N6    S    
C21   N2    S    
C11   C24   A    
N3    C55   S    
N3    H17   S    
C39   C51   T    
C68   H67   S    
C56   H24   S    
C35   H7    S    
C23   N4    S    
C34   H6    S    
N1    C53   S    
C27   C28   A    
O8    V4    S    
C59   H34   S    
C66   H62   S    
O7    V3    S    
C57   H27   S    
C58   H32   S    
C19   N8    S    
N2    H13   S    
C14   C25   A    
O18   V4    S    
C59   H36   S    
C15   C19   A    
N6    C58   S    
C68   H66   S    
C32   C44   S    
C32   N12   S    
N8    C60   S    
O5    C1    A    
C41   O22   S    
C24   N3    S    
N2    C54   S    
C46   C50   S    
C55   H18   S    
C14   H2    S    
C21   C25   A    
O8    C4    A    
C7    C10   S    
C63   H52   S    
O9    C5    A    
N4    C56   S    
C10   C21   A    
C64   H56   S    
O11   V3    S    
C11   C20   A    
N7    H33   S    
C40   C52   T    
C31   N11   S    
C67   H63   S    
O6    V2    S    
C54   H16   S    
C33   C45   S    
C53   H11   S    
N9    H41   S    
C62   H48   S    
N8    H37   S    
C31   C43   S    
O23   C67   S    
O24   C68   S    
C30   C42   S    
O17   V3    S    
O22   C66   S    
O16   V4    S    
C68   H68   S    
C61   H43   S    
C3    O13   A    
C57   H26   S    
C63   H51   S    
C29   C46   S    
C34   C46   S    
C44   C48   S    
C31   C48   S    
O6    C2    A    
C23   C27   A    
N10   H45   S    
C29   C33   S    
C33   C42   S    
O12   V4    S    
C16   C27   A    
C56   H22   S    
C22   C26   A    
C31   C35   S    
C8    C9    S    
C32   C36   S    
C22   N1    S    
C58   H31   S    
C60   H38   S    
N5    H25   S    
C47   C51   S    
C13   C26   A    
N10   C62   S    
O10   C6    A    
C65   H57   S    
C42   O21   S    
N5    C57   S    
O20   V2    S    
C36   C43   S    
C57   H28   S    
N12   C64   S    
C13   C17   A    
C38   C50   T    
N7    C59   S    
C37   C49   T    
C33   H5    S    
C24   C28   A    
C55   H20   S    
O12   C8    A    
C25   C26   A    
C42   C46   S    
C53   H12   S    
C4    O14   A    
C43   O24   S    
N9    C61   S    
C41   C45   S    
C12   C19   A    
C64   H54   S    
C62   H46   S    
C43   C47   S    
C55   H19   S    
O4    V2    S    
C60   H39   S    
