data_mof_unit_436.cif
_audit_creation_date              2012-12-11T17:08:31-0500
_audit_creation_method            fapswitch 2.2
_symmetry_space_group_name_H-M    P1
_symmetry_Int_Tables_number       1
_space_group_crystal_system       triclinic
_cell_length_a                    6.958302
_cell_length_b                    14.509978
_cell_length_c                    16.058073
_cell_angle_alpha                 90.040153
_cell_angle_beta                  89.972837
_cell_angle_gamma                 90.020186
_cell_volume                      1621.29959159

loop_
_atom_site_label
_atom_site_type_symbol
_atom_type_description
_atom_site_fract_x
_atom_site_fract_y
_atom_site_fract_z
_atom_type_partial_charge
O1    O     O_R   0.505700 0.583890 0.413310 -0.540018
O2    O     O_R   0.175960 0.594920 0.586080 -0.526914
O3    O     O_R   0.005660 0.416110 0.586690 -0.526817
C1    C     C_R   0.344756 0.616718 0.615016 0.728090
O4    O     O_R   0.175980 0.594920 0.413930 -0.548574
O5    O     O_R   0.005680 0.416110 0.413310 -0.536788
C2    C     C_R   0.344679 0.616866 0.385251 0.701206
O6    O     O_R   0.505680 0.583890 0.586690 -0.533928
O7    O     O_3   0.339200 0.441330 0.500000 -0.377040
V1    V     V_3+5 0.064350 0.510880 0.500000 1.453316
O8    O     O_R   0.675960 0.405080 0.413920 -0.551998
C3    C     C_R   0.845088 0.382824 0.385528 0.751397
O9    O     O_R   0.675940 0.405080 0.586070 -0.544701
C4    C     C_R   0.844680 0.382584 0.614434 0.778818
V2    V     V_3+5 0.564340 0.489120 0.500000 1.420249
O10   O     O_3   0.839360 0.558670 0.500000 -0.369772
C5    C     C_R   0.008503 0.251762 0.688848 0.108558
C6    C     C_R   0.852496 0.312080 0.681013 -0.100398
C7    C     C_R   0.700456 0.302091 0.738235 -0.136020
H1    H     H_    0.577563 0.347379 0.734849 0.148936
C8    C     C_R   0.712236 0.238394 0.804259 -0.170677
H2    H     H_    0.596942 0.235616 0.849345 0.137784
C9    C     C_R   0.876984 0.183306 0.815281 -0.101806
C10   C     C_R   0.020553 0.189010 0.754363 0.092033
C11   C     C_3   0.230680 0.205046 0.764477 -0.416816
C12   C     C_3   0.217599 0.273011 0.692781 -0.386507
H3    H     H_    0.316740 0.142708 0.749348 0.165104
H4    H     H_    0.264858 0.238282 0.825063 0.185466
H5    H     H_    0.295330 0.249791 0.636032 0.166440
H6    H     H_    0.245023 0.345577 0.711623 0.187848
C13   C     C_R   0.813311 0.273791 0.171708 0.007922
C14   C     C_R   0.884060 0.184614 0.183534 -0.131044
C15   C     C_R   0.963896 0.164358 0.262197 -0.308997
H7    H     H_    0.026805 0.097127 0.272835 0.156988
C16   C     C_R   0.955927 0.229345 0.328754 0.427162
C17   C     C_R   0.858908 0.314332 0.317568 -0.160975
C18   C     C_R   0.800601 0.336693 0.236766 -0.054308
C19   C     C_3   0.621728 0.380593 0.204007 -0.457204
C20   C     C_3   0.634790 0.310868 0.131845 0.364566
H8    H     H_    0.648949 0.452581 0.183530 0.162938
H9    H     H_    0.498442 0.373873 0.247370 0.166824
H10   H     H_    0.668691 0.344856 0.071576 0.086651
C21   C     C_R   0.504184 0.680763 0.743369 0.123857
C22   C     C_R   0.352665 0.682116 0.685796 -0.137652
C23   C     C_R   0.202582 0.745307 0.700210 -0.129512
H11   H     H_    0.081450 0.748297 0.658196 0.127991
C24   C     C_R   0.213443 0.809608 0.765780 -0.166163
H12   H     H_    0.099808 0.859917 0.772480 0.118929
C25   C     C_R   0.375451 0.813080 0.818404 -0.101306
C26   C     C_R   0.515872 0.745191 0.807504 0.092670
C27   C     C_3   0.727882 0.754882 0.798336 -0.423389
C28   C     C_3   0.715840 0.683558 0.729028 0.102149
H13   H     H_    0.806246 0.731265 0.854714 0.235760
H14   H     H_    0.768727 0.824520 0.775671 0.128829
H15   H     H_    0.753754 0.710607 0.666419 0.094477
C29   C     C_R   0.482631 0.758604 0.317412 0.011482
C30   C     C_R   0.351248 0.685691 0.317481 -0.111116
C31   C     C_R   0.216685 0.682892 0.251873 -0.203153
H16   H     H_    0.108578 0.629154 0.250726 0.143404
C32   C     C_R   0.229533 0.744579 0.183895 0.263816
C33   C     C_R   0.374824 0.813471 0.181941 -0.167597
C34   C     C_R   0.491196 0.821637 0.252588 -0.047986
C35   C     C_3   0.705087 0.832834 0.262927 0.355540
C36   C     C_3   0.693490 0.763208 0.334257 -0.422046
H17   H     H_    0.785712 0.805952 0.208479 0.133703
H18   H     H_    0.725327 0.792882 0.396572 0.175652
H19   H     H_    0.768090 0.697228 0.320239 0.153672
O11   O     O_R   0.229000 0.916070 0.913330 -0.535746
O12   O     O_R   0.558770 0.905070 0.086080 -0.536732
O13   O     O_R   0.729000 0.083900 0.086690 -0.520458
C37   C     C_R   0.389243 0.881516 0.113500 0.752766
O14   O     O_R   0.558720 0.905070 0.913930 -0.544262
O15   O     O_R   0.728960 0.083900 0.913310 -0.547054
C38   C     C_R   0.389630 0.883258 0.885040 0.708868
O16   O     O_R   0.229050 0.916070 0.086710 -0.518715
O17   O     O_3   0.395460 0.058650 0.000020 -0.365220
V3    V     V_3+5 0.670340 0.989120 0.000000 1.497040
O18   O     O_R   0.058670 0.094960 0.913900 -0.544408
C39   C     C_R   0.889675 0.117197 0.885348 0.674606
O19   O     O_R   0.058720 0.094960 0.086050 -0.546228
C40   C     C_R   0.890207 0.116701 0.114931 0.757243
V4    V     V_3+5 0.170330 0.010930 0.999970 1.487211
O20   O     O_3   0.895340 0.941350 0.999980 -0.351304
O21   O     O_3   0.484181 0.245068 0.121845 -0.534274
C41   C     C_3   0.408921 0.209837 0.197147 -0.158725
H20   H     H_    0.293687 0.256035 0.220049 0.132496
H21   H     H_    0.518155 0.198971 0.246477 0.109228
H22   H     H_    0.344447 0.141477 0.184401 0.153005
Br1   Br    Br    0.836658 0.567570 0.758516 -0.544030
Br2   Br    Br    0.061390 0.723197 0.090985 -0.561179
O22   O     O_3   0.777424 0.920477 0.288746 -0.545832
C42   C     C_3   0.637015 0.979390 0.323742 -0.216671
H23   H     H_    0.559454 0.945829 0.376119 0.136144
H24   H     H_    0.534847 0.003349 0.275161 0.117606
H25   H     H_    0.709762 0.041107 0.349476 0.166848
O23   O     O_3   0.021674 0.205824 0.407230 -0.558893
C43   C     C_3   0.224082 0.201152 0.405827 -0.234878
H26   H     H_    0.276022 0.191900 0.470583 0.156402
H27   H     H_    0.288927 0.266099 0.381720 0.132479
H28   H     H_    0.274814 0.140943 0.369052 0.113663

loop_
_geom_bond_atom_site_label_1
_geom_bond_atom_site_label_2
_ccdc_geom_bond_type
C37   O16   A    
C35   H17   S    
C4    C6    S    
O12   V3    S    
C7    H1    S    
C1    O6    A    
C43   H26   S    
C24   C25   A    
C23   H11   S    
C11   H4    S    
C14   C40   S    
C34   C35   S    
C5    C12   S    
C17   C18   A    
C7    C8    A    
C20   O21   S    
O5    C3    A    
C19   C20   S    
C21   C28   S    
V3    O20   S    
C31   C32   A    
V2    O10   S    
C29   C30   A    
C6    C7    A    
O12   C37   A    
O13   C40   A    
O14   V3    S    
O8    V2    S    
C16   C17   A    
C9    C10   A    
C29   C36   S    
O1    V2    S    
C3    C17   S    
O7    V1    S    
C28   H15   S    
C33   C37   S    
C41   H21   S    
O9    C4    A    
O13   V3    S    
C28   Br1   S    
C43   H27   S    
C5    C6    A    
C20   H10   S    
O17   V3    S    
C23   C24   A    
C5    C10   A    
C27   C28   S    
C36   H19   S    
C10   C11   S    
C19   H9    S    
O14   C38   A    
O17   V4    S    
O22   C42   S    
O4    C2    A    
O18   C39   A    
C1    C22   S    
C26   C27   S    
C31   H16   S    
C16   O23   S    
V4    O20   S    
C42   H25   S    
C13   C18   A    
C32   C33   A    
C27   H13   S    
C36   H18   S    
O2    C1    A    
C21   C22   A    
C18   C19   S    
O18   V4    S    
C24   H12   S    
O23   C43   S    
C42   H24   S    
C15   H7    S    
O15   C39   A    
C21   C26   A    
O21   C41   S    
C41   H20   S    
O3    C4    A    
O19   V4    S    
C12   H6    S    
O6    V2    S    
C8    C9    A    
C29   C34   A    
O2    V1    S    
C43   H28   S    
C22   C23   A    
C41   H22   S    
O1    C2    A    
C13   C14   A    
O19   C40   A    
O5    V1    S    
O8    C3    A    
O16   V4    S    
C32   Br2   S    
C11   H3    S    
C27   H14   S    
O11   V4    S    
C14   C15   A    
O9    V2    S    
C11   C12   S    
O4    V1    S    
O3    V1    S    
V1    O10   S    
C19   H8    S    
C30   C31   A    
C42   H23   S    
C15   C16   A    
C13   C20   S    
O7    V2    S    
C33   C34   A    
C35   C36   S    
C12   H5    S    
C25   C26   A    
C35   O22   S    
O15   V3    S    
C25   C38   S    
C9    C39   S    
C8    H2    S    
O11   C38   A    
C2    C30   S    
