data_mof_unit_4430.cif
_audit_creation_date              2012-12-11T18:11:24-0500
_audit_creation_method            fapswitch 2.2
_symmetry_space_group_name_H-M    P1
_symmetry_Int_Tables_number       1
_space_group_crystal_system       triclinic
_cell_length_a                    8.284384
_cell_length_b                    12.622918
_cell_length_c                    18.731887
_cell_angle_alpha                 99.521339
_cell_angle_beta                  90.869208
_cell_angle_gamma                 98.643035
_cell_volume                      1908.31762097

loop_
_atom_site_label
_atom_site_type_symbol
_atom_type_description
_atom_site_fract_x
_atom_site_fract_y
_atom_site_fract_z
_atom_type_partial_charge
Ba1   Ba    Ba6+2 0.852780 0.548340 0.465070 1.648305
Ba2   Ba    Ba6+2 0.337060 0.451750 0.534940 1.637870
Br1   Br    Br    0.969737 0.766865 0.136295 -0.589028
C1    C     C_3   0.619349 0.916024 0.267860 -0.372369
C2    C     C_R   0.904081 0.392514 0.096499 -0.081142
C3    C     C_R   0.770546 0.428436 0.958044 -0.096848
C4    C     C_3   0.157658 0.763570 0.266232 0.438448
C5    C     C_R   0.937815 0.457400 0.978777 0.036351
C6    C     C_R   0.714663 0.429399 0.887827 -0.118286
C7    C     C_R   0.823042 0.454125 0.834428 -0.034758
C8    C     C_R   0.986576 0.499316 0.856141 0.006836
C9    C     C_R   0.044497 0.501339 0.928784 0.034561
C10   C     C_R   0.771826 0.440145 0.760630 -0.009403
C11   C     C_R   0.879309 0.479056 0.710938 -0.274520
C12   C     C_3   0.652738 0.821740 0.303989 0.358937
C13   C     C_R   0.032042 0.538960 0.733027 0.035706
C14   C     C_R   0.088630 0.547999 0.806449 -0.046150
C15   C     C_R   0.161660 0.496539 0.071470 0.048189
C16   C     C_3   0.175569 0.796856 0.191638 0.079509
C17   C     C_R   0.219003 0.496045 0.143896 0.005841
C18   C     C_R   0.114647 0.447325 0.193124 -0.037058
C19   C     C_R   0.961876 0.389859 0.166290 -0.016870
C20   C     C_R   0.241383 0.606198 0.832644 -0.020595
C21   C     C_R   0.300986 0.604591 0.902407 -0.081141
C22   C     C_R   0.207114 0.548950 0.951143 0.017515
C23   C     C_3   0.460791 0.281202 0.313473 0.302111
C24   C     C_R   0.267211 0.544416 0.022345 0.024162
C25   C     C_R   0.431343 0.583438 0.045686 -0.101744
C26   C     C_R   0.381273 0.543355 0.166767 -0.051779
C27   C     C_R   0.486545 0.583072 0.116060 -0.089592
C28   C     C_3   0.238364 0.788614 0.621737 0.281143
C29   C     C_R   0.433493 0.549811 0.239731 -0.013385
C30   C     C_R   0.324292 0.510937 0.289142 -0.292280
C31   C     C_R   0.167205 0.456999 0.267142 0.045401
C32   C     C_R   0.769625 0.180216 0.518237 -0.291376
C33   C     C_R   0.426448 0.806523 0.471212 -0.283110
C34   C     C_3   0.440553 0.247100 0.231651 -0.388746
C35   C     C_R   0.403776 0.982772 0.442434 -0.104333
C36   C     C_R   0.337612 0.874879 0.441002 -0.001571
C37   C     C_R   0.577601 0.847080 0.507765 0.059047
C38   C     C_R   0.645002 0.958395 0.511088 -0.066102
C39   C     C_R   0.556051 0.026518 0.477682 -0.060252
C40   C     C_3   0.257485 0.911585 0.638838 -0.373696
C41   C     C_R   0.619751 0.137703 0.482288 0.047014
C42   C     C_R   0.861447 0.113608 0.547560 0.002924
C43   C     C_R   0.797921 0.004348 0.546425 -0.080706
C44   C     C_3   0.954634 0.207192 0.374791 0.271408
C45   C     C_3   0.013236 0.219746 0.726323 0.321883
C46   C     C_3   0.974703 0.088064 0.360894 -0.327130
C47   C     C_3   0.744561 0.710773 0.681420 0.306820
C48   C     C_3   0.754836 0.744720 0.763381 -0.362359
C49   C     C_3   0.574314 0.172367 0.756199 -0.258956
C50   C     C_3   0.572419 0.138784 0.674016 -0.392545
C51   C     C_3   0.974966 0.173806 0.795546 -0.401112
C52   C     C_3   0.421890 0.220000 0.782828 0.327404
C53   C     C_3   0.401464 0.213228 0.863452 -0.431706
C54   C     C_R   0.998805 0.449794 0.048961 0.031842
H1    H     H_    0.753026 0.850885 0.345768 0.082843
H2    H     H_    0.867781 0.701017 0.662504 0.017226
H3    H     H_    0.661149 0.632385 0.667209 0.082779
H4    H     H_    0.600352 0.986008 0.309533 0.081158
H5    H     H_    0.839340 0.822648 0.778662 0.118491
H6    H     H_    0.800907 0.681858 0.789488 0.069148
H7    H     H_    0.631855 0.755226 0.783512 0.126399
H8    H     H_    0.540225 0.793241 0.331058 -0.046449
H9    H     H_    0.508470 0.890788 0.231687 0.102300
H10   H     H_    0.344444 0.304307 0.334542 0.023445
H11   H     H_    0.559937 0.352133 0.325582 0.058843
H12   H     H_    0.344528 0.942397 0.685937 0.117888
H13   H     H_    0.339448 0.177689 0.217888 0.135708
H14   H     H_    0.411845 0.315588 0.206098 0.055031
H15   H     H_    0.555500 0.222387 0.209545 0.120121
H16   H     H_    0.723184 0.941109 0.234517 0.163675
H17   H     H_    0.262449 0.750362 0.160378 0.040734
H18   H     H_    0.102707 0.295560 0.739431 0.092199
H19   H     H_    0.899774 0.240587 0.704147 -0.049619
H20   H     H_    0.936635 0.236956 0.837582 0.078207
H21   H     H_    0.876518 0.102563 0.784056 0.124628
H22   H     H_    0.082547 0.145613 0.817228 0.120728
H23   H     H_    0.304199 0.946792 0.591446 0.085965
H24   H     H_    0.317546 0.163564 0.754520 0.114062
H25   H     H_    0.519218 0.237882 0.894991 0.108462
H26   H     H_    0.355323 0.128103 0.869832 0.092504
H27   H     H_    0.075149 0.684499 0.261423 0.086667
H28   H     H_    0.312688 0.265725 0.887090 0.134875
H29   H     H_    0.837267 0.471261 0.655045 0.064817
H30   H     H_    0.585035 0.412495 0.876359 0.115281
H31   H     H_    0.883302 0.342837 0.198883 0.095794
H32   H     H_    0.317545 0.654512 0.800022 0.112013
H33   H     H_    0.613650 0.614576 0.129823 0.158233
H34   H     H_    0.137276 0.936962 0.651964 0.150574
H35   H     H_    0.364982 0.518439 0.345163 0.070732
H36   H     H_    0.678835 0.408123 0.995929 0.071703
H37   H     H_    0.785126 0.346158 0.080340 0.054716
H38   H     H_    0.420208 0.651058 0.917247 0.068340
H39   H     H_    0.280707 0.752763 0.285211 -0.196526
H40   H     H_    0.522019 0.613632 0.010335 0.092951
H41   H     H_    0.332818 0.031737 0.416783 0.093504
H42   H     H_    0.868858 0.958033 0.574499 0.109084
H43   H     H_    0.817794 0.265582 0.521633 0.060284
H44   H     H_    0.373683 0.722270 0.469312 0.069137
H45   H     H_    0.823879 0.213577 0.379333 0.008300
H46   H     H_    0.224075 0.884889 0.197244 0.084095
H47   H     H_    0.357842 0.764198 0.607578 0.018362
H48   H     H_    0.148771 0.760285 0.575278 0.067667
H49   H     H_    0.629002 0.064158 0.661101 0.111127
H50   H     H_    0.447045 0.122132 0.649173 0.157912
H51   H     H_    0.643601 0.203481 0.649396 0.106287
H52   H     H_    0.684244 0.230270 0.776748 0.078176
H53   H     H_    0.579352 0.097758 0.780080 0.097778
H54   H     H_    0.024240 0.246107 0.425942 0.059667
H55   H     H_    0.929634 0.050093 0.305268 0.136876
H56   H     H_    0.905241 0.044272 0.399982 0.076891
H57   H     H_    0.105712 0.080706 0.366148 0.127469
O1    O     O_2   0.873090 0.425890 0.325140 -0.472746
O2    O     O_2   0.199878 0.119947 0.550283 -0.482002
O3    O     O_3   0.078755 0.142347 0.677261 -0.617973
O4    O     O_3   0.122420 0.434370 0.414380 -0.493803
O5    O     O_3   0.578370 0.633800 0.536380 -0.485471
O6    O     O_2   0.341510 0.231850 0.465510 -0.461830
O7    O     O_3   0.499915 0.193390 0.343580 -0.651334
O8    O     O_2   0.507866 0.512754 0.746594 -0.478874
O9    O     O_3   0.402683 0.326350 0.771016 -0.583495
O10   O     O_3   0.659500 0.627100 0.368810 -0.485062
O11   O     O_2   0.771804 0.545505 0.243155 -0.473645
O12   O     O_3   0.686538 0.791958 0.650455 -0.642341
O13   O     O_3   0.010903 0.252912 0.315278 -0.640457
O14   O     O_3   0.700823 0.740906 0.251257 -0.549524
O15   O     O_2   0.848200 0.768190 0.534530 -0.479441
O16   O     O_3   0.081160 0.685950 0.404810 -0.479444
O17   O     O_2   0.002338 0.880071 0.447984 -0.495754
O18   O     O_3   0.094562 0.844124 0.314094 -0.600059
O19   O     O_2   0.316610 0.574140 0.674900 -0.443350
O20   O     O_3   0.067290 0.565720 0.585630 -0.502087
O21   O     O_3   0.530210 0.372990 0.631200 -0.454625
O22   O     O_3   0.185246 0.747269 0.683456 -0.641051
O23   O     O_3   0.611340 0.366290 0.463630 -0.478590
O24   O     O_3   0.108550 0.314140 0.595200 -0.477044
P1    P     P_3+3 0.041040 0.394770 0.336330 0.973736
P2    P     P_3+3 0.672880 0.754030 0.556100 0.967129
P3    P     P_3+3 0.129563 0.823650 0.402994 0.957897
P4    P     P_3+3 0.148670 0.605320 0.663680 0.967961
P5    P     P_3+3 0.062704 0.172896 0.590187 0.956228
P6    P     P_3+3 0.641186 0.612944 0.275134 0.980244
P7    P     P_3+3 0.519516 0.230637 0.437868 0.935379
P8    P     P_3+3 0.557440 0.399581 0.726737 0.953588

loop_
_geom_bond_atom_site_label_1
_geom_bond_atom_site_label_2
_ccdc_geom_bond_type
C25   H40   S    
C46   H56   S    
C52   C53   S    
C38   C39   A    
C45   H19   S    
C35   H41   S    
C3    C6    A    
C2    H37   S    
Ba2   O4    S    
C44   C46   S    
C42   C43   A    
C45   C51   S    
C4    H39   S    
O12   P2    S    
O19   P4    D    
Ba2   O20   S    
O13   P1    S    
C47   H2    S    
O23   P7    S    
O3    P5    S    
C35   C39   A    
C26   C29   A    
Ba1   O15   S    
O24   P5    S    
C35   C36   A    
O11   P6    D    
C12   H8    S    
C31   P1    S    
Ba1   Ba2   S    
Ba1   O5    S    
O16   P3    S    
O22   P4    S    
C10   C11   A    
C16   H46   S    
C50   H49   S    
C2    C19   A    
C36   P3    S    
C13   C14   A    
C38   C43   A    
C20   H32   S    
Br1   C16   S    
C47   O12   S    
C23   O7    S    
C19   H31   S    
C52   H24   S    
C6    C7    A    
C15   C17   A    
O17   P3    D    
C49   C52   S    
C27   H33   S    
C51   H20   S    
C3    H36   S    
C46   H57   S    
O6    P7    D    
C40   H12   S    
C44   H45   S    
C34   H13   S    
C28   H48   S    
C45   H18   S    
C48   H5    S    
C39   C41   A    
C10   P8    S    
C47   C48   S    
C17   C26   A    
C16   H17   S    
C52   O9    S    
Ba2   O19   S    
C48   H7    S    
Ba2   O24   S    
C33   C37   A    
C48   H6    S    
C21   C22   A    
C11   H29   S    
C41   P7    S    
Ba1   O16   S    
C30   H35   S    
Ba2   O6    S    
O5    P2    S    
C3    C5    A    
C18   C31   A    
C40   H23   S    
C1    H4    S    
C40   H34   S    
C33   H44   S    
C13   P4    S    
C26   C27   A    
C5    C54   A    
O20   P4    S    
O2    P5    D    
C50   H50   S    
C15   C54   A    
O9    P8    S    
C49   H53   S    
C5    C9    A    
O21   P8    S    
C30   C31   A    
C4    O18   S    
C14   C20   A    
C53   H25   S    
C32   C41   A    
O14   P6    S    
C1    H16   S    
Ba1   P2    S    
C28   C40   S    
C46   H55   S    
C37   C38   A    
O1    P1    D    
C4    C16   S    
C12   O14   S    
C34   H14   S    
Ba2   P4    S    
C12   H1    S    
C11   C13   A    
C21   H38   S    
C23   H10   S    
O4    P1    S    
C32   C42   A    
Ba1   O23   S    
C49   C50   S    
C53   H26   S    
C51   H22   S    
O18   P3    S    
C8    C14   A    
Ba2   O23   S    
C33   C36   A    
C15   C24   A    
C28   O22   S    
C7    C10   A    
Ba1   P1    S    
Ba2   O5    S    
C23   C34   S    
C44   O13   S    
C45   O3    S    
C22   C24   A    
Ba2   O21   S    
C2    C54   A    
C9    C22   A    
C23   H11   S    
C29   C30   A    
C43   H42   S    
C25   C27   A    
Ba1   O10   S    
C47   H3    S    
C28   H47   S    
C1    H9    S    
C50   H51   S    
C53   H28   S    
O15   P2    D    
C49   H52   S    
C1    C12   S    
C44   H54   S    
C32   H43   S    
C37   P2    S    
C4    H27   S    
O7    P7    S    
Ba1   O4    S    
O8    P8    D    
C29   P6    S    
C7    C8    A    
C20   C21   A    
C17   C18   A    
C34   H15   S    
C24   C25   A    
C42   P5    S    
O10   P6    S    
Ba1   O1    S    
C18   C19   A    
C6    H30   S    
Ba1   O20   S    
C8    C9    A    
C51   H21   S    
