data_mof_unit_1446.cif
_audit_creation_date              2012-12-10T19:12:58-0500
_audit_creation_method            fapswitch 2.2
_symmetry_space_group_name_H-M    P1
_symmetry_Int_Tables_number       1
_space_group_crystal_system       triclinic
_cell_length_a                    8.787048
_cell_length_b                    15.985284
_cell_length_c                    14.764229
_cell_angle_alpha                 90.192786
_cell_angle_beta                  97.998753
_cell_angle_gamma                 89.718506
_cell_volume                      2053.62620989

loop_
_atom_site_label
_atom_site_type_symbol
_atom_type_description
_atom_site_fract_x
_atom_site_fract_y
_atom_site_fract_z
_atom_type_partial_charge
C1    C     C_R   0.500721 0.340880 0.499861 0.803796
C2    C     C_R   0.499279 0.659120 0.500139 0.803802
C3    C     C_R   0.498253 0.500579 0.902681 -0.318949
C4    C     C_R   0.501747 0.499420 0.097318 -0.318949
C5    C     C_R   0.397393 0.448060 0.943420 0.321501
C6    C     C_R   0.602608 0.551938 0.056580 0.321501
C7    C     C_1   0.499486 0.500323 0.802573 0.260161
C8    C     C_1   0.500514 0.499677 0.197426 0.260160
C9    C     C_R   0.203734 0.498704 0.477055 0.799044
C10   C     C_R   0.796266 0.501296 0.522945 0.799045
C11   C     C_2   0.039346 0.491046 0.464803 0.137213
C12   C     C_2   0.960654 0.508953 0.535197 0.137212
C13   C     C_R   0.365467 0.956929 0.511096 -0.344092
C14   C     C_R   0.634528 0.043072 0.488898 -0.344046
C15   C     C_R   0.499825 0.912701 0.500838 -0.012615
C16   C     C_R   0.500172 0.087300 0.499158 -0.012601
C17   C     C_R   0.634719 0.955526 0.488741 0.462393
C18   C     C_R   0.365276 0.044476 0.511250 0.462396
C19   C     C_1   0.498225 0.823188 0.501009 0.025950
C20   C     C_1   0.501773 0.176812 0.498989 0.026001
C21   C     C_1   0.501633 0.251833 0.499392 -0.168243
C22   C     C_1   0.498366 0.748167 0.500607 -0.168250
C23   C     C_R   0.599931 0.552740 0.960114 0.397623
C24   C     C_R   0.400070 0.447259 0.039886 0.397624
Cu1   Cu    Cu3+1 0.500040 0.500000 0.589220 0.983924
Cu2   Cu    Cu3+1 0.499960 0.500000 0.410780 0.983924
H1    H     H_    0.261083 0.923689 0.519196 0.171285
H2    H     H_    0.738911 0.076311 0.480791 0.171290
N1    N     N_1   0.500050 0.499980 0.276720 -0.166887
N2    N     N_1   0.499950 0.500020 0.723280 -0.166889
O1    O     O_R   0.500070 0.380310 0.575330 -0.570661
O2    O     O_R   0.499930 0.619690 0.424670 -0.570664
O3    O     O_R   0.500000 0.380310 0.424640 -0.576116
O4    O     O_R   0.500000 0.619690 0.575360 -0.576115
O5    O     O_R   0.274870 0.500000 0.557960 -0.547318
O6    O     O_R   0.725130 0.500000 0.442040 -0.547316
O7    O     O_R   0.274790 0.500000 0.407270 -0.572751
O8    O     O_R   0.725210 0.500000 0.592730 -0.572751
O9    O     O_3   0.965932 0.467180 0.379308 -0.586793
C25   C     C_3   0.977134 0.379363 0.370981 0.080121
H3    H     H_    0.943527 0.346613 0.431803 0.121035
H4    H     H_    0.096437 0.360840 0.362083 0.158689
C26   C     C_3   0.868872 0.350647 0.287385 -0.757680
H5    H     H_    0.898833 0.381466 0.225062 0.216831
H6    H     H_    0.878316 0.281810 0.279315 0.207475
H7    H     H_    0.748454 0.366856 0.295470 0.260870
O10   O     O_3   0.034068 0.532817 0.620693 -0.586793
C27   C     C_3   0.022866 0.620634 0.629022 0.080124
H8    H     H_    0.903563 0.639157 0.637920 0.158684
H9    H     H_    0.056473 0.653386 0.568200 0.121027
C28   C     C_3   0.131129 0.649349 0.712619 -0.757677
H10   H     H_    0.251548 0.633139 0.704534 0.260870
H11   H     H_    0.121685 0.718185 0.720691 0.207470
H12   H     H_    0.101168 0.618528 0.774940 0.216828
O11   O     O_3   0.230948 0.088167 0.517519 -0.574762
C29   C     C_3   0.213112 0.096009 0.610710 0.078586
H13   H     H_    0.317529 0.123431 0.651482 0.144991
H14   H     H_    0.189037 0.033954 0.639564 0.153554
C30   C     C_3   0.078216 0.154098 0.619416 -0.766308
H15   H     H_    0.971226 0.128027 0.581095 0.247795
H16   H     H_    0.063142 0.160913 0.692519 0.205331
H17   H     H_    0.099670 0.216769 0.591561 0.238415
O12   O     O_3   0.769045 0.911839 0.482455 -0.574762
C31   C     C_3   0.786779 0.903945 0.389253 0.078573
H18   H     H_    0.810696 0.965992 0.360323 0.153520
H19   H     H_    0.682372 0.876442 0.348552 0.145015
C32   C     C_3   0.921762 0.845920 0.380541 -0.766300
H20   H     H_    0.900489 0.783265 0.408497 0.238420
H21   H     H_    0.936722 0.839042 0.307428 0.205328
H22   H     H_    0.028749 0.872086 0.418768 0.247805
O13   O     O_3   0.697984 0.607874 0.108973 -0.535177
C33   C     C_3   0.823110 0.564594 0.159110 0.099962
H23   H     H_    0.863708 0.510528 0.120794 0.091563
H24   H     H_    0.790742 0.541512 0.224543 0.197985
C34   C     C_3   0.956817 0.624565 0.182246 -0.749793
H25   H     H_    0.920713 0.678917 0.221361 0.250421
H26   H     H_    0.053575 0.592098 0.224628 0.215316
H27   H     H_    0.996415 0.647193 0.118466 0.239597
O14   O     O_3   0.302021 0.392122 0.891027 -0.535174
C35   C     C_3   0.176894 0.435400 0.840888 0.099963
H28   H     H_    0.209261 0.458479 0.775453 0.197984
H29   H     H_    0.136294 0.489467 0.879201 0.091563
C36   C     C_3   0.043188 0.375427 0.817755 -0.749791
H30   H     H_    0.003593 0.352801 0.881536 0.239601
H31   H     H_    0.946428 0.407893 0.775373 0.215313
H32   H     H_    0.079292 0.321075 0.778641 0.250424
O15   O     O_3   0.689115 0.610325 0.921856 -0.523680
C37   C     C_3   0.828331 0.571714 0.907351 -0.274497
H33   H     H_    0.808960 0.516643 0.861070 0.148407
H34   H     H_    0.897517 0.553221 0.972916 0.141550
H35   H     H_    0.896851 0.617534 0.874136 0.184886
O16   O     O_3   0.310885 0.389674 0.078144 -0.523679
C38   C     C_3   0.171669 0.428285 0.092648 -0.274504
H36   H     H_    0.102486 0.446780 0.027083 0.141549
H37   H     H_    0.191042 0.483355 0.138930 0.148409
H38   H     H_    0.103148 0.382465 0.125861 0.184889

loop_
_geom_bond_atom_site_label_1
_geom_bond_atom_site_label_2
_ccdc_geom_bond_type
Cu1   O1    S    
O15   C37   S    
C1    C21   S    
C38   H36   S    
C3    C23   A    
C4    C8    S    
C1    O3    A    
C15   C19   S    
C13   C18   A    
C8    N1    T    
C3    C7    S    
C35   C36   S    
C4    C24   A    
C1    O1    A    
C29   H13   S    
C2    O2    A    
C25   C26   S    
C36   H30   S    
C2    C22   S    
C5    O14   S    
Cu1   O4    S    
C2    O4    A    
C25   H4    S    
C30   H15   S    
C38   H37   S    
C7    N2    T    
C23   O15   S    
C14   C17   A    
C12   O10   S    
C24   O16   S    
C34   H27   S    
C27   C28   S    
C6    O13   S    
C30   H16   S    
C32   H20   S    
C31   C32   S    
C19   C22   T    
O14   C35   S    
C33   H24   S    
O9    C25   S    
Cu2   O2    S    
C33   H23   S    
Cu1   Cu2   S    
C28   H10   S    
C28   H11   S    
C31   H19   S    
C34   H25   S    
Cu1   O8    S    
C34   H26   S    
Cu2   O3    S    
O10   C27   S    
C37   H35   S    
C16   C20   S    
O11   C29   S    
C9    O7    A    
C37   H33   S    
C11   O9    S    
C9    C11   S    
C10   C12   S    
C18   O11   S    
Cu1   O5    S    
C4    C6    A    
C27   H8    S    
C36   H31   S    
C37   H34   S    
C38   H38   S    
C13   C15   A    
C26   H5    S    
C14   C16   A    
Cu2   O6    S    
Cu1   N2    S    
C15   C17   A    
C25   H3    S    
C30   H17   S    
C35   H28   S    
C3    C5    A    
C11   C12   D    
Cu2   O7    S    
C29   C30   S    
C10   O8    A    
C28   H12   S    
C14   H2    S    
C31   H18   S    
C32   H22   S    
O13   C33   S    
C26   H6    S    
C17   O12   S    
C33   C34   S    
C5    C24   A    
C6    C23   A    
C27   H9    S    
O16   C38   S    
C35   H29   S    
C29   H14   S    
C26   H7    S    
O12   C31   S    
C36   H32   S    
C20   C21   T    
Cu2   N1    S    
C16   C18   A    
C9    O5    A    
C13   H1    S    
C10   O6    A    
C32   H21   S    
