data_mof_unit_2219.cif
_audit_creation_date              2012-12-10T17:24:12-0500
_audit_creation_method            fapswitch 2.2
_symmetry_space_group_name_H-M    P1
_symmetry_Int_Tables_number       1
_space_group_crystal_system       triclinic
_cell_length_a                    19.36011
_cell_length_b                    10.858218
_cell_length_c                    9.598491
_cell_angle_alpha                 89.191984
_cell_angle_beta                  89.251673
_cell_angle_gamma                 93.322432
_cell_volume                      2013.97280788

loop_
_atom_site_label
_atom_site_type_symbol
_atom_type_description
_atom_site_fract_x
_atom_site_fract_y
_atom_site_fract_z
_atom_type_partial_charge
C1    C     C_R   0.503517 0.262439 0.502086 0.841324
C2    C     C_R   0.291324 0.507328 0.502243 -0.131337
C3    C     C_R   0.930438 0.522497 0.480574 0.391044
C4    C     C_R   0.070257 0.518372 0.488655 0.440144
C5    C     C_R   0.818973 0.514743 0.608841 -0.191378
C6    C     C_R   0.747008 0.508261 0.615976 -0.214443
C7    C     C_R   0.708571 0.508415 0.493696 -0.047221
C8    C     C_R   0.743159 0.517627 0.364279 -0.215893
C9    C     C_R   0.815555 0.525327 0.354659 0.109893
C10   C     C_R   0.854208 0.521530 0.479539 0.046814
C11   C     C_R   0.505719 0.108290 0.770262 -0.149486
C12   C     C_R   0.367480 0.502281 0.501058 0.870499
C13   C     C_R   0.483137 0.042305 0.889535 -0.139226
C14   C     C_R   0.449780 0.925708 0.877938 0.140669
C15   C     C_R   0.445302 0.871847 0.746626 -0.166324
C16   C     C_R   0.475704 0.932438 0.627252 0.046419
C17   C     C_R   0.495931 0.058659 0.635559 0.102433
C18   C     C_R   0.506668 0.127753 0.508693 -0.115615
C19   C     C_R   0.513360 0.065583 0.382854 -0.177122
C20   C     C_R   0.508663 0.938220 0.380955 -0.219565
C21   C     C_R   0.489566 0.870415 0.501614 -0.095054
C22   C     C_R   0.592874 0.663448 0.139684 -0.154587
C23   C     C_R   0.495079 0.736789 0.499879 0.753569
C24   C     C_R   0.639594 0.741984 0.065837 -0.257297
C25   C     C_R   0.640393 0.742617 0.921463 0.099466
C26   C     C_R   0.593525 0.663577 0.851769 -0.127789
C27   C     C_R   0.545908 0.580384 0.923126 0.070093
C28   C     C_R   0.545722 0.580425 0.072514 0.104538
C29   C     C_R   0.456278 0.422782 0.076101 0.377272
C30   C     C_R   0.455840 0.423729 0.928243 0.418673
C31   C     C_R   0.632484 0.502039 0.498798 0.751440
C32   C     C_R   0.253447 0.542966 0.620998 0.398420
C33   C     C_R   0.181601 0.546946 0.615020 -0.176510
C34   C     C_R   0.146133 0.515480 0.493049 -0.019056
C35   C     C_R   0.183615 0.480770 0.375547 -0.148204
C36   C     C_R   0.255288 0.477436 0.379915 -0.208393
Cu1   Cu    Cu3+1 0.500000 0.499990 0.640660 0.991787
Cu2   Cu    Cu3+1 0.500000 0.500010 0.359340 0.975553
H1    H     H_    0.534381 0.194590 0.787694 0.168891
H2    H     H_    0.491135 0.083164 0.990816 0.151062
H3    H     H_    0.418343 0.782190 0.739681 0.198246
H4    H     H_    0.520775 0.892724 0.284880 0.154813
H5    H     H_    0.596183 0.671507 0.249458 0.204741
H6    H     H_    0.675137 0.803100 0.122279 0.143532
H7    H     H_    0.596867 0.671081 0.741692 0.198559
H8    H     H_    0.153439 0.574188 0.706759 0.184568
H9    H     H_    0.157651 0.456876 0.279546 0.177590
H10   H     H_    0.282423 0.450625 0.286870 0.223070
H11   H     H_    0.847287 0.512246 0.705379 0.155260
H12   H     H_    0.721559 0.502481 0.717232 0.155888
H13   H     H_    0.713490 0.520600 0.269488 0.154603
H14   H     H_    0.524134 0.115379 0.285648 0.170460
N1    N     N_R   0.034353 0.462018 0.384709 -0.233586
N2    N     N_R   0.965791 0.463507 0.381330 -0.242529
N3    N     N_R   0.966285 0.577973 0.585328 -0.241399
N4    N     N_R   0.034874 0.576048 0.589224 -0.236460
N5    N     N_R   0.500660 0.501210 0.147910 -0.250939
N6    N     N_R   0.500680 0.501290 0.852040 -0.253802
O1    O     O_R   0.499990 0.319640 0.618810 -0.561025
O2    O     O_R   0.500000 0.319660 0.381240 -0.532730
O3    O     O_R   0.400140 0.499970 0.618820 -0.481487
O4    O     O_R   0.400150 0.500000 0.381250 -0.550113
O5    O     O_R   0.500000 0.680340 0.618760 -0.612659
O6    O     O_R   0.500010 0.680360 0.381190 -0.602633
O7    O     O_R   0.599850 0.500000 0.618750 -0.608764
O8    O     O_R   0.599860 0.500030 0.381180 -0.604651
Cl1   Cl    Cl    0.292214 0.587417 0.779073 -0.633923
C37   C     C_3   0.424215 0.854223 0.005978 -0.417448
C38   C     C_3   0.345272 0.851072 0.019616 -0.296880
C39   C     C_3   0.319736 0.768408 0.142002 -0.746373
H15   H     H_    0.334407 0.672141 0.125820 0.274008
H16   H     H_    0.342392 0.802798 0.240904 0.246974
H17   H     H_    0.262492 0.768366 0.150711 0.247920
H18   H     H_    0.328660 0.946130 0.036350 0.246332
H19   H     H_    0.321196 0.815820 0.922585 0.261825
H20   H     H_    0.441915 0.758814 0.000870 0.210122
H21   H     H_    0.446682 0.896917 0.100666 0.195380
Cl2   Cl    Cl    0.398766 0.317041 0.166270 -0.564198
C40   C     C_3   0.691679 0.826838 0.840508 -0.424591
C41   C     C_3   0.655179 0.931085 0.768014 -0.340754
C42   C     C_3   0.706190 0.016682 0.685070 -0.835497
H22   H     H_    0.745557 0.059832 0.755151 0.256306
H23   H     H_    0.732468 0.964453 0.603166 0.255695
H24   H     H_    0.677899 0.090808 0.634111 0.239563
H25   H     H_    0.615780 0.891815 0.695523 0.221600
H26   H     H_    0.628857 0.985763 0.847658 0.226777
H27   H     H_    0.731680 0.867726 0.911066 0.203292
H28   H     H_    0.718789 0.771932 0.762003 0.197912
Cl3   Cl    Cl    0.395694 0.323636 0.843321 -0.493900
C43   C     C_3   0.848177 0.541977 0.210265 -0.415507
C44   C     C_3   0.882221 0.672130 0.188875 -0.342769
C45   C     C_3   0.911382 0.690161 0.040991 -0.799457
H29   H     H_    0.951114 0.622667 0.020161 0.268616
H30   H     H_    0.869354 0.678139 0.963747 0.243871
H31   H     H_    0.935843 0.784790 0.028612 0.246864
H32   H     H_    0.843178 0.741514 0.207409 0.214909
H33   H     H_    0.924933 0.688763 0.263565 0.234808
H34   H     H_    0.885412 0.470381 0.190216 0.225303
H35   H     H_    0.808071 0.527809 0.129124 0.189162

loop_
_geom_bond_atom_site_label_1
_geom_bond_atom_site_label_2
_ccdc_geom_bond_type
C31   O8    A    
N3    N4    A    
C16   C21   A    
C4    N1    A    
C19   C20   A    
C2    C12   S    
C40   H27   S    
C42   H22   S    
C7    C8    A    
C28   N5    A    
C26   C27   A    
C41   H25   S    
Cu1   Cu2   S    
C18   C19   A    
C1    O1    A    
C5    C6    A    
C3    N2    A    
C15   C16   A    
C2    C32   A    
C34   C35   A    
C13   H2    S    
C41   H26   S    
C26   H7    S    
Cu1   O5    S    
C44   H32   S    
C37   C38   S    
C3    N3    A    
C19   H14   S    
C29   Cl2   S    
Cu2   O8    S    
C8    C9    A    
Cu1   O7    S    
C36   H10   S    
C39   H15   S    
C9    C10   A    
Cu1   N6    S    
C23   O5    A    
C35   H9    S    
C22   C28   A    
C13   C14   A    
C4    N4    A    
C33   H8    S    
C5    H11   S    
C30   Cl3   S    
C40   H28   S    
C42   H23   S    
C33   C34   A    
Cu2   O6    S    
C4    C34   S    
C7    C31   S    
C24   C25   A    
C15   H3    S    
C1    O2    A    
C44   C45   S    
C16   C17   A    
C25   C26   A    
N1    N2    A    
C45   H31   S    
C44   H33   S    
C35   C36   A    
C29   C30   A    
Cu2   N5    S    
C12   O4    A    
Cu1   O3    S    
C22   H5    S    
C39   H17   S    
C45   H30   S    
C17   C18   A    
C1    C18   S    
C38   H18   S    
C6    H12   S    
C11   H1    S    
C8    H13   S    
Cu1   O1    S    
C32   Cl1   S    
Cu2   O2    S    
C23   O6    A    
C29   N5    A    
C21   C23   S    
C24   H6    S    
C22   C24   A    
C43   H35   S    
C42   H24   S    
C2    C36   A    
C37   H21   S    
C31   O7    A    
C11   C17   A    
C25   C40   S    
C41   C42   S    
C27   N6    A    
C9    C43   S    
C20   H4    S    
C6    C7    A    
C37   H20   S    
C32   C33   A    
C5    C10   A    
C3    C10   S    
C12   O3    A    
C11   C13   A    
C43   C44   S    
C30   N6    A    
C45   H29   S    
C38   H19   S    
C38   C39   S    
C40   C41   S    
C20   C21   A    
C27   C28   A    
C14   C37   S    
C14   C15   A    
C39   H16   S    
C43   H34   S    
Cu2   O4    S    
