data_mof_unit_483.cif
_audit_creation_date              2012-12-10T17:44:31-0500
_audit_creation_method            fapswitch 2.2
_symmetry_space_group_name_H-M    P1
_symmetry_Int_Tables_number       1
_space_group_crystal_system       triclinic
_cell_length_a                    9.958892
_cell_length_b                    10.691658
_cell_length_c                    15.292276
_cell_angle_alpha                 92.828729
_cell_angle_beta                  68.492844
_cell_angle_gamma                 88.169091
_cell_volume                      1510.86114378

loop_
_atom_site_label
_atom_site_type_symbol
_atom_type_description
_atom_site_fract_x
_atom_site_fract_y
_atom_site_fract_z
_atom_type_partial_charge
C1    C     C_R   0.498120 0.740159 0.496944 0.936570
C2    C     C_R   0.438924 0.397952 0.898538 0.038058
C3    C     C_R   0.299191 0.356820 0.947903 0.071783
C4    C     C_R   0.547327 0.389901 0.937191 -0.010936
C5    C     C_R   0.503153 0.380476 0.035201 -0.024588
C6    C     C_R   0.363523 0.338488 0.084538 -0.324037
C7    C     C_R   0.265254 0.318394 0.039574 0.459976
C8    C     C_R   0.696940 0.395674 0.882787 0.245093
C9    C     C_R   0.792827 0.423849 0.927085 -0.277989
C10   C     C_R   0.744098 0.441082 0.024874 0.100543
C11   C     C_R   0.599394 0.416531 0.079902 0.116022
C12   C     C_R   0.410233 0.495317 0.675917 0.865768
C13   C     C_R   0.838423 0.481618 0.068494 -0.161818
C14   C     C_R   0.790081 0.499667 0.166219 -0.130553
C15   C     C_R   0.552587 0.438345 0.177585 -0.242770
C16   C     C_R   0.221348 0.902793 0.580494 -0.188250
C17   C     C_R   0.105525 0.973999 0.646786 -0.162909
C18   C     C_R   0.126727 0.092965 0.678218 -0.127300
C19   C     C_R   0.260224 0.144333 0.636978 -0.164758
C20   C     C_R   0.375725 0.074543 0.566115 0.065720
C21   C     C_R   0.362457 0.947844 0.546184 0.058931
C22   C     C_R   0.490891 0.874089 0.491722 -0.204682
C23   C     C_R   0.500538 0.261183 0.503517 0.879184
C24   C     C_R   0.619331 0.931277 0.441435 0.242934
C25   C     C_R   0.622645 0.059354 0.449945 -0.238596
C26   C     C_R   0.501954 0.129768 0.511070 -0.152428
C27   C     C_R   0.781828 0.645193 0.649702 0.545417
C28   C     C_R   0.812364 0.673039 0.731661 -0.271956
C29   C     C_R   0.952595 0.670861 0.726943 -0.258734
C30   C     C_R   0.061365 0.629977 0.643710 -0.147301
C31   C     C_R   0.032113 0.566530 0.570865 0.011776
C32   C     C_R   0.886946 0.569265 0.572145 0.112619
C33   C     C_R   0.967956 0.433558 0.433041 -0.237119
C34   C     C_R   0.590335 0.497157 0.323652 0.885579
C35   C     C_R   0.111610 0.428767 0.434585 0.573105
C36   C     C_R   0.360921 0.461749 0.773843 -0.058978
C37   C     C_R   0.646175 0.479673 0.220890 -0.088851
C38   C     C_R   0.195670 0.359023 0.905214 -0.194348
C39   C     C_R   0.227166 0.410098 0.817955 -0.258289
C40   C     C_R   0.462196 0.460003 0.816856 -0.158150
H1    H     H_    0.948570 0.501911 0.027092 0.154404
H2    H     H_    0.194379 0.818604 0.551550 0.178171
H3    H     H_    0.998923 0.937296 0.672863 0.153157
H4    H     H_    0.038243 0.147606 0.731157 0.181455
H5    H     H_    0.272181 0.239188 0.659624 0.155169
H6    H     H_    0.718209 0.104492 0.406562 0.180023
H7    H     H_    0.943606 0.383259 0.378259 0.151450
H8    H     H_    0.730230 0.713043 0.795992 0.147075
H9    H     H_    0.441498 0.427688 0.221207 0.200929
H10   H     H_    0.977832 0.709915 0.785465 0.170593
H11   H     H_    0.167411 0.652061 0.637533 0.205601
H12   H     H_    0.864092 0.531276 0.198760 0.184364
H13   H     H_    0.905463 0.432994 0.884764 0.169071
H14   H     H_    0.091051 0.320912 0.938746 0.175636
H15   H     H_    0.148948 0.406915 0.784138 0.173831
H16   H     H_    0.560260 0.508649 0.786232 0.189668
H17   H     H_    0.328622 0.318228 0.157530 0.161436
N1    N     N_R   0.856800 0.501200 0.500850 -0.108906
N2    N     N_R   0.142390 0.501280 0.500880 -0.140811
O1    O     O_R   0.385310 0.683220 0.500000 -0.666565
O2    O     O_R   0.614640 0.683250 0.500010 -0.512013
O3    O     O_R   0.319840 0.499980 0.632240 -0.657252
O4    O     O_R   0.549160 0.500000 0.632250 -0.541983
O5    O     O_R   0.385360 0.316750 0.499990 -0.591230
O6    O     O_R   0.614690 0.316780 0.500000 -0.612912
O7    O     O_R   0.450840 0.500000 0.367750 -0.569830
O8    O     O_R   0.680160 0.500020 0.367760 -0.606421
Zn1   Zn    Zn3+2 0.346880 0.499980 0.499990 0.968891
Zn2   Zn    Zn3+2 0.653120 0.500020 0.500010 1.023880
O9    O     O_3   0.127224 0.282710 0.090597 -0.658857
C41   C     C_3   0.131221 0.154753 0.109810 0.062750
H18   H     H_    0.037705 0.141892 0.175666 0.174621
H19   H     H_    0.229748 0.123924 0.123108 0.122890
C42   C     C_3   0.115654 0.071284 0.030034 -0.367748
H20   H     H_    0.015981 0.102098 0.018626 0.234392
H21   H     H_    0.209946 0.080434 0.963795 0.217438
C43   C     C_3   0.106734 0.933864 0.053298 -0.905091
H22   H     H_    0.207880 0.899666 0.061280 0.263601
H23   H     H_    0.091825 0.876253 0.995475 0.256175
H24   H     H_    0.013448 0.922203 0.119534 0.289002
Br1   Br    Br    0.788836 0.841326 0.352233 -0.578358
O10   O     O_3   0.655214 0.696292 0.644985 -0.594244
C44   C     C_3   0.618697 0.822082 0.684535 0.096729
H25   H     H_    0.591450 0.878903 0.634163 0.177252
H26   H     H_    0.710041 0.870911 0.694134 0.089937
C45   C     C_3   0.487933 0.826808 0.778048 -0.396825
H27   H     H_    0.493445 0.744485 0.818285 0.219791
H28   H     H_    0.489598 0.912628 0.821672 0.196045
C46   C     C_3   0.344733 0.829114 0.763009 -0.843832
H29   H     H_    0.325076 0.921335 0.738524 0.265642
H30   H     H_    0.255038 0.815423 0.830453 0.243459
H31   H     H_    0.345494 0.753620 0.710435 0.258912
O11   O     O_3   0.225367 0.355412 0.368968 -0.626614
C47   C     C_3   0.186021 0.236335 0.344047 0.005029
H32   H     H_    0.286174 0.187201 0.293088 0.171443
H33   H     H_    0.111998 0.244226 0.305102 0.128861
C48   C     C_3   0.126745 0.154158 0.428304 -0.361442
H34   H     H_    0.206383 0.146015 0.463018 0.262547
H35   H     H_    0.023798 0.196867 0.480682 0.228969
C49   C     C_3   0.098820 0.023278 0.396568 -0.876958
H36   H     H_    0.022245 0.029623 0.359148 0.278405
H37   H     H_    0.050747 0.967530 0.458903 0.277535
H38   H     H_    0.201673 0.974341 0.348938 0.262377
Br2   Br    Br    0.782237 0.339542 0.751378 -0.614451

loop_
_geom_bond_atom_site_label_1
_geom_bond_atom_site_label_2
_ccdc_geom_bond_type
O7    Zn1   S    
C30   H11   S    
C16   C21   A    
C34   C37   S    
C19   C20   A    
C33   N1    A    
C32   N1    A    
C4    C8    A    
C34   O7    A    
C7    O9    S    
C13   H1    S    
C48   H34   S    
C43   H22   S    
O11   C47   S    
C42   H21   S    
C44   H25   S    
O5    Zn1   S    
C28   C29   A    
C5    C11   A    
C3    C7    A    
C30   C31   A    
C45   H28   S    
C35   N2    A    
C18   C19   A    
C23   C26   S    
C31   N2    A    
C15   C37   A    
C11   C15   A    
C14   H12   S    
O4    Zn2   S    
C3    C38   A    
C8    C9    A    
C40   H16   S    
C42   C43   S    
O9    C41   S    
C12   C36   S    
C9    C10   A    
C35   O11   S    
C1    C22   S    
C21   C22   A    
C6    H17   S    
C48   H35   S    
C29   H10   S    
C43   H23   S    
C38   C39   A    
C39   H15   S    
C42   H20   S    
C36   C40   A    
C24   C25   A    
C1    O1    A    
C41   H19   S    
C12   O4    A    
C45   H27   S    
C16   C17   A    
C47   C48   S    
C25   C26   A    
C36   C39   A    
C49   H38   S    
C45   C46   S    
O8    Zn2   S    
C2    C4    A    
C24   Br1   S    
C17   H3    S    
C29   C30   A    
C18   H4    S    
N2    Zn1   S    
C12   O3    A    
C31   C32   A    
C38   H14   S    
C49   H37   S    
C17   C18   A    
C46   H31   S    
C47   H33   S    
C8    Br2   S    
C23   O5    A    
C44   H26   S    
C33   H7    S    
C22   C24   A    
C46   H30   S    
C16   H2    S    
C48   C49   S    
C43   H24   S    
O2    Zn2   S    
C28   H8    S    
C27   C32   A    
C27   O10   S    
C4    C5    A    
C10   C13   A    
C1    O2    A    
C34   O8    A    
C41   C42   S    
C19   H5    S    
N1    Zn2   S    
C6    C7    A    
O3    Zn1   S    
C23   O6    A    
C2    C3    A    
C41   H18   S    
C14   C37   A    
C5    C6    A    
C20   C26   A    
O6    Zn2   S    
C49   H36   S    
C33   C35   A    
C15   H9    S    
C47   H32   S    
C10   C11   A    
C2    C40   A    
C44   C45   S    
C9    H13   S    
C20   C21   A    
O1    Zn1   S    
O10   C44   S    
C27   C28   A    
C46   H29   S    
C13   C14   A    
C25   H6    S    
