data_mof_unit_3697.cif
_audit_creation_date              2012-12-10T18:24:50-0500
_audit_creation_method            fapswitch 2.2
_symmetry_space_group_name_H-M    P1
_symmetry_Int_Tables_number       1
_space_group_crystal_system       triclinic
_cell_length_a                    13.985969
_cell_length_b                    14.976262
_cell_length_c                    16.68608
_cell_angle_alpha                 90.108925
_cell_angle_beta                  86.031103
_cell_angle_gamma                 89.432753
_cell_volume                      3486.46074015

loop_
_atom_site_label
_atom_site_type_symbol
_atom_type_description
_atom_site_fract_x
_atom_site_fract_y
_atom_site_fract_z
_atom_type_partial_charge
C1    C     C_R   0.499426 0.673288 0.500968 0.935814
C2    C     C_R   0.424622 0.908646 0.544141 -0.004580
C3    C     C_R   0.495626 0.046227 0.492386 0.027858
C4    C     C_R   0.494450 0.953112 0.493883 0.021193
C5    C     C_R   0.424084 0.094622 0.538087 0.137273
C6    C     C_R   0.564282 0.904599 0.446281 0.131038
C7    C     C_R   0.634444 0.041404 0.395537 -0.206576
C8    C     C_R   0.350840 0.957846 0.585593 -0.206135
C9    C     C_R   0.632231 0.948805 0.395904 -0.205334
C10   C     C_R   0.350811 0.050410 0.582712 -0.216074
C11   C     C_R   0.197871 0.453149 0.557517 -0.040622
C12   C     C_R   0.500710 0.326566 0.498612 0.950540
C13   C     C_R   0.802138 0.545368 0.441503 -0.054643
C14   C     C_R   0.206231 0.545671 0.441851 -0.003520
C15   C     C_R   0.793728 0.454848 0.558432 -0.032069
C16   C     C_R   0.487531 0.496926 0.653471 0.849224
C17   C     C_R   0.512362 0.505903 0.346828 0.886127
C18   C     C_R   0.105785 0.545627 0.439766 -0.029455
C19   C     C_R   0.894240 0.453411 0.559459 -0.018109
C20   C     C_R   0.050685 0.498225 0.499003 0.016512
C21   C     C_R   0.949430 0.498798 0.498940 0.029640
C22   C     C_R   0.096875 0.450742 0.558548 -0.090092
C23   C     C_R   0.426690 0.186697 0.538377 -0.347343
C24   C     C_R   0.903282 0.545267 0.438776 -0.091366
C25   C     C_R   0.059673 0.591748 0.379983 -0.296955
C26   C     C_R   0.940385 0.406534 0.618720 -0.321212
C27   C     C_R   0.959330 0.590209 0.377844 0.497410
C28   C     C_R   0.041000 0.402390 0.617255 0.503487
C29   C     C_R   0.481712 0.494924 0.740701 -0.064023
C30   C     C_R   0.517117 0.536767 0.263989 -0.059731
C31   C     C_R   0.565633 0.481871 0.780579 -0.236653
C32   C     C_R   0.434316 0.573738 0.233881 -0.238752
C33   C     C_R   0.563671 0.486007 0.864052 0.150318
C34   C     C_R   0.564458 0.812435 0.449179 -0.344656
C35   C     C_R   0.436315 0.608151 0.156422 0.146630
C36   C     C_R   0.475662 0.507757 0.906879 0.163643
C37   C     C_R   0.522491 0.600781 0.107473 0.170373
C38   C     C_R   0.391031 0.515206 0.867395 -0.213758
C39   C     C_R   0.607072 0.571266 0.139696 -0.198090
C40   C     C_R   0.393871 0.508743 0.784453 -0.198761
C41   C     C_R   0.604493 0.539380 0.217916 -0.211434
C42   C     C_2   0.469704 0.527838 0.991980 -0.253224
C43   C     C_2   0.519845 0.594832 0.020810 -0.284946
C44   C     C_3   0.891933 0.580261 0.256773 0.056051
C45   C     C_R   0.501746 0.230779 0.496356 -0.176576
C46   C     C_3   0.971149 0.578115 0.188671 -0.343968
C47   C     C_3   0.941688 0.522652 0.117763 -0.963065
C48   C     C_3   0.112753 0.269495 0.646885 0.055822
C49   C     C_3   0.032600 0.201420 0.662946 -0.348305
C50   C     C_3   0.066930 0.107052 0.640457 -0.957004
C51   C     C_3   0.344375 0.645847 0.126130 -0.453785
C52   C     C_3   0.310906 0.730136 0.172936 -0.340874
C53   C     C_3   0.217785 0.767047 0.142969 -0.873745
C54   C     C_3   0.656094 0.467623 0.904201 -0.452747
C55   C     C_3   0.690785 0.370910 0.890210 -0.342967
C56   C     C_R   0.498097 0.768820 0.500936 -0.180558
C57   C     C_3   0.782456 0.352396 0.932239 -0.870236
C58   C     C_3   0.732016 0.225828 0.449253 0.091407
C59   C     C_3   0.811385 0.274381 0.399633 -0.305258
C60   C     C_3   0.908653 0.260548 0.434217 -0.982954
C61   C     C_3   0.401423 0.782933 0.686395 0.047580
C62   C     C_3   0.499044 0.739224 0.699267 -0.361734
C63   C     C_3   0.518852 0.737022 0.788063 -0.935840
C64   C     C_R   0.575176 0.183821 0.451744 0.395691
C65   C     C_R   0.430964 0.815801 0.551781 0.438816
C66   C     C_R   0.569015 0.090784 0.446090 0.003443
H1    H     H_    0.633366 0.469366 0.746670 0.154238
H2    H     H_    0.328195 0.518117 0.754561 0.172591
H3    H     H_    0.569456 0.633320 0.981909 0.167299
H4    H     H_    0.421798 0.488127 0.031395 0.168969
H5    H     H_    0.323402 0.530204 0.900617 0.145089
H6    H     H_    0.673251 0.565457 0.102136 0.131690
H7    H     H_    0.371299 0.224379 0.572932 0.164348
H8    H     H_    0.616166 0.774274 0.411162 0.177388
H9    H     H_    0.688101 0.073903 0.356145 0.179487
H10   H     H_    0.293550 0.925110 0.620892 0.176105
H11   H     H_    0.684567 0.911755 0.357753 0.152926
H12   H     H_    0.367233 0.575363 0.270435 0.150720
H13   H     H_    0.294577 0.087502 0.616500 0.141225
H14   H     H_    0.825419 0.607247 0.232741 0.166688
H15   H     H_    0.875171 0.510899 0.277513 0.114596
H16   H     H_    0.986536 0.647351 0.168054 0.230623
H17   H     H_    0.037631 0.548818 0.210851 0.210407
H18   H     H_    0.927293 0.452733 0.136772 0.264935
H19   H     H_    0.000479 0.522205 0.069499 0.266763
H20   H     H_    0.876326 0.551630 0.093339 0.259896
H21   H     H_    0.175609 0.248143 0.679605 0.163674
H22   H     H_    0.137317 0.269478 0.581745 0.123392
H23   H     H_    0.235547 0.417809 0.602449 0.155330
H24   H     H_    0.007651 0.203119 0.727646 0.233486
H25   H     H_    0.971094 0.218752 0.627102 0.207512
H26   H     H_    0.093353 0.104010 0.576156 0.269158
H27   H     H_    0.006551 0.059870 0.650413 0.267708
H28   H     H_    0.125309 0.086069 0.678391 0.257345
H29   H     H_    0.228105 0.785043 0.078418 0.260533
H30   H     H_    0.160108 0.716730 0.151055 0.256578
H31   H     H_    0.195304 0.827852 0.177799 0.254912
H32   H     H_    0.298534 0.715036 0.237978 0.217714
H33   H     H_    0.367096 0.782056 0.165588 0.229766
H34   H     H_    0.764323 0.581146 0.396938 0.159325
H35   H     H_    0.353782 0.663594 0.061514 0.223093
H36   H     H_    0.287955 0.594033 0.132520 0.197207
H37   H     H_    0.840472 0.397398 0.908730 0.266892
H38   H     H_    0.769715 0.362626 0.998096 0.261596
H39   H     H_    0.805971 0.282186 0.920977 0.248715
H40   H     H_    0.634288 0.324321 0.913924 0.228829
H41   H     H_    0.705409 0.357649 0.824951 0.213928
H42   H     H_    0.711845 0.514505 0.879650 0.198699
H43   H     H_    0.647649 0.478528 0.969921 0.223847
H44   H     H_    0.755685 0.155647 0.458397 0.130603
H45   H     H_    0.249840 0.582063 0.397101 0.116863
H46   H     H_    0.721365 0.258624 0.509214 0.143643
H47   H     H_    0.815658 0.248911 0.336853 0.223755
H48   H     H_    0.794043 0.346897 0.398372 0.228823
H49   H     H_    0.904469 0.278020 0.498928 0.265020
H50   H     H_    0.962794 0.303600 0.401963 0.269057
H51   H     H_    0.932053 0.189717 0.427130 0.267667
H52   H     H_    0.346339 0.752013 0.728472 0.179751
H53   H     H_    0.403250 0.854758 0.702999 0.131333
H54   H     H_    0.500260 0.670319 0.675616 0.233175
H55   H     H_    0.557127 0.776993 0.666066 0.208639
H56   H     H_    0.750056 0.419449 0.603843 0.116577
H57   H     H_    0.520926 0.806001 0.812395 0.258846
H58   H     H_    0.589129 0.703893 0.795210 0.266388
H59   H     H_    0.462471 0.698928 0.822949 0.273069
H60   H     H_    0.101522 0.628697 0.334344 0.156710
H61   H     H_    0.898403 0.371465 0.665520 0.154376
H62   H     H_    0.669711 0.513716 0.241195 0.145546
N1    N     N_R   0.249970 0.499930 0.499970 -0.105685
N2    N     N_R   0.750030 0.500070 0.500030 -0.108920
O1    O     O_R   0.419720 0.632140 0.499990 -0.577424
O2    O     O_3   0.083477 0.354892 0.676593 -0.653011
O3    O     O_3   0.646882 0.229750 0.408074 -0.637942
O4    O     O_3   0.372095 0.769429 0.607420 -0.634734
O5    O     O_R   0.580280 0.367860 0.500010 -0.603609
O6    O     O_R   0.580270 0.632160 0.499980 -0.630283
O7    O     O_R   0.419730 0.367840 0.500020 -0.629123
O8    O     O_R   0.410240 0.500000 0.615800 -0.616672
O9    O     O_R   0.589760 0.500000 0.384200 -0.623930
O10   O     O_R   0.570790 0.500020 0.615800 -0.632062
O11   O     O_R   0.429210 0.499980 0.384200 -0.632022
O12   O     O_3   0.916835 0.638378 0.318927 -0.650564
Zn1   Zn    Zn3+2 0.392800 0.499980 0.500010 0.961572
Zn2   Zn    Zn3+2 0.607200 0.500020 0.499990 0.941185

loop_
_geom_bond_atom_site_label_1
_geom_bond_atom_site_label_2
_ccdc_geom_bond_type
C57   H39   S    
C34   C56   A    
C23   C45   A    
C15   H56   S    
C53   H29   S    
C14   C18   A    
C36   C42   S    
C24   C27   A    
C8    H10   S    
C49   H24   S    
C2    C65   A    
C27   O12   S    
C6    C9    A    
C63   H58   S    
C39   C41   A    
C51   H36   S    
C31   H1    S    
C58   H46   S    
C47   H19   S    
C19   C21   A    
C1    C56   S    
C49   H25   S    
C15   C19   A    
O8    Zn1   S    
O11   Zn1   S    
C61   H53   S    
C54   C55   S    
C42   H4    S    
C33   C36   A    
C17   O11   A    
C19   C26   A    
C46   H16   S    
C12   O5    A    
C13   N2    A    
C31   C33   A    
C30   C41   A    
C1    O6    A    
N2    Zn2   S    
C62   H54   S    
C65   O4    S    
O7    Zn1   S    
C59   C60   S    
C43   H3    S    
C38   C40   A    
C22   C28   A    
C53   H30   S    
C17   C30   S    
C41   H62   S    
C16   O10   A    
C18   C25   A    
C23   H7    S    
C11   N1    A    
C44   C46   S    
C61   O4    S    
C58   O3    S    
C14   H45   S    
C57   H37   S    
C16   O8    A    
C55   H40   S    
C51   C52   S    
C32   C35   A    
C44   H14   S    
C4    C6    A    
C44   H15   S    
C50   H28   S    
C7    H9    S    
C53   H31   S    
C16   C29   S    
C6    C34   A    
C54   H43   S    
C55   H41   S    
C28   O2    S    
C64   C66   A    
C37   C43   S    
C2    C4    A    
C25   H60   S    
C47   H20   S    
C62   C63   S    
O9    Zn2   S    
C11   H23   S    
C44   O12   S    
C5    C23   A    
C59   H47   S    
C48   H22   S    
C48   H21   S    
C60   H51   S    
C17   O9    A    
C9    H11   S    
C47   H18   S    
C63   H59   S    
C39   H6    S    
C34   H8    S    
C8    C10   A    
C48   C49   S    
C20   C22   A    
C55   C57   S    
C35   C51   S    
C60   H50   S    
C3    C66   A    
C51   H35   S    
C42   C43   D    
C3    C4    A    
O1    Zn1   S    
C52   C53   S    
C64   O3    S    
C50   H26   S    
C33   C54   S    
C7    C9    A    
C57   H38   S    
C46   C47   S    
O5    Zn2   S    
C11   C22   A    
C35   C37   A    
C61   H52   S    
C58   H44   S    
C2    C8    A    
O10   Zn2   S    
C12   C45   S    
C3    C5    A    
C45   C64   A    
C63   H57   S    
C10   H13   S    
C50   H27   S    
N1    Zn1   S    
C56   C65   A    
C25   C27   A    
C52   H33   S    
C26   C28   A    
C54   H42   S    
C13   H34   S    
C36   C38   A    
C58   C59   S    
C5    C10   A    
C29   C31   A    
C7    C66   A    
C30   C32   A    
C15   N2    A    
C59   H48   S    
C1    O1    A    
C29   C40   A    
C52   H32   S    
C18   C20   A    
C26   H61   S    
C61   C62   S    
C32   H12   S    
C46   H17   S    
C37   C39   A    
C20   C21   A    
C13   C24   A    
O6    Zn2   S    
C49   C50   S    
C40   H2    S    
C21   C24   A    
C12   O7    A    
C48   O2    S    
C60   H49   S    
C62   H55   S    
C38   H5    S    
C14   N1    A    
