data_mof_unit_3470.cif
_audit_creation_date              2012-10-26T21:05:25-0400
_audit_creation_method            fapswitch 2.2
_symmetry_space_group_name_H-M    P1
_symmetry_Int_Tables_number       1
_space_group_crystal_system       triclinic
_cell_length_a                    9.740975
_cell_length_b                    10.816048
_cell_length_c                    13.865277
_cell_angle_alpha                 94.357782
_cell_angle_beta                  86.388434
_cell_angle_gamma                 88.958587
_cell_volume                      1453.32663599

loop_
_atom_site_label
_atom_site_type_symbol
_atom_type_description
_atom_site_fract_x
_atom_site_fract_y
_atom_site_fract_z
_atom_type_partial_charge
C1    C     C_R   0.501039 0.735063 0.487303 0.530454
C2    C     C_R   0.628483 0.932507 0.458060 -0.025665
C3    C     C_R   0.622948 0.061347 0.476501 -0.156342
C4    C     C_R   0.478854 0.500434 0.682320 0.538214
C5    C     C_R   0.497092 0.125737 0.497464 -0.024160
C6    C     C_R   0.872878 0.333007 0.370218 -0.119683
C7    C     C_R   0.951491 0.250849 0.306427 -0.156523
C8    C     C_R   0.094241 0.251410 0.305109 0.083461
C9    C     C_R   0.157600 0.334055 0.369384 -0.048294
C10   C     C_R   0.081662 0.417460 0.436772 0.095086
C11   C     C_R   0.933302 0.418812 0.435769 0.122902
C12   C     C_1   0.467626 0.504540 0.785424 -0.040015
C13   C     C_R   0.918582 0.572593 0.566308 0.102096
C14   C     C_R   0.064915 0.584232 0.557616 0.112638
C15   C     C_R   0.499525 0.262147 0.502356 0.538299
C16   C     C_R   0.520998 0.497882 0.317613 0.525785
C17   C     C_1   0.531014 0.490233 0.214441 -0.024041
C18   C     C_2   0.548072 0.471413 0.023767 -0.123396
C19   C     C_2   0.446926 0.517782 0.976073 -0.120847
C20   C     C_1   0.457182 0.509954 0.872338 -0.065219
C21   C     C_1   0.539485 0.481821 0.127497 -0.050601
C22   C     C_3   0.116203 0.710433 0.594493 -0.199679
C23   C     C_R   0.268767 0.879259 0.414008 -0.126448
C24   C     C_3   0.184028 0.716971 0.691973 -0.260765
C25   C     C_3   0.148998 0.838925 0.752180 -0.474849
C26   C     C_3   0.763975 0.872162 0.417758 -0.237654
C27   C     C_3   0.749990 0.804541 0.317101 -0.273568
C28   C     C_3   0.882033 0.734323 0.278930 -0.436810
C29   C     C_3   0.841055 0.633480 0.657610 -0.206435
C30   C     C_3   0.851627 0.551526 0.743158 -0.282701
C31   C     C_3   0.799639 0.620871 0.838894 -0.453905
C32   C     C_R   0.140551 0.938272 0.425355 -0.157699
C33   C     C_R   0.123183 0.050505 0.481174 -0.133512
C34   C     C_R   0.238230 0.111013 0.514943 -0.100516
C35   C     C_R   0.372236 0.059055 0.492038 0.020464
C36   C     C_R   0.381174 0.933303 0.458088 0.013188
C37   C     C_R   0.504316 0.866896 0.464952 -0.007659
Cu1   Cu    Cu3+1 0.359340 0.500010 0.500010 0.890430
Cu2   Cu    Cu3+1 0.640660 0.499990 0.499990 0.884796
H1    H     H_    0.357104 0.563529 0.014617 0.133078
H2    H     H_    0.717747 0.112038 0.471484 0.128484
H3    H     H_    0.115187 0.112815 0.195482 0.226807
H4    H     H_    0.232908 0.110235 0.278466 0.240303
H5    H     H_    0.181287 0.918709 0.710787 0.161765
H6    H     H_    0.036868 0.847381 0.771893 0.146618
H7    H     H_    0.204196 0.841867 0.819963 0.142320
H8    H     H_    0.152702 0.638729 0.734998 0.165718
H9    H     H_    0.297271 0.713102 0.678562 0.195620
H10   H     H_    0.177611 0.749647 0.538803 0.185875
H11   H     H_    0.034688 0.783166 0.594821 0.084028
H12   H     H_    0.764716 0.324904 0.366086 0.187754
H13   H     H_    0.963312 0.800350 0.259761 0.133649
H14   H     H_    0.918381 0.673582 0.333693 0.169879
H15   H     H_    0.862098 0.675337 0.212400 0.148475
H16   H     H_    0.665887 0.737086 0.319688 0.188094
H17   H     H_    0.723577 0.873115 0.264984 0.147724
H18   H     H_    0.840623 0.945290 0.408506 0.115432
H19   H     H_    0.805745 0.809910 0.469312 0.168269
H20   H     H_    0.867672 0.699418 0.857074 0.144956
H21   H     H_    0.693451 0.657666 0.834123 0.162680
H22   H     H_    0.800415 0.557160 0.897900 0.143394
H23   H     H_    0.900224 0.186657 0.257595 0.110497
H24   H     H_    0.794036 0.464840 0.731579 0.193786
H25   H     H_    0.960340 0.522648 0.749501 0.145825
H26   H     H_    0.879582 0.724588 0.682021 0.098803
H27   H     H_    0.735790 0.662180 0.645137 0.199094
H28   H     H_    0.266969 0.329653 0.363625 0.199881
H29   H     H_    0.637721 0.425414 0.985269 0.126560
H30   H     H_    0.278486 0.789511 0.373526 0.135783
H31   H     H_    0.054879 0.892391 0.395118 0.108573
H32   H     H_    0.021487 0.092335 0.495979 0.112756
H33   H     H_    0.219118 0.196213 0.559794 0.151951
N1    N     N_R   0.852210 0.498790 0.499090 -0.248395
N2    N     N_R   0.148080 0.498710 0.499060 -0.253019
N3    N     N_3   0.177431 0.169271 0.238111 -0.631506
O1    O     O_R   0.381190 0.680360 0.500010 -0.525571
O2    O     O_R   0.618760 0.680340 0.500000 -0.517358
O3    O     O_R   0.364420 0.499990 0.637850 -0.497072
O4    O     O_R   0.601990 0.499960 0.637840 -0.509533
O5    O     O_R   0.381240 0.319660 0.500000 -0.528072
O6    O     O_R   0.618810 0.319640 0.499990 -0.516465
O7    O     O_R   0.398010 0.500040 0.362160 -0.513201
O8    O     O_R   0.635580 0.500010 0.362150 -0.515060

loop_
_geom_bond_atom_site_label_1
_geom_bond_atom_site_label_2
_ccdc_geom_bond_type
C30   H25   S    
C18   C21   S    
C1    O2    A    
C31   H22   S    
C19   C20   S    
C7    C8    A    
C15   O6    A    
Cu1   O1    S    
H3    N3    S    
C14   N2    A    
C13   C29   S    
C36   C37   A    
C18   C19   D    
C30   C31   S    
C27   H16   S    
C18   H29   S    
C34   C35   A    
C31   H20   S    
C23   H30   S    
C35   C36   A    
C8    C9    A    
C6    H12   S    
C4    C12   S    
C9    C10   A    
C1    C37   S    
C22   H11   S    
C30   H24   S    
Cu1   O7    S    
C1    O1    A    
C25   H5    S    
C8    N3    S    
H4    N3    S    
C24   H9    S    
C24   C25   S    
Cu2   O6    S    
C4    O4    A    
C19   H1    S    
C6    C11   A    
C28   H15   S    
C27   H17   S    
C16   C17   S    
C32   H31   S    
Cu1   O3    S    
C16   O8    A    
C17   C21   T    
Cu2   O4    S    
C31   H21   S    
C9    H28   S    
C7    H23   S    
C4    O3    A    
C29   C30   S    
C15   O5    A    
C12   C20   T    
C16   O7    A    
C33   C34   A    
C26   C27   S    
C2    C26   S    
C26   H19   S    
C22   H10   S    
C29   H26   S    
C13   N1    A    
C11   N1    A    
C22   C24   S    
C25   H6    S    
Cu1   N2    S    
Cu2   O2    S    
C3    H2    S    
C24   H8    S    
C3    C5    A    
C28   H14   S    
C6    C7    A    
C28   H13   S    
C23   C32   A    
C14   C22   S    
C2    C3    A    
Cu2   O8    S    
C32   C33   A    
C10   N2    A    
C2    C37   A    
Cu1   Cu2   S    
Cu1   O5    S    
C5    C35   A    
Cu2   N1    S    
C26   H18   S    
C5    C15   S    
C10   C11   A    
C33   H32   S    
C34   H33   S    
C29   H27   S    
C23   C36   A    
C27   C28   S    
C13   C14   A    
C25   H7    S    
