data_mof_unit_3059.cif
_audit_creation_date              2012-12-10T20:07:09-0500
_audit_creation_method            fapswitch 2.2
_symmetry_space_group_name_H-M    P1
_symmetry_Int_Tables_number       1
_space_group_crystal_system       triclinic
_cell_length_a                    19.335755
_cell_length_b                    18.405939
_cell_length_c                    10.624685
_cell_angle_alpha                 89.985534
_cell_angle_beta                  89.967672
_cell_angle_gamma                 90.002472
_cell_volume                      3781.24739273

loop_
_atom_site_label
_atom_site_type_symbol
_atom_type_description
_atom_site_fract_x
_atom_site_fract_y
_atom_site_fract_z
_atom_type_partial_charge
C1    C     C_R   0.365605 0.499998 0.499856 0.860984
C2    C     C_R   0.634394 0.500001 0.500147 0.860983
C3    C     C_R   0.709485 0.500005 0.500032 -0.032026
C4    C     C_R   0.290514 0.499993 0.499989 -0.032025
C5    C     C_R   0.964142 0.544550 0.584475 -0.186778
C6    C     C_R   0.035858 0.455441 0.415610 -0.186780
C7    C     C_R   0.035771 0.544533 0.584561 -0.187769
C8    C     C_R   0.964230 0.455459 0.415522 -0.187769
C9    C     C_R   0.071742 0.499978 0.500129 0.107828
C10   C     C_R   0.928259 0.500013 0.499953 0.107832
C11   C     C_R   0.534103 0.725899 0.592490 0.008276
C12   C     C_R   0.465897 0.274101 0.407510 0.008276
C13   C     C_R   0.465896 0.725922 0.407511 0.008168
C14   C     C_R   0.534105 0.274078 0.592488 0.008168
C15   C     C_R   0.534679 0.801996 0.594393 -0.287937
C16   C     C_R   0.465320 0.198004 0.405607 -0.287936
C17   C     C_R   0.465318 0.802020 0.405609 -0.287858
C18   C     C_R   0.534682 0.197980 0.594391 -0.287858
C19   C     C_R   0.499999 0.841356 0.500000 0.124155
C20   C     C_R   0.500001 0.158644 0.500000 0.124155
C21   C     C_R   0.440776 0.961917 0.463788 -0.187747
C22   C     C_R   0.559224 0.038083 0.536212 -0.187747
C23   C     C_R   0.559224 0.961911 0.536212 -0.187685
C24   C     C_R   0.440776 0.038089 0.463788 -0.187685
C25   C     C_R   0.500000 0.077321 0.500000 0.123836
C26   C     C_R   0.500000 0.922679 0.500000 0.123836
C27   C     C_R   0.510744 0.500011 0.260260 0.899216
C28   C     C_R   0.489255 0.499989 0.739740 0.899215
C29   C     C_R   0.538228 0.633758 0.110216 -0.132919
C30   C     C_R   0.461771 0.366241 0.889784 -0.132918
C31   C     C_R   0.461404 0.633627 0.889636 -0.132951
C32   C     C_R   0.538596 0.366373 0.110364 -0.132951
C33   C     C_R   0.520082 0.699421 0.053774 -0.168476
C34   C     C_R   0.479918 0.300579 0.946226 -0.168476
C35   C     C_R   0.479368 0.699352 0.946001 -0.168304
C36   C     C_R   0.520632 0.300648 0.053999 -0.168303
C37   C     C_R   0.484400 0.566685 0.940594 0.089397
C38   C     C_R   0.515600 0.433314 0.059405 0.089396
C39   C     C_R   0.515413 0.566738 0.059343 0.089465
C40   C     C_R   0.484587 0.433262 0.940657 0.089465
C41   C     C_R   0.478321 0.499964 0.875656 -0.267103
C42   C     C_R   0.521679 0.500035 0.124344 -0.267104
C43   C     C_R   0.745612 0.433956 0.499788 -0.196350
C44   C     C_R   0.254387 0.566043 0.500233 -0.196353
C45   C     C_R   0.254390 0.433939 0.499884 -0.196198
C46   C     C_R   0.745611 0.566059 0.500165 -0.196199
C47   C     C_R   0.817238 0.434000 0.499679 -0.180249
C48   C     C_R   0.182762 0.565996 0.500369 -0.180245
C49   C     C_R   0.182764 0.433974 0.499932 -0.180444
C50   C     C_R   0.817236 0.566022 0.500143 -0.180439
C51   C     C_R   0.853156 0.500013 0.499900 0.119344
C52   C     C_R   0.146845 0.499982 0.500172 0.119343
H1    H     H_    0.537108 0.249799 0.095508 0.137908
H2    H     H_    0.462892 0.750201 0.904492 0.137908
H3    H     H_    0.463576 0.249675 0.904785 0.137931
H4    H     H_    0.536424 0.750325 0.095215 0.137931
H5    H     H_    0.570738 0.635841 0.193020 0.151677
H6    H     H_    0.429262 0.364159 0.806980 0.151676
H7    H     H_    0.428907 0.635594 0.806803 0.151435
H8    H     H_    0.571093 0.364406 0.193197 0.151434
H9    H     H_    0.718678 0.382349 0.499953 0.154802
H10   H     H_    0.281321 0.617651 0.500048 0.154801
H11   H     H_    0.281326 0.382334 0.499978 0.154788
H12   H     H_    0.718675 0.617663 0.500075 0.154787
H13   H     H_    0.844622 0.382647 0.500766 0.129944
H14   H     H_    0.155376 0.617348 0.499280 0.129946
H15   H     H_    0.155379 0.382618 0.501060 0.129879
H16   H     H_    0.844621 0.617376 0.499034 0.129879
H17   H     H_    0.936737 0.578526 0.651172 0.132718
H18   H     H_    0.063264 0.421465 0.348915 0.132722
H19   H     H_    0.063106 0.578501 0.651311 0.132412
H20   H     H_    0.936896 0.421491 0.348768 0.132411
H21   H     H_    0.560808 0.695862 0.665245 0.138834
H22   H     H_    0.439191 0.304138 0.334755 0.138834
H23   H     H_    0.439189 0.695903 0.334759 0.138940
H24   H     H_    0.560811 0.304097 0.665241 0.138940
H25   H     H_    0.393837 0.933732 0.437378 0.129339
H26   H     H_    0.606162 0.066268 0.562622 0.129339
H27   H     H_    0.606162 0.933722 0.562622 0.129312
H28   H     H_    0.393838 0.066278 0.437378 0.129312
N1    N     N_R   0.500000 0.689440 0.500000 -0.096843
N2    N     N_R   0.500000 0.310560 0.500000 -0.096843
O1    O     O_R   0.398180 0.560840 0.499970 -0.627559
O2    O     O_R   0.601820 0.439160 0.500030 -0.627560
O3    O     O_R   0.601820 0.560840 0.500030 -0.627541
O4    O     O_R   0.398180 0.439160 0.499970 -0.627542
O5    O     O_R   0.499990 0.560810 0.316770 -0.623269
O6    O     O_R   0.500010 0.439190 0.683230 -0.623269
O7    O     O_R   0.500010 0.560810 0.683230 -0.623272
O8    O     O_R   0.499990 0.439190 0.316770 -0.623271
Zn1   Zn    Zn3+2 0.500000 0.581210 0.500000 0.931315
Zn2   Zn    Zn3+2 0.500000 0.418790 0.500000 0.931315
H29   H     H_    0.561283 0.829681 0.670088 0.133664
H30   H     H_    0.438716 0.170319 0.329912 0.133664
H31   H     H_    0.438714 0.829725 0.329914 0.133709
H32   H     H_    0.561287 0.170275 0.670086 0.133709

loop_
_geom_bond_atom_site_label_1
_geom_bond_atom_site_label_2
_ccdc_geom_bond_type
C21   C26   A    
C12   H22   S    
C18   H32   S    
C14   C18   A    
C2    O2    A    
C6    C9    A    
O3    Zn1   S    
C11   N1    A    
C15   C19   A    
C3    C43   A    
C27   O8    A    
C32   C36   A    
C38   C42   A    
O5    Zn1   S    
C7    H19   S    
C20   C25   S    
C13   N1    A    
C28   C41   S    
N2    Zn2   S    
C2    O3    A    
C7    C9    A    
C23   C26   A    
C31   H7    S    
C19   C26   S    
C5    H17   S    
C36   H1    S    
C17   C19   A    
C11   C15   A    
C24   H28   S    
C13   H23   S    
C29   C33   A    
C22   C25   A    
C28   O6    A    
C28   O7    A    
C17   H31   S    
C32   C38   A    
O7    Zn1   S    
C18   C20   A    
C33   H4    S    
C34   H3    S    
C35   H2    S    
C9    C52   S    
C10   C51   S    
C39   C42   A    
C4    C45   A    
C8    H20   S    
C30   C34   A    
C12   N2    A    
C12   C16   A    
C24   C25   A    
C22   H26   S    
C11   H21   S    
C5    C7    A    
C6    C8    A    
C4    C44   A    
C44   H10   S    
C45   H11   S    
C31   C37   A    
C46   H12   S    
C14   H24   S    
O8    Zn2   S    
C45   C49   A    
C16   C20   A    
C49   C52   A    
C29   C39   A    
C50   C51   A    
C30   C40   A    
O6    Zn2   S    
C27   O5    A    
C40   C41   A    
C29   H5    S    
C31   C35   A    
C32   H8    S    
C43   H9    S    
C1    O4    A    
C6    H18   S    
C49   H15   S    
C15   H29   S    
C47   C51   A    
C1    O1    A    
O1    Zn1   S    
C46   C50   A    
C3    C46   A    
C16   H30   S    
C13   C17   A    
C1    C4    S    
C48   H14   S    
C2    C3    S    
C5    C10   A    
C37   C39   A    
O4    Zn2   S    
C38   C40   A    
C27   C42   S    
C50   H16   S    
C30   H6    S    
C33   C35   A    
C34   C36   A    
C37   C41   A    
N1    Zn1   S    
C48   C52   A    
C8    C10   A    
C21   C24   A    
C21   H25   S    
C14   N2    A    
C22   C23   A    
O2    Zn2   S    
C23   H27   S    
C43   C47   A    
C47   H13   S    
C44   C48   A    
