data_mof_unit_4071.cif
_audit_creation_date              2013-03-05T16:38:00-0500
_audit_creation_method            fapswitch 2.2
_symmetry_space_group_name_H-M    P1
_symmetry_Int_Tables_number       1
_space_group_crystal_system       triclinic
_cell_length_a                    18.828633
_cell_length_b                    18.886592
_cell_length_c                    18.776614
_cell_angle_alpha                 109.548878
_cell_angle_beta                  109.077815
_cell_angle_gamma                 109.217232
_cell_volume                      5175.81153834

loop_
_atom_site_label
_atom_site_type_symbol
_atom_site_description
_atom_site_fract_x
_atom_site_fract_y
_atom_site_fract_z
_atom_type_partial_charge
O1    O     O_R   0.409800 0.552190 0.462000 -0.540389
O2    O     O_R   0.409840 0.447810 0.357640 -0.587492
C1    C     C_R   0.382663 0.502036 0.381367 0.777794
O3    O     O_R   0.590160 0.642370 0.552180 -0.555798
O4    O     O_R   0.590190 0.537990 0.447820 -0.532963
C2    C     C_R   0.621598 0.618999 0.502349 0.831613
Cu1   Cu    Cu3+1 0.499980 0.561800 0.561790 1.057505
Cu2   Cu    Cu3+1 0.500020 0.438200 0.438210 1.040801
O5    O     O_R   0.590160 0.552190 0.642360 -0.557415
O6    O     O_R   0.590200 0.447810 0.538000 -0.556749
O7    O     O_R   0.409810 0.462010 0.552180 -0.579152
O8    O     O_R   0.409840 0.357630 0.447820 -0.555411
C3    C     C_R   0.615941 0.497316 0.619265 0.799924
C4    C     C_R   0.379037 0.381563 0.498261 0.793261
H1    H     H_    0.803156 0.911237 0.904670 0.191969
C5    C     C_R   0.721597 0.865324 0.770124 -0.136906
H2    H     H_    0.681800 0.892484 0.783065 0.185798
C6    C     C_R   0.707532 0.824360 0.685664 0.389136
C7    C     C_R   0.759321 0.789098 0.668046 -0.015135
C8    C     C_R   0.828422 0.800066 0.738653 0.429141
C9    C     C_R   0.844258 0.845117 0.823407 -0.059704
H3    H     H_    0.900031 0.858392 0.877998 0.184581
C10   C     C_R   0.790391 0.876517 0.838943 -0.127967
C11   C     C_R   0.820892 0.827249 0.580267 0.360723
C12   C     C_R   0.815027 0.815694 0.500526 -0.220302
C13   C     C_R   0.744291 0.743539 0.422235 -0.077139
C14   C     C_R   0.688486 0.675103 0.424521 0.313939
C15   C     C_R   0.690920 0.686406 0.503944 -0.194516
C16   C     C_R   0.756918 0.764974 0.582645 -0.015732
C17   C     C_R   0.651075 0.761891 0.309278 -0.195767
H4    H     H_    0.618795 0.773110 0.346735 0.170822
C18   C     C_R   0.623421 0.763510 0.231398 0.489210
C19   C     C_R   0.668275 0.751817 0.184715 -0.356978
H5    H     H_    0.648652 0.753303 0.124693 0.139263
C20   C     C_R   0.739623 0.739033 0.216457 0.522374
C21   C     C_R   0.762968 0.734585 0.292989 -0.136847
H6    H     H_    0.817851 0.726256 0.318106 0.123910
C22   C     C_R   0.718811 0.745175 0.339294 0.049799
H7    H     H_    0.517207 0.917196 0.535059 0.203744
C23   C     C_R   0.433759 0.795868 0.517598 -0.118215
H8    H     H_    0.431627 0.825539 0.576526 0.169008
C24   C     C_R   0.384465 0.706113 0.462754 0.498475
C25   C     C_R   0.388032 0.667336 0.386406 -0.122288
C26   C     C_R   0.440171 0.720438 0.364519 0.445068
C27   C     C_R   0.484861 0.810107 0.418230 -0.154802
H9    H     H_    0.520449 0.851090 0.399619 0.162539
C28   C     C_R   0.481907 0.847697 0.494167 -0.141933
C29   C     C_R   0.252367 0.573905 0.251183 -0.216085
H10   H     H_    0.255554 0.632992 0.252958 0.178863
C30   C     C_R   0.182842 0.494782 0.182883 -0.073447
C31   C     C_R   0.176130 0.417525 0.182046 0.140951
C32   C     C_R   0.243377 0.422101 0.247252 -0.226142
H11   H     H_    0.239626 0.362951 0.245569 0.153854
C33   C     C_R   0.314361 0.501991 0.315384 -0.074302
C34   C     C_R   0.317576 0.579000 0.318194 0.075784
C35   C     C_R   0.022949 0.298121 0.111299 0.333065
C36   C     C_R   0.953021 0.217913 0.041040 0.251755
C37   C     C_R   0.962962 0.169922 0.973135 0.317838
C38   C     C_R   0.045025 0.198993 0.979254 0.388781
C39   C     C_R   0.113632 0.279716 0.048172 -0.408774
H12   H     H_    0.176555 0.302158 0.052917 0.195691
C40   C     C_R   0.102392 0.331117 0.112280 -0.110201
C41   C     C_R   0.252486 0.533616 0.624406 -0.200763
H13   H     H_    0.279158 0.583001 0.690515 0.172371
C42   C     C_R   0.269200 0.464302 0.608216 0.507172
C43   C     C_R   0.235316 0.401039 0.521963 0.031561
C44   C     C_R   0.182486 0.405901 0.453169 -0.267931
H14   H     H_    0.153645 0.355895 0.386751 0.192803
C45   C     C_R   0.162771 0.472815 0.470076 -0.119149
H15   H     H_    0.118847 0.473769 0.416618 0.191475
C46   C     C_R   0.197328 0.536416 0.555678 0.433206
C47   C     C_R   0.177406 0.254175 0.499134 -0.242479
H16   H     H_    0.121941 0.258885 0.500647 0.179997
C48   C     C_R   0.186376 0.183745 0.498752 -0.132675
C49   C     C_R   0.261177 0.180262 0.502487 -0.004672
C50   C     C_R   0.321529 0.242775 0.497101 0.397793
C51   C     C_R   0.313158 0.315053 0.499927 -0.152538
C52   C     C_R   0.242412 0.322266 0.505117 0.014671
C53   C     C_R   0.342299 0.147491 0.607212 -0.310094
H17   H     H_    0.364939 0.211677 0.657582 0.223846
C54   C     C_R   0.375672 0.096978 0.628195 0.320115
C55   C     C_R   0.347071 0.013505 0.562886 0.420397
C56   C     C_R   0.288420 0.984632 0.476898 -0.202846
H18   H     H_    0.267091 0.921144 0.426496 0.253317
C57   C     C_R   0.256473 0.036260 0.455282 0.459738
C58   C     C_R   0.283830 0.118414 0.521298 -0.012096
H19   H     H_    0.454207 0.554301 0.861455 0.162215
C59   C     C_R   0.560335 0.611240 0.841986 -0.193395
H20   H     H_    0.564256 0.673878 0.866176 0.167668
C60   C     C_R   0.619067 0.599045 0.816171 0.386976
C61   C     C_R   0.614258 0.517394 0.784626 -0.028696
C62   C     C_R   0.553026 0.450518 0.785848 0.355731
C63   C     C_R   0.494741 0.463794 0.811905 -0.121654
H21   H     H_    0.448109 0.412638 0.813026 0.169946
C64   C     C_R   0.498276 0.543809 0.839657 -0.185371
C65   C     C_R   0.746838 0.505280 0.827143 0.517710
C66   C     C_R   0.814779 0.499725 0.814370 -0.207271
C67   C     C_R   0.817697 0.493719 0.738725 -0.096994
C68   C     C_R   0.751716 0.492188 0.674853 0.440654
C69   C     C_R   0.683831 0.498970 0.687614 -0.201373
C70   C     C_R   0.682156 0.507029 0.765118 -0.035708
C71   C     C_R   0.955277 0.552469 0.734383 -0.136907
H22   H     H_    0.963323 0.616699 0.762531 0.232306
C72   C     C_R   0.013681 0.539463 0.708559 -0.140169
H23   H     H_    0.065994 0.593362 0.716453 0.221250
C73   C     C_R   0.005109 0.457248 0.673674 0.501387
C74   C     C_R   0.938502 0.388284 0.664991 -0.161862
H24   H     H_    0.933291 0.325416 0.639413 0.161418
C75   C     C_R   0.878286 0.400317 0.688135 -0.218572
H25   H     H_    0.825358 0.345731 0.678681 0.145331
C76   C     C_R   0.885709 0.482385 0.721789 0.163194
O9    O     O_R   0.052200 0.909800 0.461980 -0.562344
O10   O     O_R   0.947810 0.909820 0.357620 -0.596649
C77   C     C_R   0.998019 0.879016 0.381728 0.829771
O11   O     O_R   0.962020 0.909790 0.552160 -0.557286
O12   O     O_R   0.857630 0.909810 0.447800 -0.594072
C78   C     C_R   0.881509 0.881339 0.499767 0.867007
Cu3   Cu    Cu3+1 0.061810 0.999960 0.561770 0.993837
Cu4   Cu    Cu3+1 0.938190 0.999990 0.438190 0.978842
O13   O     O_R   0.052190 0.090130 0.642340 -0.566265
O14   O     O_R   0.947800 0.090160 0.537980 -0.580699
O15   O     O_R   0.142370 0.090140 0.552150 -0.586869
O16   O     O_R   0.037980 0.090170 0.447800 -0.581349
C79   C     C_R   0.998820 0.117828 0.618490 0.817351
C80   C     C_R   0.118885 0.117427 0.498754 0.840588
O17   O     O_R   0.052200 0.461970 0.909800 -0.564350
O18   O     O_R   0.947810 0.357610 0.909840 -0.602841
C81   C     C_R   0.002525 0.381705 0.883190 0.767064
O19   O     O_R   0.142370 0.552160 0.090140 -0.584227
O20   O     O_R   0.037990 0.447800 0.090170 -0.553403
C82   C     C_R   0.118030 0.496559 0.115827 0.776505
Cu5   Cu    Cu3+1 0.061800 0.561770 0.999960 0.990250
Cu6   Cu    Cu3+1 0.938200 0.438190 0.000000 1.098415
O21   O     O_R   0.052190 0.642350 0.090120 -0.572122
O22   O     O_R   0.947800 0.537990 0.090150 -0.519977
O23   O     O_R   0.962010 0.552150 0.909780 -0.583517
O24   O     O_R   0.857630 0.447800 0.909820 -0.529800
C83   C     C_R   0.999959 0.618801 0.118862 0.804677
C84   C     C_R   0.881557 0.498964 0.880276 0.830854
C85   C     C_R   0.057894 0.747328 0.537939 0.448910
C86   C     C_R   0.060646 0.761515 0.469904 0.262862
C87   C     C_R   0.984537 0.720463 0.390154 -0.043292
C88   C     C_R   0.907882 0.658241 0.376536 -0.235533
H26   H     H_    0.850314 0.620689 0.313528 0.213471
C89   C     C_R   0.905714 0.641640 0.443112 -0.247624
H27   H     H_    0.846273 0.593101 0.431527 0.209371
C90   C     C_R   0.980519 0.685734 0.523488 0.368662
C91   C     C_R   0.987105 0.670466 0.251376 0.462771
C92   C     C_R   0.001801 0.686287 0.187809 -0.178398
C93   C     C_R   0.020874 0.767456 0.192667 0.035592
C94   C     C_R   0.014683 0.827205 0.254210 -0.146962
H28   H     H_    0.025376 0.887805 0.255557 0.175183
C95   C     C_R   0.998570 0.811382 0.316313 -0.070847
C96   C     C_R   0.987977 0.734061 0.317514 0.006129
C97   C     C_R   0.132072 0.819711 0.148645 0.398225
C98   C     C_R   0.151254 0.826308 0.084300 -0.355696
H29   H     H_    0.216649 0.847084 0.095433 0.195617
C99   C     C_R   0.085369 0.800650 0.003317 0.429848
C100  C     C_R   0.999958 0.768957 0.987493 0.375429
C101  C     C_R   0.981815 0.769090 0.053799 -0.394105
H30   H     H_    0.916159 0.746660 0.041096 0.178226
C102  C     C_R   0.046390 0.790605 0.133338 0.006319
H31   H     H_    0.409233 0.541527 0.076475 0.157410
C103  C     C_R   0.299724 0.526399 0.975628 -0.249308
H32   H     H_    0.336535 0.590120 0.986446 0.117426
C104  C     C_R   0.211921 0.471315 0.909812 0.549569
C105  C     C_R   0.169040 0.386685 0.895686 0.003902
C106  C     C_R   0.214100 0.359507 0.946282 -0.257399
H33   H     H_    0.183580 0.293231 0.931972 0.198176
C107  C     C_R   0.299325 0.415687 0.012647 -0.141854
H34   H     H_    0.332972 0.393786 0.051284 0.161284
C108  C     C_R   0.342173 0.498897 0.026986 -0.143013
C109  C     C_R   0.077389 0.253367 0.755074 -0.199157
H35   H     H_    0.136718 0.254867 0.758972 0.144663
C110  C     C_R   0.998130 0.184977 0.684592 -0.044156
C111  C     C_R   0.920472 0.182940 0.677542 -0.012126
C112  C     C_R   0.923987 0.247676 0.744432 -0.290135
H36   H     H_    0.864351 0.245541 0.740021 0.159521
C113  C     C_R   0.003697 0.316170 0.815837 -0.034329
C114  C     C_R   0.081768 0.320411 0.820385 0.087865
C115  C     C_R   0.798953 0.128092 0.531932 -0.101507
H37   H     H_    0.828690 0.190296 0.536756 0.128414
C116  C     C_R   0.725364 0.060018 0.454306 -0.105572
H38   H     H_    0.698296 0.070570 0.400901 0.145997
C117  C     C_R   0.688129 0.977837 0.444692 -0.128768
H39   H     H_    0.632827 0.924954 0.383484 0.160824
C118  C     C_R   0.722901 0.964049 0.513588 -0.102558
H40   H     H_    0.693952 0.900277 0.505965 0.174873
C119  C     C_R   0.796324 0.032209 0.591574 -0.118843
H41   H     H_    0.823563 0.020760 0.644003 0.171577
C120  C     C_R   0.835787 0.114305 0.600665 0.092126
O25   O     O_3   0.785798 0.725888 0.173419 -0.588718
C121  C     C_3   0.794661 0.775531 0.131746 -0.316622
H42   H     H_    0.808750 0.842245 0.172078 0.174942
H43   H     H_    0.736542 0.742011 0.067048 0.176789
H44   H     H_    0.850132 0.781868 0.120824 0.182485
O26   O     O_3   0.325674 0.656584 0.478581 -0.570200
C122  C     C_3   0.255105 0.672059 0.458287 -0.238437
H45   H     H_    0.196384 0.612676 0.435758 0.195279
H46   H     H_    0.241287 0.688093 0.404949 0.144561
H47   H     H_    0.265940 0.724346 0.517152 0.227731
O27   O     O_3   0.438257 0.689309 0.285118 -0.565677
C123  C     C_3   0.452138 0.617719 0.266167 -0.226383
H48   H     H_    0.389898 0.557071 0.218836 0.175727
H49   H     H_    0.486235 0.614120 0.324649 0.168694
H50   H     H_    0.491929 0.622167 0.233942 0.211702
Cl1   Cl    Cl    0.011741 0.355984 0.198846 -0.571312
Cl2   Cl    Cl    0.852072 0.176782 0.036657 -0.477579
O28   O     O_3   0.893966 0.091222 0.904442 -0.548553
C124  C     C_3   0.858993 0.102327 0.832785 -0.158887
H51   H     H_    0.905525 0.119855 0.809128 0.191432
H52   H     H_    0.838111 0.151609 0.848477 0.164558
H53   H     H_    0.801068 0.040226 0.779001 0.194077
O29   O     O_3   0.057328 0.151214 0.915182 -0.558507
C125  C     C_3   0.072051 0.088733 0.932472 -0.205823
H54   H     H_    0.014927 0.042235 0.929608 0.185482
H55   H     H_    0.130611 0.119518 0.996419 0.123550
H56   H     H_    0.083398 0.051310 0.881856 0.208336
Cl3   Cl    Cl    0.167118 0.616424 0.577721 -0.558275
O30   O     O_3   0.319205 0.457991 0.676057 -0.588513
C126  C     C_3   0.271528 0.434670 0.716674 -0.277495
H57   H     H_    0.206646 0.376702 0.669165 0.195491
H58   H     H_    0.265582 0.489592 0.754965 0.206677
H59   H     H_    0.306473 0.417714 0.762487 0.166768
Cl4   Cl    Cl    0.631674 0.828101 0.605174 -0.704499
O31   O     O_3   0.381935 0.226847 0.478101 -0.602078
C127  C     C_3   0.463579 0.274651 0.553241 -0.196674
H60   H     H_    0.476605 0.338489 0.599796 0.137415
H61   H     H_    0.513807 0.287082 0.533444 0.195922
H62   H     H_    0.470771 0.235802 0.585261 0.215607
Cl5   Cl    Cl    0.457325 0.143045 0.735412 -0.525463
O32   O     O_3   0.379528 0.961072 0.579082 -0.574162
C128  C     C_3   0.364010 0.942719 0.641451 -0.111438
H63   H     H_    0.316173 0.958752 0.655009 0.171162
H64   H     H_    0.425868 0.976878 0.702790 0.197921
H65   H     H_    0.338557 0.872757 0.617825 0.179463
O33   O     O_3   0.193136 0.002395 0.371278 -0.590051
C129  C     C_3   0.230217 0.033874 0.326558 -0.202161
H66   H     H_    0.293439 0.036032 0.340697 0.197903
H67   H     H_    0.236477 0.097963 0.339999 0.177359
H68   H     H_    0.185543 0.990330 0.255994 0.172671
Cl6   Cl    Cl    0.702580 0.689524 0.831487 -0.638533
Cl7   Cl    Cl    0.904291 0.770381 0.724919 -0.587994
Cl8   Cl    Cl    0.553025 0.352417 0.764075 -0.580451
O34   O     O_3   0.737661 0.499012 0.895529 -0.526550
C130  C     C_3   0.784458 0.581593 0.969161 -0.216457
H69   H     H_    0.766341 0.577314 0.018757 0.221304
H70   H     H_    0.769715 0.629212 0.954806 0.168960
H71   H     H_    0.854428 0.603856 0.997401 0.133613
O35   O     O_3   0.749313 0.474826 0.595980 -0.579071
C131  C     C_3   0.782171 0.552677 0.594486 -0.089315
H72   H     H_    0.850979 0.595508 0.643919 0.228938
H73   H     H_    0.745982 0.587539 0.604858 0.130436
H74   H     H_    0.776879 0.537800 0.529997 0.195661
Cl9   Cl    Cl    0.077237 0.439919 0.640267 -0.651643
Cl10  Cl    Cl    0.978777 0.659533 0.604165 -0.563646
O36   O     O_3   0.132531 0.788188 0.616249 -0.501011
C132  C     C_3   0.141692 0.867185 0.670313 -0.188588
H75   H     H_    0.201366 0.900215 0.733465 0.174438
H76   H     H_    0.086564 0.856796 0.683371 0.199281
H77   H     H_    0.148542 0.910733 0.642109 0.154317
Cl11  Cl    Cl    0.161310 0.823500 0.482380 -0.677329
O37   O     O_3   0.969614 0.591733 0.247903 -0.550694
C133  C     C_3   0.048202 0.594039 0.290192 -0.181672
H78   H     H_    0.082199 0.639453 0.360823 0.170271
H79   H     H_    0.091172 0.610908 0.262626 0.124444
H80   H     H_    0.033822 0.529069 0.281684 0.233216
Cl12  Cl    Cl    0.214176 0.837645 0.242820 -0.642508
O38   O     O_3   0.103584 0.798540 0.937379 -0.546820
C134  C     C_3   0.120289 0.877311 0.938168 -0.209462
H81   H     H_    0.178241 0.932702 0.999943 0.122302
H82   H     H_    0.063458 0.887401 0.927186 0.176977
H83   H     H_    0.133654 0.875467 0.884428 0.212330
Cl13  Cl    Cl    0.913787 0.719370 0.882668 -0.612805
Cl14  Cl    Cl    0.902659 0.926720 0.677013 -0.633838
O39   O     O_3   0.168541 0.494335 0.853692 -0.574543
C135  C     C_3   0.196456 0.583737 0.894409 -0.217457
H84   H     H_    0.254588 0.619592 0.891567 0.140089
H85   H     H_    0.208269 0.610379 0.962374 0.152923
H86   H     H_    0.145093 0.594457 0.858905 0.191826
Cl15  Cl    Cl    0.615849 0.576508 0.325172 -0.648234
O40   O     O_3   0.555760 0.781312 0.207816 -0.557080
C136  C     C_3   0.509576 0.749920 0.117904 -0.284673
H87   H     H_    0.447028 0.748988 0.102295 0.195793
H88   H     H_    0.494835 0.682665 0.078907 0.140472
H89   H     H_    0.545158 0.793946 0.099564 0.162676

loop_
_geom_bond_atom_site_label_1
_geom_bond_atom_site_label_2
_geom_bond_distance
_ccdc_geom_bond_type
C65   C70   1.402030 A    
C29   C34   1.389689 A    
C62   Cl8   1.758701 S    
C123  H48   1.108809 S    
C41   C42   1.404505 A    
C49   C50   1.402598 A    
Cu6   O24   1.977174 S    
C63   H21   1.082630 S    
C135  H84   1.110803 S    
C136  H88   1.113217 S    
O11   C78   1.299865 A    
C86   Cl11  1.755943 S    
C59   C60   1.397957 A    
C20   C21   1.399091 A    
C125  H54   1.113443 S    
Cu3   O13   1.969703 S    
C72   C73   1.396916 A    
C66   C67   1.407344 A    
C60   C61   1.413811 A    
C38   O29   1.381507 S    
O30   C126  1.411927 S    
O37   C133  1.410060 S    
C79   C110  1.455010 S    
C51   C52   1.413458 A    
O12   C78   1.291084 A    
C42   C43   1.409012 A    
Cu1   O7    1.983129 S    
C123  H49   1.113738 S    
C36   Cl2   1.762364 S    
C35   Cl1   1.765605 S    
C13   C14   1.396087 A    
C20   O25   1.392010 S    
C99   O38   1.380457 S    
C39   C40   1.398558 A    
C15   C16   1.431105 A    
C6    C7    1.412351 A    
C126  H59   1.108379 S    
C125  H55   1.113925 S    
C100  C101  1.394017 A    
C89   H27   1.082727 S    
C17   H4    1.083247 S    
C1    C33   1.464891 S    
O16   C80   1.304739 A    
C48   C80   1.461463 S    
C5    H2    1.082712 S    
C73   C74   1.394565 A    
O26   C122  1.412558 S    
C8    Cl7   1.758614 S    
C88   H26   1.082446 S    
C67   C68   1.400608 A    
C115  H37   1.079132 S    
C90   Cl10  1.750470 S    
C65   O34   1.387811 S    
C134  H82   1.113611 S    
C46   Cl3   1.754816 S    
C35   C36   1.408133 A    
C17   C22   1.399334 A    
C119  C120  1.402465 A    
O36   C132  1.410256 S    
Cu3   O15   1.979540 S    
C4    C51   1.464041 S    
C45   C46   1.399803 A    
C127  H60   1.112572 S    
O5    C3    1.290663 A    
Cu3   Cu4   2.696876 S    
O32   C128  1.416200 S    
O14   C79   1.293340 A    
C47   C52   1.393480 A    
O1    Cu1   1.979045 S    
C129  H66   1.115064 S    
O20   C82   1.290812 A    
C86   C87   1.409211 A    
C9    C10   1.392509 A    
C2    C15   1.476596 S    
C107  H34   1.082418 S    
C56   H18   1.081579 S    
Cu5   Cu6   2.700024 S    
C112  C113  1.403332 A    
H19   C64   1.082246 S    
C21   H6    1.073807 S    
C94   H28   1.084775 S    
C122  H45   1.104390 S    
C128  H63   1.116072 S    
C130  H69   1.109058 S    
C77   C95   1.451732 S    
C97   Cl12  1.760386 S    
C135  H85   1.114569 S    
Cu2   O8    1.978469 S    
O19   Cu5   1.977174 S    
Cu4   O14   1.970747 S    
H1    C10   1.082394 S    
C121  H44   1.105166 S    
C106  C107  1.393121 A    
C105  C114  1.486225 S    
C59   C64   1.392430 A    
C38   C39   1.399309 A    
C83   C92   1.462540 S    
C109  H35   1.085525 S    
O38   C134  1.409480 S    
C136  H89   1.111101 S    
C26   O27   1.390682 S    
C103  C104  1.419320 A    
C74   C75   1.396991 A    
C134  H83   1.109494 S    
C71   C76   1.403696 A    
C71   H22   1.082343 S    
C31   C40   1.481802 S    
C91   C96   1.400201 A    
C61   C70   1.493236 S    
C68   O35   1.387192 S    
C18   O40   1.394612 S    
C85   C90   1.401438 A    
O9    C77   1.291401 A    
C72   H23   1.082573 S    
C89   C90   1.397200 A    
C32   C33   1.400888 A    
C54   C55   1.412389 A    
C130  H70   1.111850 S    
C27   C28   1.393038 A    
C97   C102  1.412378 A    
C85   C86   1.403422 A    
C63   C64   1.394213 A    
C43   C52   1.474734 S    
C123  H50   1.106067 S    
C129  H67   1.106760 S    
O22   C83   1.304256 A    
O27   C123  1.412283 S    
C50   O31   1.389257 S    
C31   C32   1.397655 A    
C106  H33   1.081534 S    
Cu1   Cu2   2.685327 S    
C43   C44   1.402140 A    
C11   C12   1.399645 A    
C47   C48   1.392948 A    
C85   O36   1.381457 S    
C125  H56   1.109522 S    
C12   C13   1.405923 A    
C61   C62   1.415317 A    
C53   C54   1.394475 A    
C23   H8    1.081119 S    
O29   C125  1.409857 S    
C133  H78   1.107534 S    
C111  C120  1.479517 S    
C109  C114  1.392840 A    
C30   C31   1.416781 A    
O35   C131  1.409106 S    
C57   C58   1.406651 A    
C23   C28   1.392253 A    
C55   C56   1.404462 A    
C87   C96   1.487166 S    
C53   H17   1.083862 S    
C93   C102  1.483384 S    
C39   H12   1.079991 S    
O1    C1    1.290932 A    
Cu1   O5    1.977911 S    
O23   C84   1.299191 A    
C132  H76   1.113788 S    
C116  H38   1.082369 S    
C24   O26   1.381346 S    
O21   C83   1.294544 A    
C126  H57   1.113721 S    
H31   C108  1.081244 S    
C6    Cl4   1.748128 S    
O4    Cu2   1.983127 S    
C116  C117  1.395214 A    
O24   C84   1.296154 A    
C128  H65   1.106471 S    
C49   C58   1.475369 S    
C23   C24   1.402385 A    
C68   C69   1.412446 A    
C129  H68   1.107353 S    
C133  H79   1.112842 S    
O17   Cu5   1.972718 S    
Cu5   O23   1.979928 S    
O11   Cu3   1.982264 S    
C65   C66   1.406063 A    
C8    C9    1.400727 A    
C122  H47   1.108142 S    
C121  H43   1.110985 S    
O28   C124  1.410136 S    
O40   C136  1.410289 S    
O31   C127  1.408880 S    
C81   C113  1.456206 S    
O10   Cu4   1.969703 S    
C50   C51   1.410591 A    
C44   H14   1.083329 S    
C71   C72   1.396930 A    
C29   C30   1.386972 A    
C128  H64   1.109254 S    
C104  O39   1.394372 S    
C41   C46   1.397284 A    
C109  C110  1.393886 A    
C112  H36   1.084657 S    
Cu5   O21   1.967768 S    
O3    C2    1.295502 A    
C111  C112  1.393352 A    
C127  H61   1.108922 S    
O8    C4    1.297256 A    
C3    C69   1.468484 S    
C121  H42   1.114242 S    
C5    C10   1.391050 A    
C124  H52   1.113949 S    
C60   Cl6   1.755568 S    
C25   C26   1.424753 A    
C99   C100  1.402751 A    
C35   C40   1.409538 A    
C103  C108  1.393979 A    
O20   Cu6   1.979927 S    
C117  C118  1.397832 A    
C24   C25   1.410198 A    
C74   H24   1.077489 S    
O18   C81   1.303679 A    
C7    C16   1.493684 S    
C48   C49   1.411514 A    
C105  C106  1.404245 A    
C32   H11   1.084872 S    
H7    C28   1.082501 S    
O10   C77   1.302177 A    
C37   O28   1.382428 S    
C25   C34   1.478523 S    
C119  H41   1.079040 S    
C88   C89   1.396386 A    
C55   O32   1.387448 S    
C33   C34   1.417881 A    
C103  H32   1.079491 S    
O17   C81   1.294882 A    
C67   C76   1.479159 S    
C56   C57   1.403116 A    
C134  H81   1.113364 S    
C100  Cl13  1.749883 S    
C73   Cl9   1.748448 S    
C5    C6    1.397571 A    
O2    Cu2   1.977909 S    
C26   C27   1.399060 A    
O18   Cu6   1.967771 S    
O34   C130  1.405817 S    
C47   H16   1.085437 S    
C131  H74   1.109119 S    
O6    C3    1.304187 A    
C12   C78   1.451241 S    
C14   Cl15  1.774511 S    
C42   O30   1.383764 S    
C62   C63   1.398794 A    
Cu4   O16   1.982363 S    
C131  H72   1.102674 S    
C124  H53   1.109164 S    
C117  H39   1.080530 S    
C93   C94   1.387207 A    
O12   Cu4   1.979422 S    
C13   C22   1.486619 S    
C18   C19   1.416863 A    
C136  H87   1.109253 S    
C7    C8    1.415814 A    
C75   C76   1.401959 A    
O2    C1    1.303021 A    
C37   C38   1.409041 A    
C118  H40   1.081528 S    
C126  H58   1.111488 S    
C110  C111  1.410695 A    
C92   C93   1.417731 A    
O25   C121  1.411556 S    
C21   C22   1.397443 A    
C17   C18   1.397546 A    
O39   C135  1.414556 S    
C115  C120  1.404639 A    
C36   C37   1.405901 A    
O4    C2    1.303501 A    
C104  C105  1.415555 A    
C107  C108  1.390449 A    
O15   C80   1.293181 A    
C133  H80   1.107405 S    
C29   H10   1.086176 S    
C98   C99   1.401403 A    
C69   C70   1.423697 A    
C19   C20   1.415847 A    
C19   H5    1.078534 S    
C132  H75   1.109170 S    
C57   O33   1.382851 S    
C91   C92   1.410899 A    
C94   C95   1.394944 A    
C91   O37   1.386559 S    
C45   H15   1.082167 S    
C101  H30   1.076777 S    
O33   C129  1.410710 S    
C118  C119  1.398633 A    
C131  H73   1.109969 S    
C30   C82   1.458216 S    
C130  H71   1.105927 S    
C41   H13   1.082742 S    
C132  H77   1.113484 S    
C27   H9    1.078367 S    
O19   C82   1.308448 A    
C11   C16   1.404956 A    
C127  H62   1.107051 S    
C98   H29   1.082842 S    
C59   H20   1.082703 S    
O3    Cu1   1.978467 S    
Cu2   O6    1.979047 S    
C124  H51   1.111918 S    
C54   Cl5   1.759959 S    
C135  H86   1.103841 S    
C75   H25   1.083071 S    
C97   C98   1.400727 A    
Cu6   O22   1.972620 S    
C113  C114  1.417883 A    
O9    Cu3   1.970650 S    
C87   C88   1.403790 A    
C122  H46   1.116650 S    
C44   C45   1.397520 A    
C95   C96   1.416370 A    
C9    H3    1.080448 S    
O7    C4    1.294902 A    
C66   C84   1.455719 S    
C53   C58   1.401457 A    
O13   C79   1.301007 A    
C115  C116  1.396530 A    
C101  C102  1.398394 A    
C14   C15   1.416857 A    
C11   Cl14  1.784219 S    
