data_mof_unit_3184.cif
_audit_creation_date              2012-12-10T19:42:53-0500
_audit_creation_method            fapswitch 2.2
_symmetry_space_group_name_H-M    P1
_symmetry_Int_Tables_number       1
_space_group_crystal_system       triclinic
_cell_length_a                    10.829658
_cell_length_b                    12.997648
_cell_length_c                    11.652237
_cell_angle_alpha                 99.84748
_cell_angle_beta                  93.876209
_cell_angle_gamma                 90.513903
_cell_volume                      1611.95601669

loop_
_atom_site_label
_atom_site_type_symbol
_atom_type_description
_atom_site_fract_x
_atom_site_fract_y
_atom_site_fract_z
_atom_type_partial_charge
C1    C     C_R   0.498314 0.299016 0.478612 0.801493
C2    C     C_R   0.501676 0.700984 0.521387 0.801528
C3    C     C_R   0.871677 0.494355 0.499836 -0.081471
C4    C     C_R   0.128325 0.505638 0.500164 -0.081460
C5    C     C_R   0.945296 0.462732 0.592129 0.001167
C6    C     C_R   0.054706 0.537262 0.407872 0.001136
C7    C     C_R   0.501767 0.814366 0.533797 -0.051227
C8    C     C_R   0.498198 0.185633 0.466202 -0.051224
C9    C     C_R   0.502410 0.015188 0.344477 -0.224744
C10   C     C_R   0.497536 0.984812 0.655522 -0.224738
C11   C     C_R   0.500778 0.123296 0.355426 -0.198671
C12   C     C_R   0.499185 0.876704 0.644573 -0.198677
C13   C     C_R   0.496317 0.139232 0.565975 -0.284774
C14   C     C_R   0.503625 0.860767 0.434024 -0.284768
C15   C     C_R   0.498403 0.031248 0.555810 0.179692
C16   C     C_R   0.501538 0.968751 0.444189 0.179676
C17   C     C_R   0.385099 0.400153 0.021204 -0.353868
C18   C     C_R   0.614898 0.599849 0.978796 -0.353825
C19   C     C_R   0.395837 0.409927 0.143602 0.110631
C20   C     C_R   0.604162 0.590074 0.856398 0.110641
C21   C     C_R   0.549163 0.543509 0.157437 0.020653
C22   C     C_R   0.450836 0.456491 0.842563 0.020627
C23   C     C_R   0.262223 0.503178 0.500318 0.795931
C24   C     C_R   0.737778 0.496820 0.499682 0.795907
C25   C     C_R   0.541600 0.536373 0.034460 0.063267
C26   C     C_R   0.458398 0.463628 0.965540 0.063268
C27   C     C_R   0.230699 0.712504 0.243829 -0.119548
C28   C     C_R   0.769192 0.287576 0.756180 -0.119500
C29   C     C_R   0.178892 0.673536 0.334884 -0.097496
C30   C     C_R   0.821010 0.326524 0.665122 -0.097345
C31   C     C_R   0.107265 0.580640 0.311442 0.127977
C32   C     C_R   0.892742 0.419367 0.688564 0.127949
C33   C     C_R   0.086513 0.528537 0.195597 -0.165107
C34   C     C_R   0.913603 0.471428 0.804416 -0.165185
C35   C     C_R   0.138754 0.567716 0.104911 -0.142365
C36   C     C_R   0.861352 0.432269 0.895104 -0.142389
C37   C     C_R   0.211192 0.659364 0.129054 -0.106925
C38   C     C_R   0.788796 0.340681 0.870958 -0.106941
C39   C     C_R   0.926896 0.530078 0.408477 -0.243085
C40   C     C_R   0.073107 0.469914 0.591522 -0.243100
Cu1   Cu    Cu3+1 0.509250 0.507730 0.615930 0.939872
Cu2   Cu    Cu3+1 0.490750 0.492270 0.384070 0.939885
H1    H     H_    0.252122 0.689215 0.058817 0.122861
H2    H     H_    0.747852 0.310847 0.941196 0.122877
H3    H     H_    0.661159 0.639179 0.814294 0.122224
H4    H     H_    0.338840 0.360822 0.185707 0.122216
H5    H     H_    0.319855 0.343549 0.970675 0.134231
H6    H     H_    0.680141 0.656454 0.029326 0.134235
H7    H     H_    0.286025 0.783870 0.262203 0.121660
H8    H     H_    0.713779 0.216254 0.737805 0.121642
H9    H     H_    0.195321 0.715070 0.423561 0.103628
H10   H     H_    0.804500 0.285019 0.576442 0.103587
H11   H     H_    0.031587 0.456854 0.175895 0.121061
H12   H     H_    0.968619 0.543065 0.824123 0.121084
H13   H     H_    0.870221 0.556043 0.338930 0.151495
H14   H     H_    0.129784 0.443950 0.661067 0.151489
H15   H     H_    0.497856 0.842017 0.722650 0.154856
H16   H     H_    0.502118 0.157984 0.277349 0.154854
H17   H     H_    0.504570 0.968053 0.258414 0.130410
H18   H     H_    0.495376 0.031947 0.741585 0.130409
N1    N     N_R   0.523180 0.519350 0.790130 -0.175871
N2    N     N_R   0.476820 0.480650 0.209870 -0.175867
O1    O     O_R   0.506570 0.354460 0.582000 -0.587223
O2    O     O_R   0.493430 0.645540 0.418000 -0.587206
O3    O     O_R   0.490940 0.341410 0.386200 -0.595313
O4    O     O_R   0.509060 0.658590 0.613800 -0.595315
O5    O     O_R   0.327460 0.506540 0.597900 -0.591986
O6    O     O_R   0.672540 0.493460 0.402100 -0.591979
O7    O     O_R   0.311830 0.493480 0.402100 -0.573203
O8    O     O_R   0.688170 0.506520 0.597900 -0.573205
H19   H     H_    0.386994 0.400876 0.788654 0.114521
H20   H     H_    0.613005 0.599124 0.211346 0.114520
H21   H     H_    0.123925 0.526588 0.016010 0.128184
H22   H     H_    0.876261 0.473367 0.984010 0.128200
H23   H     H_    0.506792 0.813062 0.348324 0.147042
H24   H     H_    0.493137 0.186936 0.651675 0.147012

loop_
_geom_bond_atom_site_label_1
_geom_bond_atom_site_label_2
_ccdc_geom_bond_type
C8    C13   A    
C27   C29   A    
C1    C8    S    
Cu1   Cu2   S    
C23   O7    A    
C2    C7    S    
Cu1   N1    S    
C19   H4    S    
C24   O8    A    
Cu1   O5    S    
C36   H22   S    
C17   C26   A    
C35   C37   A    
C9    C16   A    
C10   C15   A    
C19   N2    A    
C15   C16   A    
C23   O5    A    
C20   N1    A    
C21   C25   A    
C33   C35   A    
C28   H8    S    
C7    C14   A    
C39   H13   S    
C4    C40   A    
C40   H14   S    
Cu2   O3    S    
C1    O3    A    
C31   C33   A    
C11   H16   S    
Cu2   N2    S    
C34   C36   A    
C20   H3    S    
C5    C32   S    
C6    C31   S    
C3    C39   A    
Cu2   O6    S    
C3    C24   S    
C18   C25   A    
C1    O1    A    
C2    O2    A    
C33   H11   S    
C7    C12   A    
C21   H20   S    
C4    C6    A    
C4    C23   S    
C3    C5    A    
C25   C26   A    
Cu2   O7    S    
C9    H17   S    
C32   C34   A    
C37   H1    S    
C10   H18   S    
C38   H2    S    
C13   H24   S    
C28   C38   A    
C9    C11   A    
C21   N2    A    
C10   C12   A    
C12   H15   S    
C34   H12   S    
C13   C15   A    
C14   C16   A    
Cu1   O1    S    
Cu2   O2    S    
C22   H19   S    
C29   H9    S    
C30   H10   S    
C35   H21   S    
C17   H5    S    
C2    O4    A    
C18   H6    S    
Cu1   O4    S    
C14   H23   S    
C28   C30   A    
C29   C31   A    
C22   N1    A    
C30   C32   A    
C27   C37   A    
C8    C11   A    
C36   C38   A    
C17   C19   A    
C18   C20   A    
C24   O6    A    
C22   C26   A    
C5    C40   A    
C6    C39   A    
C27   H7    S    
Cu1   O8    S    
