data_mof_unit_374.cif
_audit_creation_date              2012-12-11T18:37:46-0500
_audit_creation_method            fapswitch 2.2
_symmetry_space_group_name_H-M    P1
_symmetry_Int_Tables_number       1
_space_group_crystal_system       triclinic
_cell_length_a                    8.21531
_cell_length_b                    14.286521
_cell_length_c                    27.02268
_cell_angle_alpha                 92.977198
_cell_angle_beta                  92.928239
_cell_angle_gamma                 88.404647
_cell_volume                      3162.17807507

loop_
_atom_site_label
_atom_site_type_symbol
_atom_type_description
_atom_site_fract_x
_atom_site_fract_y
_atom_site_fract_z
_atom_type_partial_charge
Ba1   Ba    Ba6+2 0.849670 0.455410 0.524690 1.642131
Ba2   Ba    Ba6+2 0.340150 0.544510 0.475310 1.656666
C1    C     C_3   0.664926 0.105228 0.662485 -0.364364
C2    C     C_R   0.977591 0.600094 0.179996 0.601723
C3    C     C_2   0.774418 0.567100 0.269592 -0.095964
C4    C     C_3   0.096398 0.250846 0.665813 0.333902
C5    C     C_3   0.753060 0.595131 0.323957 -0.078179
C6    C     C_1   0.981963 0.487125 0.343910 0.042205
C7    C     C_2   0.025567 0.482778 0.296951 -0.064771
C8    C     C_2   0.916166 0.522790 0.256439 0.193430
C9    C     C_R   0.051911 0.510817 0.104584 -0.077902
C10   C     C_R   0.052940 0.428690 0.131279 -0.038468
C11   C     C_R   0.107048 0.344422 0.108210 -0.070101
C12   C     C_3   0.632810 0.202312 0.642960 0.352015
C13   C     C_R   0.014687 0.597156 0.129414 -0.022620
C14   C     C_2   0.854221 0.536617 0.359287 -0.277521
C15   C     C_2   0.346293 0.473521 0.641541 -0.277025
C16   C     C_3   0.068761 0.222911 0.718258 -0.290417
C17   C     C_R   0.147543 0.415310 0.976209 0.013669
C18   C     C_R   0.130776 0.587733 0.976229 0.021553
C19   C     C_R   0.155393 0.499620 0.950666 0.054017
C20   C     C_R   0.148104 0.330007 0.947311 -0.093624
C21   C     C_R   0.182009 0.326370 0.897308 -0.054858
C22   C     C_R   0.205391 0.408524 0.872750 -0.026087
C23   C     C_3   0.534942 0.676234 0.622538 0.289635
C24   C     C_R   0.185823 0.495525 0.898770 -0.080395
C25   C     C_R   0.196258 0.578173 0.872877 -0.037054
C26   C     C_R   0.227079 0.572573 0.821504 0.598228
C27   C     C_R   0.243460 0.404994 0.822296 0.577753
C28   C     C_3   0.164085 0.257623 0.423632 0.314949
C29   C     C_2   0.420753 0.430902 0.728863 -0.084349
C30   C     C_3   0.436576 0.405830 0.674426 -0.047881
C31   C     C_1   0.214552 0.518965 0.657093 0.027655
C32   C     C_2   0.176542 0.524273 0.704780 -0.101185
C33   C     C_2   0.287878 0.480502 0.744002 0.205576
C34   C     C_3   0.536359 0.698220 0.678215 -0.353194
C35   C     C_R   0.129501 0.419088 0.028869 -0.003797
C36   C     C_R   0.090159 0.506885 0.053316 0.051783
C37   C     C_R   0.090939 0.591150 0.027266 0.023105
C38   C     C_R   0.153041 0.339785 0.058957 -0.057287
C39   C     C_R   0.015441 0.679247 0.103303 -0.048514
C40   C     C_3   0.170318 0.152031 0.412848 -0.379599
C41   C     C_R   0.144892 0.669524 0.949333 -0.097465
C42   C     C_R   0.176447 0.664671 0.898980 -0.057621
C43   C     C_R   0.051442 0.676426 0.053472 -0.096585
C44   C     C_R   0.689788 0.065075 0.473379 -0.035498
C45   C     C_3   0.005599 0.811374 0.337233 0.285954
C46   C     C_R   0.511585 0.198577 0.502133 0.046316
C47   C     C_R   0.376461 0.230150 0.528112 -0.300347
C48   C     C_R   0.277383 0.167065 0.549003 0.015951
C49   C     C_R   0.322104 0.072332 0.548893 -0.143340
C50   C     C_R   0.462644 0.039529 0.525273 -0.008138
C51   C     C_R   0.556107 0.101791 0.499904 -0.028155
C52   C     C_3   0.032308 0.742148 0.574804 0.309244
C53   C     C_R   0.641347 0.908356 0.499839 -0.021681
C54   C     C_R   0.734992 0.969668 0.474027 0.006786
C55   C     C_R   0.685078 0.812225 0.498948 0.027607
C56   C     C_3   0.038264 0.835240 0.284598 -0.297114
C57   C     C_R   0.817161 0.778171 0.472430 -0.276595
C58   C     C_R   0.917701 0.839083 0.450639 -0.012944
C59   C     C_R   0.875553 0.934873 0.450474 -0.144951
C60   C     C_R   0.506846 0.944540 0.525562 -0.042862
C61   C     C_3   0.031528 0.847997 0.584860 -0.380189
C62   C     C_3   0.657435 0.340772 0.379835 0.279261
C63   C     C_3   0.655072 0.319101 0.323869 -0.278145
C64   C     C_1   0.489368 0.298722 0.304047 0.349802
C65   C     C_1   0.246108 0.256591 0.044066 0.259309
C66   C     C_1   0.654672 0.598970 0.232567 0.348084
C67   C     C_3   0.533784 0.793222 0.349232 0.424689
C68   C     C_3   0.505516 0.882927 0.321771 -0.348852
C69   C     C_R   0.006347 0.433070 0.181265 0.601143
H1    H     H_    0.674386 0.201526 0.604431 0.073145
H2    H     H_    0.782824 0.358285 0.393004 0.005274
H3    H     H_    0.575045 0.402121 0.387590 0.073429
H4    H     H_    0.795266 0.084287 0.659698 0.147825
H5    H     H_    0.698796 0.380104 0.305098 0.032985
H6    H     H_    0.737051 0.257818 0.315487 0.109260
H7    H     H_    0.498878 0.216278 0.642573 -0.060389
H8    H     H_    0.590212 0.053324 0.640080 0.074196
H9    H     H_    0.408778 0.659796 0.609120 0.016419
H10   H     H_    0.616802 0.614258 0.615607 0.071204
H11   H     H_    0.450942 0.757917 0.686566 0.136156
H12   H     H_    0.258703 0.133673 0.383906 0.131623
H13   H     H_    0.498118 0.636160 0.697329 0.078099
H14   H     H_    0.661239 0.716647 0.692436 0.131572
H15   H     H_    0.631817 0.104717 0.701801 0.124057
H16   H     H_    0.046801 0.286787 0.742258 0.128147
H17   H     H_    0.958520 0.739231 0.336375 0.017268
H18   H     H_    0.913036 0.863006 0.351215 -0.017686
H19   H     H_    0.131670 0.785804 0.269157 0.178891
H20   H     H_    0.923684 0.830362 0.261084 0.118156
H21   H     H_    0.082674 0.907911 0.284330 0.096176
H22   H     H_    0.667704 0.780220 0.352830 -0.147836
H23   H     H_    0.208461 0.115479 0.446860 0.063510
H24   H     H_    0.486651 0.803968 0.386979 0.079344
H25   H     H_    0.570187 0.941280 0.342400 0.060694
H26   H     H_    0.373664 0.901493 0.318538 0.145171
H27   H     H_    0.021887 0.315350 0.658759 0.095449
H28   H     H_    0.553183 0.873584 0.284055 0.117633
H29   H     H_    0.141622 0.450375 0.287467 0.132447
H30   H     H_    0.121429 0.282108 0.129503 0.128533
H31   H     H_    0.504740 0.398653 0.755665 0.109516
H32   H     H_    0.185722 0.258447 0.877532 0.123084
H33   H     H_    0.115281 0.264833 0.961947 0.087070
H34   H     H_    0.047762 0.127719 0.399550 0.115653
H35   H     H_    0.986196 0.746746 0.121299 0.122568
H36   H     H_    0.134072 0.739198 0.966182 0.073787
H37   H     H_    0.227314 0.265564 0.663060 -0.050896
H38   H     H_    0.185401 0.729680 0.880468 0.123843
H39   H     H_    0.065296 0.560725 0.715670 0.114911
H40   H     H_    0.044765 0.742925 0.036416 0.073016
H41   H     H_    0.838915 0.551106 0.398620 0.080011
H42   H     H_    0.379718 0.474919 0.603253 0.077444
H43   H     H_    0.341255 0.303749 0.528924 0.071439
H44   H     H_    0.245299 0.024234 0.566094 0.075576
H45   H     H_    0.908233 0.719751 0.563501 -0.002813
H46   H     H_    0.953240 0.981823 0.432876 0.065077
H47   H     H_    0.849493 0.704184 0.472087 0.059774
H48   H     H_    0.760956 0.109488 0.452195 0.099554
H49   H     H_    0.959997 0.178901 0.719047 0.140913
H50   H     H_    0.433639 0.899536 0.545844 0.094941
H51   H     H_    0.176436 0.182704 0.733136 0.125185
H52   H     H_    0.288281 0.281717 0.433814 0.000704
H53   H     H_    0.083410 0.273649 0.454836 0.063463
H54   H     H_    0.115534 0.723684 0.544612 0.073497
H55   H     H_    0.940520 0.869001 0.612633 0.131018
H56   H     H_    0.000229 0.884388 0.550328 0.067191
H57   H     H_    0.154202 0.870213 0.599315 0.118146
N1    N     N_R   0.966094 0.518234 0.204978 -0.426936
N2    N     N_R   0.250987 0.486397 0.796604 -0.422771
N3    N     N_1   0.358782 0.282643 0.288431 -0.254155
N4    N     N_1   0.321165 0.189956 0.032503 -0.280439
N5    N     N_1   0.558731 0.624384 0.203044 -0.277239
O1    O     O_2   0.918080 0.549800 0.616640 -0.458428
O2    O     O_2   0.255315 0.833726 0.458326 -0.488063
O3    O     O_3   0.151120 0.816968 0.366531 -0.578341
O4    O     O_3   0.150070 0.549720 0.556460 -0.495890
O5    O     O_3   0.546340 0.387390 0.478340 -0.486380
O6    O     O_2   0.398940 0.728800 0.517420 -0.464995
O7    O     O_3   0.588482 0.754419 0.599227 -0.645949
O8    O     O_2   0.424758 0.536196 0.322406 -0.488198
O9    O     O_3   0.452309 0.718882 0.323079 -0.565668
O10   O     O_2   0.000461 0.360930 0.203436 -0.585524
O11   O     O_2   0.270750 0.328881 0.801306 -0.624665
O12   O     O_3   0.609153 0.261627 0.403322 -0.646195
O13   O     O_2   0.956059 0.675973 0.201921 -0.620266
O14   O     O_2   0.235426 0.644488 0.799283 -0.594218
O15   O     O_3   0.658250 0.379560 0.591530 -0.480594
O16   O     O_2   0.774404 0.451136 0.678940 -0.495339
O17   O     O_3   0.083443 0.699662 0.618469 -0.626777
O18   O     O_3   0.718228 0.269669 0.673317 -0.599858
O19   O     O_2   0.790750 0.271170 0.482550 -0.468162
O20   O     O_3   0.062300 0.331660 0.568480 -0.494462
O21   O     O_2   0.941016 0.164884 0.540206 -0.485942
O22   O     O_3   0.049629 0.177364 0.632146 -0.604483
O23   O     O_2   0.271610 0.450170 0.383330 -0.457309
O24   O     O_3   0.039630 0.450200 0.443530 -0.500922
O25   O     O_3   0.531440 0.620360 0.408460 -0.474625
O26   O     O_3   0.104495 0.300444 0.380828 -0.618408
O27   O     O_3   0.643350 0.612530 0.521650 -0.476303
O28   O     O_3   0.127390 0.668260 0.431510 -0.465390
P1    P     P_3+3 0.090020 0.577590 0.608380 0.990040
P2    P     P_3+3 0.614340 0.285150 0.467650 0.971993
P3    P     P_3+3 0.082182 0.209950 0.572074 0.941519
P4    P     P_3+3 0.099670 0.422330 0.391610 1.000236
P5    P     P_3+3 0.110983 0.790557 0.427069 0.959476
P6    P     P_3+3 0.649034 0.380525 0.655722 0.943873
P7    P     P_3+3 0.583139 0.728757 0.535137 0.935890
P8    P     P_3+3 0.539105 0.613978 0.343892 0.976946

loop_
_geom_bond_atom_site_label_1
_geom_bond_atom_site_label_2
_ccdc_geom_bond_type
O7    P7    S    
C53   C54   A    
O19   P2    D    
C62   O12   S    
C23   H9    S    
C46   P2    S    
C65   N4    T    
O16   P6    D    
C4    H37   S    
C19   C24   A    
C1    H8    S    
C15   H42   S    
C52   O17   S    
C55   P7    S    
C68   H28   S    
C10   C11   A    
C24   C25   A    
C63   H5    S    
O6    P7    D    
Ba2   O6    S    
C4    H27   S    
O21   P3    D    
C66   N5    T    
C17   C19   A    
C22   C24   A    
C32   C33   S    
C35   C38   A    
C67   H22   S    
C36   C37   A    
C45   O3    S    
C55   C57   A    
C52   C61   S    
C53   C60   A    
C20   H33   S    
Ba1   O19   S    
Ba1   Ba2   S    
C22   C27   A    
C11   C38   A    
C17   C35   A    
C9    C13   A    
C25   C42   A    
C21   H32   S    
C29   C30   S    
C34   H11   S    
C6    C7    D    
C38   C65   S    
C52   H45   S    
C12   O18   S    
C62   H2    S    
O5    P2    S    
C1    H4    S    
C56   H20   S    
C61   H57   S    
C68   H26   S    
Ba2   O25   S    
C37   C43   A    
C42   H38   S    
C12   H7    S    
C47   H43   S    
C57   C58   A    
C6    C14   D    
C1    H15   S    
C23   H10   S    
C45   H18   S    
C46   C51   A    
C15   C31   D    
C3    C66   S    
O17   P1    S    
Ba2   O28   S    
C48   C49   A    
C28   O26   S    
C4    C16   S    
C52   H54   S    
C63   H6    S    
C39   H35   S    
O20   P3    S    
C59   H46   S    
C49   C50   A    
Ba2   O5    S    
C29   H31   S    
C17   C20   A    
C13   C39   A    
O24   P4    S    
C3    C5    S    
C18   C37   A    
O12   P2    S    
C67   O9    S    
C27   O11   D    
C48   P3    S    
C49   H44   S    
O1    P1    D    
C58   C59   A    
C9    C36   A    
C68   H25   S    
C41   C42   A    
C35   C36   A    
C69   N1    Am   
C27   N2    Am   
C33   N2    S    
C21   C22   A    
C2    O13   D    
C23   O7    S    
O8    P8    D    
C31   C32   D    
C54   C59   A    
C41   H36   S    
C18   C19   A    
Ba1   O20   S    
C56   H19   S    
Ba2   P4    S    
C1    C12   S    
C16   H51   S    
O9    P8    S    
C46   C47   A    
C10   C69   A    
C28   H53   S    
Ba1   P1    S    
C47   C48   A    
C7    H29   S    
C5    P8    S    
O22   P3    S    
C29   C33   D    
C11   H30   S    
Ba1   O1    S    
C16   H49   S    
C18   C41   A    
Ba1   O4    S    
C50   C51   A    
C14   H41   S    
C69   O10   D    
C64   N3    T    
C7    C8    S    
C15   C30   S    
C5    C14   S    
C26   O14   D    
Ba2   O23   S    
C23   C34   S    
C40   H23   S    
Ba2   O4    S    
C12   H1    S    
Ba1   O27   S    
C40   H12   S    
C4    O22   S    
C67   H24   S    
C9    C10   A    
C43   H40   S    
O25   P8    S    
C62   H3    S    
C2    N1    Am   
C34   H14   S    
C57   H47   S    
C16   H16   S    
C62   C63   S    
C2    C13   A    
C53   C55   A    
C31   P1    S    
C8    N1    S    
C3    C8    D    
C50   C60   A    
C45   H17   S    
C45   C56   S    
O4    P1    S    
O3    P5    S    
O23   P4    D    
C34   H13   S    
Ba2   O24   S    
O18   P6    S    
C44   C51   A    
Ba1   O24   S    
O2    P5    D    
C44   H48   S    
C26   N2    Am   
O27   P7    S    
C67   C68   S    
C40   H34   S    
C58   P5    S    
C61   H55   S    
C6    P4    S    
O28   P5    S    
O26   P4    S    
C28   H52   S    
Ba1   P2    S    
Ba2   O27   S    
C63   C64   S    
C30   P6    S    
C44   C54   A    
C25   C26   A    
O15   P6    S    
C39   C43   A    
C20   C21   A    
C28   C40   S    
Ba1   O15   S    
C32   H39   S    
C56   H21   S    
C60   H50   S    
C61   H56   S    
Ba1   O5    S    
