data_mof_unit_510.cif
_audit_creation_date              2012-12-10T17:23:09-0500
_audit_creation_method            fapswitch 2.2
_symmetry_space_group_name_H-M    P1
_symmetry_Int_Tables_number       1
_space_group_crystal_system       triclinic
_cell_length_a                    15.862882
_cell_length_b                    10.741987
_cell_length_c                    9.676931
_cell_angle_alpha                 90.573416
_cell_angle_beta                  87.515795
_cell_angle_gamma                 91.128501
_cell_volume                      1646.99977199

loop_
_atom_site_label
_atom_site_type_symbol
_atom_type_description
_atom_site_fract_x
_atom_site_fract_y
_atom_site_fract_z
_atom_type_partial_charge
C1    C     C_R   0.499002 0.263126 0.499570 0.778442
C2    C     C_3   0.083604 0.486243 0.515788 -0.256506
C3    C     C_3   0.973804 0.601340 0.501919 0.048521
C4    C     C_3   0.915848 0.484160 0.500660 -0.176757
C5    C     C_3   0.035099 0.539837 0.395081 0.483724
C6    C     C_3   0.978275 0.421802 0.396488 0.094090
C7    C     C_1   0.175074 0.489960 0.515270 0.189033
C8    C     C_1   0.824517 0.486698 0.494538 0.030654
C9    C     C_R   0.347830 0.124851 0.588372 -0.207821
C10   C     C_R   0.275793 0.057213 0.632008 -0.166805
C11   C     C_R   0.276761 0.927706 0.632898 0.674658
C12   C     C_R   0.340209 0.498646 0.502796 0.771928
C13   C     C_R   0.349735 0.865304 0.589890 -0.229208
C14   C     C_R   0.423763 0.932112 0.545941 -0.041719
C15   C     C_R   0.422583 0.063261 0.545242 0.081321
C16   C     C_R   0.495860 0.129260 0.499119 -0.096740
C17   C     C_R   0.568884 0.068153 0.454725 -0.230781
C18   C     C_R   0.571858 0.938383 0.455857 0.279551
C19   C     C_R   0.498571 0.871197 0.501100 -0.091987
C20   C     C_R   0.655628 0.499713 0.105296 0.285866
C21   C     C_R   0.723072 0.570213 0.043386 0.086246
C22   C     C_R   0.707081 0.647701 0.931938 0.052872
C23   C     C_R   0.500604 0.736971 0.500405 0.807009
C24   C     C_R   0.630486 0.632835 0.866174 0.607660
C25   C     C_R   0.566153 0.553839 0.924274 -0.109880
C26   C     C_R   0.572811 0.524901 0.065960 -0.093608
C27   C     C_R   0.432023 0.458970 0.077224 0.616932
C28   C     C_R   0.434141 0.452404 0.929774 0.614454
C29   C     C_R   0.659765 0.498120 0.497617 0.827461
C30   C     C_3   0.964878 0.431127 0.620010 0.087965
C31   C     C_3   0.026730 0.367536 0.515792 0.535398
C32   C     C_1   0.250591 0.494160 0.510132 -0.059865
C33   C     C_1   0.749207 0.491549 0.493374 -0.198415
C34   C     C_3   0.022035 0.548882 0.622541 0.527783
Cu1   Cu    Cu3+1 0.499990 0.499990 0.640660 1.056738
Cu2   Cu    Cu3+1 0.500010 0.500010 0.359340 1.025732
H1    H     H_    0.347359 0.764684 0.591036 0.152695
H2    H     H_    0.623413 0.123614 0.420452 0.146228
H3    H     H_    0.344216 0.225307 0.587977 0.176826
H4    H     H_    0.218987 0.105553 0.664755 0.200154
N1    N     N_R   0.500800 0.501210 0.147910 -0.245261
N2    N     N_R   0.500830 0.501290 0.852040 -0.249281
O1    O     O_R   0.499990 0.319640 0.618810 -0.561968
O2    O     O_R   0.500000 0.319660 0.381240 -0.546622
O3    O     O_R   0.379070 0.499980 0.618770 -0.528099
O4    O     O_R   0.379080 0.500000 0.381190 -0.499540
O5    O     O_R   0.500000 0.680340 0.618760 -0.491852
O6    O     O_R   0.500010 0.680360 0.381190 -0.601030
O7    O     O_R   0.620920 0.500000 0.618810 -0.548162
O8    O     O_R   0.620930 0.500020 0.381230 -0.566508
F1    F     F_    0.054198 0.246662 0.525629 -0.653066
F2    F     F_    0.206654 0.862077 0.675366 -0.638440
N3    N     N_2   0.647592 0.873567 0.416004 -0.421375
H5    H     H_    0.640127 0.796828 0.352628 0.254060
C35   C     C_3   0.726337 0.941795 0.391205 -0.671162
H6    H     H_    0.778625 0.875269 0.376602 0.217690
H7    H     H_    0.740154 0.002181 0.481625 0.248354
H8    H     H_    0.723606 0.998253 0.296030 0.219167
F3    F     F_    0.363176 0.410714 0.146398 -0.600915
N4    N     N_2   0.673070 0.385103 0.171615 -0.375732
H9    H     H_    0.733570 0.377440 0.205091 0.268437
C36   C     C_3   0.643674 0.272882 0.103302 -0.654968
H10   H     H_    0.660718 0.190319 0.163515 0.214379
H11   H     H_    0.673654 0.265577 0.997656 0.213712
H12   H     H_    0.573987 0.272241 0.096888 0.242530
N5    N     N_2   0.806634 0.557492 0.087606 -0.436079
H13   H     H_    0.850756 0.545716 0.007416 0.281436
C37   C     C_3   0.832364 0.652463 0.184305 -0.635251
H14   H     H_    0.895831 0.630536 0.219793 0.254127
H15   H     H_    0.787050 0.655892 0.274802 0.217839
H16   H     H_    0.835979 0.745168 0.134420 0.253824
N6    N     N_2   0.766627 0.741837 0.889017 -0.415905
H17   H     H_    0.740056 0.828465 0.883965 0.278360
C38   C     C_3   0.817198 0.713347 0.765577 -0.524782
H18   H     H_    0.777189 0.707012 0.674326 0.243876
H19   H     H_    0.850630 0.624972 0.777661 0.224829
H20   H     H_    0.865243 0.788637 0.747769 0.253237
F4    F     F_    0.618213 0.706860 0.757865 -0.646132
F5    F     F_    0.368056 0.398553 0.866341 -0.609191
N7    N     N_2   0.923726 0.369522 0.737509 -0.396558
H21   H     H_    0.870183 0.412938 0.775688 0.243127
C39   C     C_3   0.978571 0.332143 0.843890 -0.564980
H22   H     H_    0.941850 0.272536 0.918466 0.203829
H23   H     H_    0.003214 0.415330 0.899267 0.255196
H24   H     H_    0.031957 0.277494 0.798995 0.273523
N8    N     N_2   0.954359 0.350281 0.276532 -0.407025
H25   H     H_    0.912373 0.394784 0.216578 0.268541
C40   C     C_3   0.023710 0.295490 0.197089 -0.534926
H26   H     H_    0.998733 0.224234 0.125298 0.203277
H27   H     H_    0.067159 0.247889 0.265168 0.276430
H28   H     H_    0.059410 0.368381 0.137139 0.256424
F6    F     F_    0.071297 0.595757 0.278257 -0.625923
N9    N     N_2   0.944409 0.727905 0.497532 -0.444256
H29   H     H_    0.898693 0.741323 0.427430 0.247403
C41   C     C_3   0.009521 0.823897 0.494298 -0.473744
H30   H     H_    0.979929 0.916633 0.502798 0.220607
H31   H     H_    0.047697 0.819078 0.395522 0.256362
H32   H     H_    0.051116 0.813822 0.582597 0.304801
F7    F     F_    0.044631 0.613888 0.739739 -0.606491

loop_
_geom_bond_atom_site_label_1
_geom_bond_atom_site_label_2
_ccdc_geom_bond_type
N5    C37   S    
C35   H6    S    
N9    H29   S    
C21   N5    S    
C41   H30   S    
Cu1   Cu2   S    
C4    C8    S    
Cu1   O5    S    
C41   H32   S    
C29   O7    A    
N3    H5    S    
C38   H19   S    
C10   H4    S    
C5    C6    S    
N7    H21   S    
N8    C40   S    
C15   C16   A    
C29   C33   S    
C9    H3    S    
N4    C36   S    
C18   C19   A    
C28   F5    S    
Cu1   N2    S    
C36   H11   S    
C11   F2    S    
C18   N3    S    
C37   H14   S    
C1    O1    A    
C2    C7    S    
C16   C17   A    
C38   H20   S    
Cu1   O7    S    
Cu2   O4    S    
C7    C32   T    
C20   N4    S    
Cu1   O1    S    
C9    C10   A    
C13   H1    S    
C17   H2    S    
C30   N7    S    
C2    C34   S    
C6    C31   S    
N9    C41   S    
C21   C22   A    
C12   C32   S    
Cu2   N1    S    
C22   N6    S    
C34   F7    S    
Cu2   O6    S    
C29   O8    A    
N3    C35   S    
C23   O5    A    
C38   H18   S    
C30   C34   S    
C24   C25   A    
N6    C38   S    
N8    H25   S    
N6    H17   S    
C3    C34   S    
C25   C26   A    
N4    H9    S    
C12   O4    A    
C19   C23   S    
C36   H10   S    
C27   N1    A    
C1    O2    A    
C40   H28   S    
C17   C18   A    
C3    N9    S    
C1    C16   S    
C40   H26   S    
N7    C39   S    
C40   H27   S    
C39   H23   S    
C35   H7    S    
C22   C24   A    
Cu2   O2    S    
C4    C6    S    
C3    C4    S    
Cu1   O3    S    
Cu2   O8    S    
C24   F4    S    
C23   O6    A    
C36   H12   S    
C14   C19   A    
C31   F1    S    
C12   O3    A    
C3    C5    S    
C25   N2    A    
C41   H31   S    
C39   H24   S    
C6    N8    S    
C9    C15   A    
C27   F3    S    
C11   C13   A    
C30   C31   S    
C20   C26   A    
C37   H16   S    
C28   N2    A    
N5    H13   S    
C8    C33   T    
C5    F6    S    
C10   C11   A    
C2    C5    S    
C20   C21   A    
C37   H15   S    
C39   H22   S    
C35   H8    S    
C27   C28   A    
C14   C15   A    
C2    C31   S    
C13   C14   A    
C4    C30   S    
C26   N1    A    
