data_mof_unit_3821.cif
_audit_creation_date              2012-12-10T19:04:15-0500
_audit_creation_method            fapswitch 2.2
_symmetry_space_group_name_H-M    P1
_symmetry_Int_Tables_number       1
_space_group_crystal_system       triclinic
_cell_length_a                    10.666136
_cell_length_b                    10.825323
_cell_length_c                    9.603812
_cell_angle_alpha                 89.41271
_cell_angle_beta                  89.004259
_cell_angle_gamma                 91.363204
_cell_volume                      1108.35374807

loop_
_atom_site_label
_atom_site_type_symbol
_atom_type_description
_atom_site_fract_x
_atom_site_fract_y
_atom_site_fract_z
_atom_type_partial_charge
C1    C     C_R   0.501846 0.262407 0.500396 0.783803
C2    C     C_R   0.518331 0.934870 0.623891 0.017754
C3    C     C_3   0.432802 0.922310 0.748152 -0.480217
C4    C     C_R   0.259644 0.497120 0.500684 0.833264
C5    C     C_3   0.429729 0.062229 0.748332 0.443754
C6    C     C_R   0.558175 0.593509 0.069344 0.217480
C7    C     C_R   0.427220 0.418893 0.078618 -0.053761
C8    C     C_R   0.422309 0.421185 0.930292 0.306559
C9    C     C_R   0.552433 0.596671 0.923476 0.167977
C10   C     C_3   0.679153 0.652667 0.903757 -0.458457
C11   C     C_3   0.693366 0.638756 0.060866 -0.093198
C12   C     C_3   0.963611 0.592578 0.420735 -0.263995
C13   C     C_R   0.503171 0.737462 0.499379 0.829507
C14   C     C_R   0.740630 0.500133 0.499492 0.815011
C15   C     C_3   0.036861 0.400679 0.579709 -0.286155
C16   C     C_3   0.954666 0.389439 0.448397 -0.130227
C17   C     C_3   0.877661 0.498714 0.499902 -0.101665
C18   C     C_3   0.957149 0.509270 0.632080 -0.184478
C19   C     C_3   0.044435 0.601066 0.551829 0.633003
C20   C     C_3   0.312837 0.352161 0.868558 -0.744953
C21   C     C_3   0.791113 0.541598 0.092277 -0.766250
C22   C     C_3   0.090872 0.461606 0.222999 -0.838253
C23   C     C_3   0.042307 0.483143 0.370695 0.168191
C24   C     C_3   0.122995 0.494229 0.500790 -0.088823
C25   C     C_R   0.516848 0.062079 0.624753 0.119405
C26   C     C_R   0.514108 0.129288 0.500046 -0.167124
C27   C     C_R   0.530721 0.066293 0.373690 -0.181007
C28   C     C_R   0.531887 0.937469 0.372954 -0.201593
C29   C     C_R   0.516554 0.870761 0.498595 -0.083317
Cu1   Cu    Cu3+1 0.499990 0.499980 0.640670 0.974991
Cu2   Cu    Cu3+1 0.500010 0.500020 0.359330 0.948513
F1    F     F_    0.487103 0.112230 0.863755 -0.653043
F2    F     F_    0.093386 0.709478 0.605868 -0.680626
H1    H     H_    0.914968 0.302642 0.404793 0.147932
H2    H     H_    0.933758 0.673140 0.358168 0.148835
H3    H     H_    0.536819 0.115641 0.275031 0.190479
H4    H     H_    0.538415 0.890688 0.274010 0.165429
H5    H     H_    0.340903 0.877785 0.723478 0.196853
H6    H     H_    0.334316 0.309823 0.768576 0.258790
H7    H     H_    0.278376 0.276014 0.938754 0.198972
H8    H     H_    0.234535 0.416670 0.854981 0.210040
H9    H     H_    0.822434 0.550875 0.199615 0.255449
H10   H     H_    0.754394 0.446179 0.074714 0.247720
H11   H     H_    0.875806 0.558291 0.025119 0.216630
H12   H     H_    0.480441 0.882422 0.839681 0.215889
H13   H     H_    0.012416 0.436363 0.154454 0.225951
H14   H     H_    0.140301 0.546042 0.181933 0.248181
H15   H     H_    0.155850 0.383191 0.223247 0.231602
H16   H     H_    0.335906 0.099472 0.726168 0.053292
H17   H     H_    0.368868 0.354068 0.138588 0.144213
H18   H     H_    0.741608 0.595221 0.839636 0.225789
H19   H     H_    0.675341 0.750594 0.868526 0.178799
H20   H     H_    0.709823 0.728656 0.113356 0.165120
H21   H     H_    0.069319 0.322562 0.644477 0.160280
H22   H     H_    0.922976 0.520386 0.740712 0.146221
N1    N     N_R   0.500800 0.500930 0.147930 -0.206758
N2    N     N_R   0.500800 0.500890 0.852020 -0.184203
O1    O     O_R   0.500000 0.319640 0.618810 -0.567184
O2    O     O_R   0.500010 0.319680 0.381230 -0.585858
O3    O     O_R   0.316850 0.499950 0.618770 -0.578533
O4    O     O_R   0.316860 0.499990 0.381190 -0.584285
O5    O     O_R   0.499990 0.680320 0.618770 -0.571163
O6    O     O_R   0.500000 0.680360 0.381190 -0.590744
O7    O     O_R   0.683140 0.500010 0.618810 -0.584807
O8    O     O_R   0.683150 0.500050 0.381230 -0.581006

loop_
_geom_bond_atom_site_label_1
_geom_bond_atom_site_label_2
_ccdc_geom_bond_type
C12   C17   S    
C15   C18   S    
C22   H15   S    
C23   C24   S    
Cu1   N2    S    
Cu1   O7    S    
C27   H3    S    
C2    C25   A    
C21   H11   S    
C9    C10   S    
Cu2   O4    S    
C11   H20   S    
C20   H7    S    
C14   C17   S    
C5    F1    S    
C10   H19   S    
C4    O3    A    
C6    C9    A    
Cu1   O5    S    
C2    C3    S    
C28   H4    S    
C14   O7    A    
C7    C8    A    
C1    O1    A    
C12   H2    S    
C6    N1    A    
C12   C23   S    
C5    H16   S    
C26   C27   A    
C8    C20   S    
C7    N1    A    
C2    C29   A    
C5    C25   S    
C10   H18   S    
Cu1   O1    S    
C12   C19   S    
C13   C29   S    
C15   C24   S    
C22   H13   S    
C14   O8    A    
C3    H12   S    
C18   H22   S    
C22   H14   S    
C16   C23   S    
C9    N2    A    
C1    O2    A    
Cu1   Cu2   S    
C4    C24   S    
C1    C26   S    
C10   C11   S    
C11   C21   S    
C21   H9    S    
C15   H21   S    
Cu2   O6    S    
C6    C11   S    
C20   H8    S    
C7    H17   S    
C17   C18   S    
C18   C19   S    
C19   F2    S    
Cu2   O2    S    
C27   C28   A    
Cu2   O8    S    
C20   H6    S    
C22   C23   S    
C28   C29   A    
C16   H1    S    
C25   C26   A    
C21   H10   S    
C19   C24   S    
C4    O4    A    
Cu2   N1    S    
C8    N2    A    
C13   O5    A    
C15   C16   S    
C3    H5    S    
Cu1   O3    S    
C16   C17   S    
C3    C5    S    
C13   O6    A    
