data_mof_unit_2717.cif
_audit_creation_date              2012-12-10T19:47:27-0500
_audit_creation_method            fapswitch 2.2
_symmetry_space_group_name_H-M    P1
_symmetry_Int_Tables_number       1
_space_group_crystal_system       triclinic
_cell_length_a                    10.825037
_cell_length_b                    10.874565
_cell_length_c                    12.70691
_cell_angle_alpha                 93.384815
_cell_angle_beta                  93.187025
_cell_angle_gamma                 89.482928
_cell_volume                      1490.88291397

loop_
_atom_site_label
_atom_site_type_symbol
_atom_type_description
_atom_site_fract_x
_atom_site_fract_y
_atom_site_fract_z
_atom_type_partial_charge
C1    C     C_R   0.261857 0.497231 0.500361 0.802040
C2    C     C_R   0.737988 0.505640 0.499469 0.772403
C3    C     C_R   0.500890 0.871227 0.498557 -0.253615
C4    C     C_R   0.507686 0.127685 0.498738 -0.262506
C5    C     C_R   0.437774 0.931659 0.416044 -0.171348
C6    C     C_R   0.567890 0.067180 0.582863 -0.172289
C7    C     C_R   0.244669 0.207069 0.727793 -0.125828
C8    C     C_R   0.748055 0.781674 0.254254 -0.138167
C9    C     C_R   0.188101 0.273448 0.647382 -0.127984
C10   C     C_R   0.804285 0.723108 0.339519 -0.123608
C11   C     C_R   0.130970 0.387350 0.671451 0.119359
C12   C     C_R   0.867751 0.611013 0.322978 0.134025
C13   C     C_R   0.131100 0.433905 0.776913 -0.147760
C14   C     C_R   0.874489 0.558617 0.219714 -0.146510
C15   C     C_R   0.189179 0.367797 0.857084 -0.142956
C16   C     C_R   0.817587 0.617210 0.134545 -0.146588
C17   C     C_R   0.245822 0.254408 0.832552 -0.125378
C18   C     C_R   0.754819 0.728883 0.151816 -0.129589
C19   C     C_R   0.939201 0.465629 0.585864 -0.252041
C20   C     C_R   0.061015 0.544118 0.414575 -0.241588
C21   C     C_R   0.871655 0.510482 0.499124 -0.078515
C22   C     C_R   0.128129 0.496746 0.500580 -0.073743
C23   C     C_R   0.503373 0.261713 0.500013 0.860083
C24   C     C_R   0.497837 0.737999 0.499664 0.835952
C25   C     C_R   0.932862 0.552282 0.412838 -0.006741
C26   C     C_R   0.066766 0.454534 0.586262 -0.002366
C27   C     C_2   0.478135 0.456470 0.030673 -0.283857
C28   C     C_2   0.520791 0.542672 0.969262 -0.275052
C29   C     C_1   0.520112 0.527806 0.852961 0.225950
C30   C     C_1   0.479462 0.471707 0.147017 0.192803
C31   C     C_R   0.824420 0.227017 0.751713 -0.149434
C32   C     C_R   0.130661 0.824851 0.287806 -0.160730
C33   C     C_R   0.756312 0.175785 0.663320 -0.165484
C34   C     C_R   0.219526 0.876874 0.360718 -0.121371
C35   C     C_R   0.635407 0.134155 0.673256 0.218606
C36   C     C_R   0.345709 0.867709 0.341063 0.199372
C37   C     C_R   0.583329 0.145815 0.772197 -0.048742
C38   C     C_R   0.381542 0.805824 0.247209 -0.090901
C39   C     C_R   0.650354 0.200659 0.859518 -0.160378
C40   C     C_R   0.292394 0.752672 0.175047 -0.151146
C41   C     C_R   0.771005 0.241019 0.849335 -0.111899
C42   C     C_R   0.167002 0.762280 0.195272 -0.130137
C43   C     C_R   0.567808 0.938835 0.580739 0.384383
C44   C     C_R   0.448246 0.059187 0.412699 0.380531
Cu1   Cu    Cu3+1 0.492140 0.492110 0.395880 0.983885
Cu2   Cu    Cu3+1 0.507860 0.507890 0.604120 0.998015
H1    H     H_    0.823689 0.281604 0.917350 0.125124
H2    H     H_    0.097988 0.721633 0.139152 0.137902
H3    H     H_    0.086592 0.521160 0.796783 0.122143
H4    H     H_    0.923972 0.472802 0.205301 0.123207
H5    H     H_    0.189735 0.404136 0.938271 0.127601
H6    H     H_    0.822884 0.576505 0.055090 0.127486
H7    H     H_    0.891778 0.433603 0.651648 0.163406
H8    H     H_    0.108863 0.577629 0.349381 0.171955
H9    H     H_    0.556183 0.628456 0.006485 0.155859
H10   H     H_    0.441860 0.370918 0.993480 0.156361
H11   H     H_    0.919172 0.254589 0.744961 0.143440
H12   H     H_    0.033621 0.833405 0.302983 0.147174
H13   H     H_    0.798911 0.164964 0.588166 0.104863
H14   H     H_    0.190067 0.925814 0.431827 0.119304
H15   H     H_    0.491940 0.110614 0.782090 0.109438
H16   H     H_    0.478160 0.798743 0.229974 0.117801
H17   H     H_    0.609648 0.209698 0.935495 0.119855
H18   H     H_    0.320457 0.704815 0.103080 0.134807
H19   H     H_    0.290040 0.202973 0.894728 0.117132
H20   H     H_    0.712113 0.775000 0.085818 0.116717
H21   H     H_    0.286756 0.118539 0.708678 0.122674
H22   H     H_    0.700423 0.868688 0.267570 0.105574
H23   H     H_    0.187486 0.235544 0.566563 0.116783
H24   H     H_    0.801221 0.766796 0.417791 0.073202
N1    N     N_1   0.480320 0.480250 0.239400 -0.155564
N2    N     N_1   0.519680 0.519750 0.760600 -0.149583
O1    O     O_R   0.313000 0.493330 0.412070 -0.574336
O2    O     O_R   0.687000 0.506670 0.587930 -0.585204
O3    O     O_R   0.326280 0.506660 0.587930 -0.572234
O4    O     O_R   0.673720 0.493340 0.412070 -0.573575
O5    O     O_R   0.493370 0.312980 0.412070 -0.555694
O6    O     O_R   0.506630 0.687020 0.587930 -0.535901
O7    O     O_R   0.506650 0.326310 0.587930 -0.575557
O8    O     O_R   0.493350 0.673690 0.412070 -0.586905
O9    O     O_3   0.623763 0.880987 0.665581 -0.557989
C45   C     C_3   0.744938 0.844372 0.641458 0.101306
H25   H     H_    0.796819 0.919432 0.607670 0.114869
H26   H     H_    0.741706 0.762611 0.585076 0.132450
C46   C     C_3   0.815424 0.808193 0.741886 -0.766595
H27   H     H_    0.767187 0.731704 0.776504 0.248211
H28   H     H_    0.910303 0.777189 0.723589 0.192536
H29   H     H_    0.821755 0.888438 0.800189 0.245326
O10   O     O_3   0.385124 0.118101 0.331809 -0.557945
C47   C     C_3   0.457206 0.112816 0.241899 0.126928
H30   H     H_    0.498603 0.020311 0.224937 0.101296
H31   H     H_    0.534095 0.180168 0.252683 0.155838
C48   C     C_3   0.375682 0.144698 0.145855 -0.800362
H32   H     H_    0.333936 0.237580 0.159152 0.250190
H33   H     H_    0.431808 0.144179 0.075275 0.176727
H34   H     H_    0.300606 0.075820 0.131183 0.252807

loop_
_geom_bond_atom_site_label_1
_geom_bond_atom_site_label_2
_ccdc_geom_bond_type
C48   H32   S    
Cu1   N1    S    
C32   H12   S    
C30   N1    T    
C39   C41   A    
C46   H27   S    
C3    C43   A    
Cu1   O4    S    
C28   C29   S    
C35   C37   A    
C9    H23   S    
Cu2   O7    S    
C20   C25   A    
C5    C36   S    
C6    C35   S    
Cu1   O1    S    
C19   C26   A    
C48   H33   S    
C24   O8    A    
C7    C17   A    
C31   C33   A    
C15   H5    S    
Cu2   N2    S    
C2    O2    A    
C29   N2    T    
C19   H7    S    
C40   C42   A    
C1    C22   S    
C33   H13   S    
C27   C30   S    
C34   H14   S    
C3    C24   S    
Cu2   O3    S    
C28   H9    S    
O9    C45   S    
C46   H28   S    
C1    O3    A    
C20   H8    S    
Cu2   O6    S    
C4    C23   S    
C27   H10   S    
C4    C44   A    
C11   C26   S    
Cu1   Cu2   S    
C8    C18   A    
C32   C34   A    
C47   H31   S    
C2    C21   S    
C41   H1    S    
C42   H2    S    
C23   O5    A    
C9    C11   A    
C10   C12   A    
C13   H3    S    
C10   H24   S    
C4    C6    A    
C5    C44   A    
C20   C22   A    
C8    H22   S    
C48   H34   S    
C45   H26   S    
C6    C43   A    
C13   C15   A    
C43   O9    S    
C14   C16   A    
Cu2   O2    S    
C2    O4    A    
C47   C48   S    
C46   H29   S    
C24   O6    A    
C15   C17   A    
C21   C25   A    
C31   C41   A    
C19   C21   A    
C8    C10   A    
C16   H6    S    
C12   C14   A    
C3    C5    A    
C37   H15   S    
C18   H20   S    
C45   C46   S    
C39   H17   S    
C17   H19   S    
C40   H18   S    
C12   C25   S    
C1    O1    A    
C31   H11   S    
C36   C38   A    
C37   C39   A    
C38   C40   A    
C11   C13   A    
C47   H30   S    
C14   H4    S    
C33   C35   A    
Cu1   O8    S    
C34   C36   A    
C7    H21   S    
C7    C9    A    
C16   C18   A    
C45   H25   S    
C22   C26   A    
C27   C28   D    
C32   C42   A    
Cu1   O5    S    
C23   O7    A    
O10   C47   S    
C44   O10   S    
C38   H16   S    
