data_mof_unit_911.cif
_audit_creation_date              2012-12-10T18:05:58-0500
_audit_creation_method            fapswitch 2.2
_symmetry_space_group_name_H-M    P1
_symmetry_Int_Tables_number       1
_space_group_crystal_system       triclinic
_cell_length_a                    12.639058
_cell_length_b                    13.097926
_cell_length_c                    14.967324
_cell_angle_alpha                 91.48084
_cell_angle_beta                  103.424921
_cell_angle_gamma                 81.331564
_cell_volume                      2382.42927774

loop_
_atom_site_label
_atom_site_type_symbol
_atom_type_description
_atom_site_fract_x
_atom_site_fract_y
_atom_site_fract_z
_atom_type_partial_charge
C1    C     C_R   0.438039 0.691356 0.485403 0.861400
C2    C     C_R   0.411458 0.545833 0.796776 -0.343340
C3    C     C_R   0.504962 0.499564 0.769339 -0.119960
C4    C     C_R   0.501846 0.499640 0.672983 0.942107
C5    C     C_R   0.599542 0.454636 0.832671 0.368561
C6    C     C_R   0.715623 0.051367 0.458731 0.422033
C7    C     C_R   0.600541 0.196598 0.509289 -0.273366
C8    C     C_R   0.296067 0.841624 0.492011 -0.321142
C9    C     C_R   0.265959 0.948458 0.497837 0.504666
C10   C     C_R   0.341445 0.013657 0.490942 -0.209029
C11   C     C_R   0.445503 0.973772 0.473522 0.040207
C12   C     C_R   0.587316 0.447999 0.111023 0.091488
C13   C     C_R   0.465490 0.868825 0.451524 0.079707
C14   C     C_R   0.531081 0.033765 0.478223 0.069860
C15   C     C_R   0.628188 0.992369 0.449042 -0.051827
C16   C     C_R   0.562225 0.307952 0.510960 0.922025
C17   C     C_R   0.634159 0.894320 0.409399 -0.216733
C18   C     C_R   0.554148 0.833317 0.410931 -0.159940
C19   C     C_R   0.523106 0.133209 0.513211 -0.316778
C20   C     C_R   0.701504 0.153558 0.488562 0.408600
C21   C     C_R   0.397170 0.801605 0.471986 -0.166268
C22   C     C_R   0.093438 0.334865 0.383484 -0.273562
C23   C     C_R   0.315169 0.602709 0.007681 -0.205859
C24   C     C_R   0.798799 0.629077 0.610579 0.008358
C25   C     C_R   0.904780 0.653600 0.638877 0.144769
C26   C     C_R   0.987410 0.600005 0.600328 -0.207713
C27   C     C_R   0.962660 0.528878 0.528215 0.015133
C28   C     C_R   0.497575 0.501507 0.326976 0.861930
C29   C     C_R   0.854791 0.503829 0.505964 0.175902
C30   C     C_R   0.041334 0.477494 0.481094 -0.020517
C31   C     C_R   0.014283 0.393198 0.423012 0.095663
C32   C     C_R   0.908285 0.368249 0.404564 -0.186564
C33   C     C_R   0.829199 0.424469 0.443899 -0.164090
C34   C     C_R   0.318080 0.600312 0.915781 -0.207648
C35   C     C_R   0.145944 0.506161 0.488533 0.507099
C36   C     C_R   0.198717 0.360547 0.401296 -0.082664
C37   C     C_R   0.585148 0.450891 0.202770 -0.269705
C38   C     C_R   0.493423 0.501863 0.230458 -0.126151
C39   C     C_R   0.400264 0.550627 0.166610 0.134625
C40   C     C_R   0.403141 0.550504 0.073553 0.098606
C41   C     C_R   0.497128 0.498549 0.045983 0.034745
C42   C     C_3   0.215109 0.547968 0.185921 -0.728727
C43   C     C_3   0.872582 0.831906 0.685661 -0.758782
C44   C     C_3   0.742537 0.223756 0.932565 -0.688626
C45   C     C_R   0.410042 0.548269 0.888529 0.150306
C46   C     C_R   0.501306 0.497972 0.953441 -0.018228
C47   C     C_R   0.596055 0.447124 0.925750 -0.037537
C48   C     C_R   0.682220 0.389676 0.991659 0.197100
C49   C     C_R   0.678096 0.393602 0.083929 -0.268495
H1    H     H_    0.654737 0.411955 0.253153 0.157201
H2    H     H_    0.733845 0.666295 0.641490 0.152393
H3    H     H_    0.070135 0.612649 0.630953 0.186783
H4    H     H_    0.749370 0.401649 0.427185 0.222990
H5    H     H_    0.243637 0.645817 0.026440 0.179834
H6    H     H_    0.248558 0.639924 0.865944 0.141920
H7    H     H_    0.340497 0.582566 0.746362 0.161593
H8    H     H_    0.745001 0.351325 0.134456 0.145823
H9    H     H_    0.832765 0.937861 0.455833 0.317811
H10   H     H_    0.122182 0.935081 0.517831 0.344441
H11   H     H_    0.324883 0.642213 0.257507 0.235782
H12   H     H_    0.700732 0.863000 0.377851 0.161026
H13   H     H_    0.237848 0.478445 0.231048 0.257312
H14   H     H_    0.187535 0.523214 0.113842 0.230829
H15   H     H_    0.145207 0.598298 0.205294 0.237019
H16   H     H_    0.242728 0.590550 0.561384 0.363174
H17   H     H_    0.012139 0.726545 0.737460 0.224152
H18   H     H_    0.895726 0.883563 0.744706 0.242838
H19   H     H_    0.782046 0.833793 0.670524 0.238547
H20   H     H_    0.896007 0.861563 0.625175 0.246755
H21   H     H_    0.754930 0.446265 0.843606 0.347571
H22   H     H_    0.843334 0.316337 0.015190 0.217666
H23   H     H_    0.454202 0.165272 0.541236 0.187039
H24   H     H_    0.812983 0.179283 0.909158 0.234683
H25   H     H_    0.669943 0.233331 0.873458 0.261924
H26   H     H_    0.724470 0.179417 0.988186 0.221009
H27   H     H_    0.792358 0.249150 0.554112 0.350202
H28   H     H_    0.242152 0.790044 0.505639 0.195860
H29   H     H_    0.315107 0.095194 0.497420 0.161700
H30   H     H_    0.562412 0.757723 0.380085 0.162260
H31   H     H_    0.261674 0.314530 0.373249 0.158994
H32   H     H_    0.886090 0.305225 0.359068 0.180600
H33   H     H_    0.074459 0.269218 0.340377 0.169435
N1    N     N_R   0.222190 0.444670 0.452360 -0.140264
N2    N     N_R   0.776970 0.554790 0.547140 -0.150633
N3    N     N_2   0.307188 0.604573 0.195670 -0.313212
N4    N     N_2   0.929374 0.728138 0.708716 -0.309923
N5    N     N_2   0.770188 0.323213 0.966140 -0.298378
O1    O     O_R   0.366740 0.627160 0.477250 -0.607017
O2    O     O_3   0.165928 0.991191 0.514753 -0.736633
O3    O     O_3   0.167354 0.600737 0.523051 -0.814502
O4    O     O_3   0.692792 0.419097 0.801555 -0.739634
O5    O     O_3   0.788462 0.207823 0.497419 -0.723953
O6    O     O_R   0.544830 0.662520 0.507680 -0.625580
O7    O     O_R   0.410940 0.482340 0.616930 -0.657188
O8    O     O_R   0.589030 0.517700 0.647360 -0.572251
O9    O     O_R   0.455170 0.337480 0.492320 -0.614230
O10   O     O_R   0.633260 0.372840 0.522750 -0.623146
O11   O     O_R   0.410970 0.482300 0.352640 -0.612015
O12   O     O_R   0.589060 0.517660 0.383070 -0.645430
O13   O     O_3   0.816105 0.012427 0.440387 -0.712059
Zn1   Zn    Zn3+2 0.381090 0.476390 0.479680 0.941077
Zn2   Zn    Zn3+2 0.618910 0.523610 0.520320 0.946163

loop_
_geom_bond_atom_site_label_1
_geom_bond_atom_site_label_2
_ccdc_geom_bond_type
C1    C21   S    
C27   C29   A    
N2    Zn2   S    
H21   O4    S    
C12   C49   A    
C10   H29   S    
C45   C46   A    
C32   H32   S    
C5    C47   A    
C26   C27   A    
C37   C38   A    
C13   C18   A    
C22   H33   S    
C38   C39   A    
C11   C14   A    
C16   O10   A    
C36   N1    A    
C23   C40   A    
C29   C33   A    
C49   H8    S    
H10   O2    S    
C12   C37   A    
C17   H12   S    
C6    C15   A    
C31   C32   A    
O7    Zn1   S    
C8    C9    A    
C41   C46   A    
C44   N5    S    
C9    C10   A    
C42   H13   S    
O10   Zn2   S    
O8    Zn2   S    
C1    O1    A    
C34   H6    S    
C43   H20   S    
O9    Zn1   S    
C27   C30   A    
C19   H23   S    
C17   C18   A    
C2    C45   A    
C33   H4    S    
H16   O3    S    
C16   O9    A    
C22   C31   A    
H9    O13   S    
C24   C25   A    
C29   N2    A    
C36   H31   S    
C9    O2    S    
C39   C40   A    
C42   N3    S    
C35   N1    A    
C18   H30   S    
C25   C26   A    
C6    O13   S    
C44   H26   S    
C12   C41   A    
C26   H3    S    
C4    O8    A    
C20   O5    S    
C47   C48   A    
C28   C38   S    
C23   C34   A    
C8    C21   A    
C48   N5    S    
C13   C21   A    
C34   C45   A    
C44   H25   S    
C5    O4    S    
H27   O5    S    
H22   N5    S    
C30   C35   A    
C28   O12   A    
C1    O6    A    
C48   C49   A    
C7    C19   A    
C8    H28   S    
C4    O7    A    
C39   N3    S    
C3    C4    S    
C42   H15   S    
C6    C20   A    
C23   H5    S    
C28   O11   A    
C15   C17   A    
C46   C47   A    
C7    C16   S    
N1    Zn1   S    
C43   N4    S    
C14   C19   A    
O1    Zn1   S    
C3    C5    A    
O6    Zn2   S    
H17   N4    S    
H11   N3    S    
O11   Zn1   S    
C22   C36   A    
C43   H19   S    
C32   C33   A    
C2    C3    A    
C24   N2    A    
C2    H7    S    
C37   H1    S    
C11   C13   A    
C30   C31   A    
C24   H2    S    
C25   N4    S    
C44   H24   S    
C10   C11   A    
C35   O3    S    
O12   Zn2   S    
C43   H18   S    
C7    C20   A    
C14   C15   A    
C40   C41   A    
C42   H14   S    
