data_mof_unit_1554.cif
_audit_creation_date              2013-03-05T15:42:47-0500
_audit_creation_method            fapswitch 2.2
_symmetry_space_group_name_H-M    P1
_symmetry_Int_Tables_number       1
_space_group_crystal_system       triclinic
_cell_length_a                    9.748248
_cell_length_b                    10.926342
_cell_length_c                    13.297797
_cell_angle_alpha                 91.109987
_cell_angle_beta                  71.859167
_cell_angle_gamma                 90.526664
_cell_volume                      1345.72145589

loop_
_atom_site_label
_atom_site_type_symbol
_atom_site_description
_atom_site_fract_x
_atom_site_fract_y
_atom_site_fract_z
_atom_type_partial_charge
O1    O     O_R   0.382960 0.678040 0.499980 -0.569127
O2    O     O_R   0.617100 0.678080 0.500020 -0.596637
C1    C     C_R   0.500740 0.734451 0.499209 0.840488
O3    O     O_R   0.325800 0.499940 0.650950 -0.518606
O4    O     O_R   0.559930 0.499980 0.650990 -0.587231
C2    C     C_R   0.421326 0.497884 0.701231 0.803534
Cu1   Cu    Cu3+1 0.361370 0.499980 0.499980 1.023059
Cu2   Cu    Cu3+1 0.638630 0.500020 0.500020 0.952371
O5    O     O_R   0.382900 0.321920 0.499980 -0.577034
O6    O     O_R   0.617040 0.321960 0.500020 -0.581272
O7    O     O_R   0.440070 0.500020 0.349010 -0.530397
O8    O     O_R   0.674200 0.500060 0.349050 -0.554813
C3    C     C_R   0.498793 0.265522 0.501678 0.840319
C4    C     C_R   0.578277 0.493776 0.299534 0.828288
C5    C     C_R   0.740310 0.326390 0.039104 -0.216311
H1    H     H_    0.819565 0.255594 0.006787 0.159774
C6    C     C_R   0.623785 0.463908 0.185697 -0.095797
C7    C     C_R   0.244926 0.563508 0.875401 0.313869
C8    C     C_R   0.208419 0.579440 0.984527 -0.272532
C9    C     C_R   0.297497 0.537179 0.040374 0.281330
C10   C     C_R   0.431700 0.480881 0.984179 -0.024546
C11   C     C_R   0.458107 0.448561 0.876121 -0.068718
C12   C     C_R   0.538960 0.452708 0.031891 0.075833
C13   C     C_R   0.648893 0.366810 0.982721 0.049619
C14   C     C_R   0.662118 0.320093 0.880381 0.238730
C15   C     C_R   0.567405 0.363025 0.828208 -0.175840
C16   C     C_R   0.541372 0.510236 0.126653 -0.186929
C17   C     C_R   0.724644 0.370739 0.141624 0.222854
C18   C     C_R   0.371812 0.499614 0.819000 -0.212766
H2    H     H_    0.473820 0.588437 0.158838 0.184412
H3    H     H_    0.105597 0.620859 0.027058 0.204560
H4    H     H_    0.576757 0.327113 0.750319 0.173391
C19   C     C_2   0.611000 0.068022 0.503476 -0.159424
C20   C     C_2   0.493477 0.133547 0.507948 -0.303762
H5    H     H_    0.712809 0.113463 0.497355 0.171519
H6    H     H_    0.388825 0.091956 0.518916 0.153953
C21   C     C_2   0.609235 0.934071 0.508259 -0.154569
C22   C     C_2   0.501096 0.866390 0.494479 -0.288308
H7    H     H_    0.701673 0.890485 0.521563 0.170686
H8    H     H_    0.409854 0.906354 0.477417 0.154754
C23   C     C_2   0.054664 0.574004 0.557958 -0.006645
N1    N     N_2   0.152660 0.501340 0.501130 -0.285291
H9    H     H_    0.086794 0.643267 0.605825 0.202701
H10   H     H_    0.121920 0.431179 0.460269 0.206593
C24   C     C_2   0.896717 0.567385 0.565483 0.327073
N2    N     N_2   0.846520 0.501370 0.501160 -0.306492
H11   H     H_    0.918712 0.453365 0.440779 0.184481
N3    N     N_2   0.802106 0.314380 0.202704 -0.447740
H12   H     H_    0.807896 0.220407 0.193341 0.250928
C25   C     C_3   0.942023 0.368352 0.190194 -0.531216
H13   H     H_    0.014693 0.352635 0.108107 0.216605
H14   H     H_    0.990147 0.325590 0.246363 0.238583
H15   H     H_    0.931939 0.468277 0.207652 0.263848
N4    N     N_2   0.803244 0.644302 0.645147 -0.441430
H16   H     H_    0.712766 0.680047 0.634000 0.297080
C26   C     C_3   0.790847 0.619267 0.754008 -0.578551
H17   H     H_    0.677954 0.634215 0.805249 0.208602
H18   H     H_    0.861568 0.683136 0.781150 0.276659
H19   H     H_    0.820231 0.523077 0.763001 0.257384
N5    N     N_2   0.776005 0.236255 0.829307 -0.428889
H20   H     H_    0.877676 0.266228 0.826700 0.269063
C27   C     C_3   0.772690 0.168062 0.735583 -0.672534
H21   H     H_    0.857342 0.096391 0.716842 0.236868
H22   H     H_    0.795123 0.229840 0.666875 0.221588
H23   H     H_    0.666507 0.121941 0.749422 0.239186
N6    N     N_R   0.145261 0.604962 0.824503 0.122356
O9    O     O_R   0.063764 0.524689 0.797032 -0.411179
O10   O     O_R   0.110101 0.720066 0.831035 -0.394683
N7    N     N_R   0.239250 0.535990 0.153912 0.095029
O11   O     O_R   0.246852 0.437196 0.205050 -0.392098
O12   O     O_R   0.161835 0.627268 0.204998 -0.386605

loop_
_geom_bond_atom_site_label_1
_geom_bond_atom_site_label_2
_geom_bond_distance
_ccdc_geom_bond_type
O4    Cu2   1.913073 S    
C25   H14   1.109964 S    
C12   C13   1.419588 A    
N4    C26   1.445955 S    
C15   H4    1.077573 S    
C21   C22   1.338817 D    
C14   N5    1.434581 S    
C12   C16   1.403947 A    
O2    C1    1.298789 A    
C7    N6    1.427106 S    
C23   N1    1.286529 D    
N6    O10   1.300731 A    
C8    C9    1.393200 A    
C26   H19   1.110269 S    
C19   C21   1.465918 S    
Cu2   O8    1.927983 S    
C8    H3    1.083864 S    
N3    C25   1.443439 S    
C19   C20   1.341502 D    
C13   C14   1.412183 A    
Cu1   Cu2   2.702961 S    
C21   H7    1.086513 S    
C7    C18   1.413424 A    
N2    H11   1.026489 S    
C10   C11   1.416836 A    
C26   H17   1.110912 S    
C16   H2    1.080545 S    
C22   H8    1.081620 S    
C23   H9    1.084952 S    
C4    C6    1.469754 S    
C5    C17   1.401000 A    
C27   H21   1.110221 S    
N1    H10   1.026521 S    
O3    Cu1   1.927983 S    
O4    C2    1.307814 A    
O3    C2    1.305146 A    
N3    H12   1.031841 S    
C11   C18   1.420810 A    
O8    C4    1.301196 A    
C24   N4    1.427344 S    
Cu1   O7    1.913074 S    
C20   H6    1.081632 S    
C10   C12   1.420261 A    
N7    O11   1.301717 A    
O7    C4    1.304094 A    
Cu2   N2    2.031250 S    
C9    N7    1.438359 S    
C25   H15   1.110662 S    
N7    O12   1.301548 A    
O5    C3    1.298382 A    
C5    H1    1.082266 S    
C6    C16   1.390607 A    
C3    C20   1.445549 S    
C2    C18   1.488030 S    
N6    O9    1.299767 A    
C9    C10   1.427065 A    
N5    C27   1.448516 S    
C7    C8    1.390152 A    
C11   C15   1.409665 A    
Cu1   N1    2.030036 S    
Cu1   O5    1.958751 S    
C23   C24   1.512694 S    
N4    H16   1.020997 S    
C17   N3    1.420907 S    
O1    Cu1   1.954971 S    
C27   H22   1.111308 S    
C25   H13   1.111898 S    
C27   H23   1.111137 S    
C19   H5    1.086425 S    
C14   C15   1.404738 A    
C24   N2    1.312096 D    
C6    C17   1.408180 A    
C5    C13   1.409788 A    
Cu2   O6    1.954971 S    
O2    Cu2   1.958748 S    
C1    C22   1.444131 S    
C26   H18   1.108559 S    
N5    H20   1.031423 S    
O1    C1    1.295436 A    
O6    C3    1.296577 A    
