data_mof_unit_3939.cif
_audit_creation_date              2012-12-10T17:38:19-0500
_audit_creation_method            fapswitch 2.2
_symmetry_space_group_name_H-M    P1
_symmetry_Int_Tables_number       1
_space_group_crystal_system       triclinic
_cell_length_a                    12.311958
_cell_length_b                    13.1705
_cell_length_c                    19.371439
_cell_angle_alpha                 77.567811
_cell_angle_beta                  101.265293
_cell_angle_gamma                 116.545687
_cell_volume                      2726.40317894

loop_
_atom_site_label
_atom_site_type_symbol
_atom_type_description
_atom_site_fract_x
_atom_site_fract_y
_atom_site_fract_z
_atom_type_partial_charge
C1    C     C_R   0.854889 0.286522 0.506057 0.776885
C2    C     C_R   0.000215 0.500747 0.708735 -0.206416
C3    C     C_R   0.002868 0.494694 0.071785 0.418026
C4    C     C_R   0.005186 0.495956 0.931865 0.453987
C5    C     C_R   0.108722 0.518443 0.195030 -0.159938
C6    C     C_R   0.106926 0.518565 0.266625 -0.267507
C7    C     C_R   0.998237 0.496585 0.292098 -0.124059
C8    C     C_R   0.889917 0.473909 0.244745 0.487897
C9    C     C_R   0.892110 0.471059 0.173153 -0.241851
C10   C     C_R   0.001397 0.494839 0.147618 -0.003518
C11   C     C_R   0.275314 0.021984 0.405226 -0.186914
C12   C     C_R   0.999707 0.500107 0.632494 0.835075
C13   C     C_R   0.227980 0.834720 0.474841 -0.047426
C14   C     C_R   0.815710 0.084706 0.551761 -0.185890
C15   C     C_R   0.737028 0.969576 0.565312 -0.146449
C16   C     C_R   0.613602 0.932054 0.540424 -0.177835
C17   C     C_R   0.566696 0.009260 0.498620 0.081329
C18   C     C_R   0.650122 0.123895 0.477763 0.070959
C19   C     C_R   0.439960 0.976195 0.476142 0.072625
C20   C     C_R   0.400142 0.053760 0.427829 0.159703
C21   C     C_R   0.485426 0.161077 0.401269 -0.233018
C22   C     C_R   0.608634 0.195087 0.424971 -0.185834
C23   C     C_R   0.145095 0.713493 0.489582 0.789065
C24   C     C_R   0.351169 0.868494 0.500797 -0.250744
C25   C     C_R   0.189534 0.912510 0.428240 -0.197489
C26   C     C_R   0.773148 0.163440 0.509707 -0.097795
C27   C     C_R   0.346385 0.327865 0.613030 -0.291137
C28   C     C_R   0.760015 0.646232 0.404380 0.076737
C29   C     C_R   0.663495 0.678077 0.383470 -0.269341
C30   C     C_R   0.559731 0.622821 0.419329 -0.187650
C31   C     C_R   0.551303 0.534466 0.476957 -0.015085
C32   C     C_R   0.652726 0.504774 0.496419 0.267299
C33   C     C_R   0.446855 0.474890 0.516120 -0.041889
C34   C     C_R   0.999327 0.498742 0.367774 0.818193
C35   C     C_R   0.446406 0.387420 0.573560 0.159198
C36   C     C_R   0.545870 0.359938 0.591581 -0.237935
C37   C     C_R   0.646628 0.417419 0.554052 -0.113852
C38   C     C_R   0.342024 0.497881 0.501192 0.026052
C39   C     C_R   0.246640 0.354835 0.595734 0.071569
C40   C     C_R   0.094517 0.486167 0.757619 -0.346656
C41   C     C_R   0.097084 0.482671 0.830531 0.520246
C42   C     C_R   0.005617 0.497474 0.855503 -0.116538
C43   C     C_R   0.911445 0.512259 0.806699 -0.316895
C44   C     C_R   0.908893 0.516029 0.733722 0.492134
Cu1   Cu    Cu3+1 0.098280 0.475420 0.516260 0.932336
Cu2   Cu    Cu3+1 0.901720 0.524580 0.483740 0.944188
H1    H     H_    0.166849 0.476407 0.739643 0.192610
H2    H     H_    0.244476 0.080744 0.368204 0.137141
H3    H     H_    0.909724 0.112521 0.575709 0.149609
H4    H     H_    0.558172 0.841588 0.553480 0.128753
H5    H     H_    0.771191 0.909402 0.597245 0.133579
H6    H     H_    0.670696 0.276794 0.399695 0.208109
H7    H     H_    0.345442 0.260924 0.657021 0.138099
H8    H     H_    0.487901 0.651098 0.400940 0.134833
H9    H     H_    0.191209 0.537216 0.302026 0.165651
H10   H     H_    0.807629 0.448938 0.137831 0.165900
H11   H     H_    0.094260 0.887298 0.407448 0.147369
N1    N     N_R   0.900970 0.475931 0.957053 -0.249475
N2    N     N_R   0.899811 0.475239 0.025606 -0.244962
N3    N     N_R   0.107255 0.515064 0.046632 -0.245816
N4    N     N_R   0.108358 0.515740 0.978017 -0.165727
N5    N     N_R   0.246290 0.438200 0.540910 -0.178902
N6    N     N_R   0.754310 0.561190 0.459520 -0.202881
O1    O     O_R   0.972510 0.318130 0.520450 -0.580057
O2    O     O_R   0.806530 0.359650 0.492990 -0.609836
O3    O     O_R   0.083010 0.479220 0.613590 -0.590571
O4    O     O_R   0.917030 0.520740 0.586130 -0.556146
O5    O     O_R   0.193470 0.640350 0.507010 -0.586975
O6    O     O_R   0.027490 0.681870 0.479550 -0.594687
O7    O     O_R   0.082970 0.479260 0.413870 -0.589805
O8    O     O_R   0.916990 0.520780 0.386410 -0.552140
H12   H     H_    0.456827 0.219215 0.361957 0.153872
H13   H     H_    0.375247 0.808046 0.539907 0.149543
H14   H     H_    0.169000 0.309193 0.625919 0.118448
H15   H     H_    0.546320 0.293440 0.635647 0.157572
O9    O     O_3   0.191870 0.468625 0.876734 -0.556337
C45   C     C_3   0.165466 0.350833 0.890815 -0.290271
H16   H     H_    0.077583 0.299414 0.914287 0.156218
H17   H     H_    0.238844 0.338951 0.930291 0.197981
H18   H     H_    0.163680 0.318124 0.842018 0.147324
H19   H     H_    0.334198 0.562564 0.458435 0.119894
H20   H     H_    0.840315 0.689762 0.376368 0.119403
H21   H     H_    0.669178 0.745896 0.339355 0.146621
H22   H     H_    0.718481 0.391007 0.572982 0.213169
H23   H     H_    0.839116 0.521663 0.824928 0.189707
O10   O     O_3   0.811571 0.525704 0.687939 -0.571019
C46   C     C_3   0.830236 0.641580 0.674959 -0.284881
H24   H     H_    0.918474 0.698507 0.652854 0.156806
H25   H     H_    0.826085 0.670377 0.723928 0.150532
H26   H     H_    0.755977 0.650030 0.634698 0.186128
H27   H     H_    0.194330 0.536745 0.176953 0.164643
O11   O     O_3   0.779946 0.442628 0.270113 -0.581142
C47   C     C_3   0.737835 0.528667 0.243094 -0.300370
H28   H     H_    0.809363 0.615332 0.252666 0.147411
H29   H     H_    0.659450 0.510587 0.271290 0.191742
H30   H     H_    0.704599 0.528102 0.185501 0.159496

loop_
_geom_bond_atom_site_label_1
_geom_bond_atom_site_label_2
_ccdc_geom_bond_type
C40   H1    S    
C46   H24   S    
C47   H28   S    
C41   C42   A    
C23   O6    A    
C35   C36   A    
C18   C26   A    
C6    H9    S    
C2    C12   S    
C7    C8    A    
C45   H16   S    
C30   H8    S    
C36   C37   A    
C16   H4    S    
C29   H21   S    
C5    C6    A    
C24   H13   S    
C14   H3    S    
C11   C25   A    
C15   C16   A    
Cu1   N5    S    
C13   C23   S    
C39   H14   S    
Cu2   O6    S    
C33   C35   A    
C19   C20   A    
C2    C44   A    
C8    C9    A    
C1    O2    A    
C31   C33   A    
C37   H22   S    
C8    O11   S    
C15   H5    S    
C9    C10   A    
C34   O7    A    
C3    N3    A    
C47   H29   S    
C21   C22   A    
C13   C25   A    
C11   H2    S    
C25   H11   S    
C44   O10   S    
C45   H17   S    
C12   O4    A    
C11   C20   A    
C21   H12   S    
C28   H20   S    
C43   H23   S    
O9    C45   S    
Cu2   O2    S    
C27   C39   A    
O10   C46   S    
C16   C17   A    
C27   C35   A    
N1    N2    A    
Cu1   Cu2   S    
C12   O3    A    
C4    N4    A    
C13   C24   A    
N3    N4    A    
C23   O5    A    
C43   C44   A    
C29   C30   A    
C36   H15   S    
C31   C32   A    
Cu1   O5    S    
C17   C18   A    
C9    H10   S    
C32   C37   A    
C14   C26   A    
Cu2   O8    S    
C5    H27   S    
C40   C41   A    
C47   H30   S    
C46   H25   S    
C38   H19   S    
C1    C26   S    
C7    C34   S    
C42   C43   A    
C1    O1    A    
C22   H6    S    
C45   H18   S    
C39   N5    A    
C28   C29   A    
Cu1   O7    S    
C18   C22   A    
C32   N6    A    
C27   H7    S    
C6    C7    A    
Cu1   O1    S    
C33   C38   A    
Cu2   N6    S    
C19   C24   A    
C5    C10   A    
C3    C10   S    
C41   O9    S    
C30   C31   A    
C4    C42   S    
O11   C47   S    
C17   C19   A    
C28   N6    A    
C2    C40   A    
Cu2   O4    S    
C20   C21   A    
C46   H26   S    
C4    N1    A    
Cu1   O3    S    
C14   C15   A    
C34   O8    A    
C38   N5    A    
C3    N2    A    
