data_mof_unit_4990.cif
_audit_creation_date              2012-12-11T15:52:37-0500
_audit_creation_method            fapswitch 2.2
_symmetry_space_group_name_H-M    P1
_symmetry_Int_Tables_number       1
_space_group_crystal_system       triclinic
_cell_length_a                    6.94851
_cell_length_b                    14.582406
_cell_length_c                    16.040909
_cell_angle_alpha                 90.070349
_cell_angle_beta                  90.039348
_cell_angle_gamma                 89.961702
_cell_volume                      1625.3590771

loop_
_atom_site_label
_atom_site_type_symbol
_atom_type_description
_atom_site_fract_x
_atom_site_fract_y
_atom_site_fract_z
_atom_type_partial_charge
O1    O     O_R   0.494400 0.415640 0.412830 -0.550652
O2    O     O_R   0.823920 0.405510 0.586560 -0.539289
O3    O     O_R   0.994250 0.584360 0.587170 -0.540820
C1    C     C_R   0.655294 0.385469 0.616931 0.694255
O4    O     O_R   0.824110 0.404610 0.413450 -0.546769
O5    O     O_R   0.994440 0.583460 0.412820 -0.531311
C2    C     C_R   0.655158 0.382417 0.384349 0.696112
O6    O     O_R   0.494210 0.416540 0.587180 -0.531184
O7    O     O_3   0.660810 0.558680 0.500000 -0.363301
V1    V     V_3+5 0.935650 0.489110 0.500000 1.469644
O8    O     O_R   0.324150 0.594490 0.413440 -0.533734
C3    C     C_R   0.155816 0.614451 0.382651 0.730774
O9    O     O_R   0.323970 0.595390 0.586550 -0.519401
C4    C     C_R   0.154832 0.619461 0.613653 0.782285
V2    V     V_3+5 0.435660 0.510890 0.500000 1.489995
O10   O     O_3   0.160630 0.441320 0.500000 -0.375684
C5    C     C_3   0.000013 0.661482 0.750025 -0.301166
H1    H     H_    0.852021 0.657502 0.724075 0.134446
H2    H     H_    0.036468 0.591169 0.771865 0.192498
C6    C     C_3   0.000962 0.727968 0.825328 -0.325780
H3    H     H_    0.059846 0.692225 0.881055 0.155466
H4    H     H_    0.850087 0.747253 0.840254 0.178972
H5    H     H_    0.892733 0.874035 0.733845 0.196929
C7    C     C_3   0.072122 0.790074 0.646140 -0.147069
C8    C     C_3   0.344198 0.705072 0.724862 0.149703
C9    C     C_3   0.143657 0.693249 0.681032 -0.047681
H6    H     H_    0.453504 0.721724 0.677192 0.174831
C10   C     C_3   0.123504 0.814547 0.806476 -0.033988
C11   C     C_3   0.045226 0.857064 0.723900 -0.363592
C12   C     C_3   0.335897 0.782263 0.791827 -0.185048
H7    H     H_    0.387926 0.753089 0.851981 0.133487
H8    H     H_    0.111855 0.925218 0.713568 0.179510
C13   C     C_R   0.960061 0.790569 0.229528 -0.137278
H9    H     H_    0.823946 0.824793 0.218674 0.137896
C14   C     C_R   0.972860 0.726423 0.294206 -0.131716
H10   H     H_    0.846009 0.713772 0.331604 0.173666
C15   C     C_R   0.146527 0.679987 0.311078 -0.148623
C16   C     C_R   0.308086 0.698329 0.259091 0.344952
C17   C     C_R   0.295429 0.765762 0.197111 -0.144293
H11   H     H_    0.421225 0.779342 0.159199 0.140198
C18   C     C_R   0.121741 0.811736 0.180766 -0.127099
C19   C     C_R   0.783830 0.251280 0.696325 -0.149413
H12   H     H_    0.901468 0.246466 0.652254 0.149896
C20   C     C_R   0.771149 0.185961 0.759769 -0.078693
H13   H     H_    0.880228 0.132966 0.763157 0.150947
C21   C     C_R   0.618044 0.187184 0.816914 -0.185106
C22   C     C_R   0.477474 0.257530 0.810102 -0.028526
C23   C     C_R   0.493474 0.325175 0.747853 0.314072
C24   C     C_R   0.644578 0.320507 0.688297 -0.158438
C25   C     C_R   0.803683 0.261758 0.291173 -0.132738
H14   H     H_    0.938105 0.267470 0.324987 0.140825
C26   C     C_R   0.791299 0.199054 0.225004 -0.155073
H15   H     H_    0.916478 0.157622 0.210800 0.165319
C27   C     C_R   0.620130 0.188885 0.178554 -0.146139
C28   C     C_R   0.460826 0.245965 0.199733 0.359321
C29   C     C_R   0.472866 0.305458 0.268350 -0.145147
H16   H     H_    0.348626 0.347203 0.283499 0.133909
C30   C     C_R   0.643934 0.315085 0.314314 -0.124206
O11   O     O_R   0.771300 0.080930 0.910090 -0.531157
O12   O     O_R   0.441270 0.092800 0.083770 -0.538553
O13   O     O_R   0.271080 0.913920 0.084380 -0.545696
C31   C     C_R   0.610135 0.117365 0.111233 0.681291
O14   O     O_R   0.441580 0.091910 0.910670 -0.529748
O15   O     O_R   0.271390 0.913020 0.910040 -0.529965
C32   C     C_R   0.610076 0.115994 0.883435 0.700439
O16   O     O_R   0.770990 0.081830 0.084440 -0.539575
O17   O     O_3   0.604750 0.938760 0.997250 -0.356475
V3    V     V_3+5 0.329850 0.008280 0.997210 1.503246
O18   O     O_R   0.941680 0.901940 0.910610 -0.530048
C33   C     C_R   0.110636 0.882049 0.879697 0.676267
O19   O     O_R   0.941370 0.902830 0.083720 -0.545937
C34   C     C_R   0.110387 0.880756 0.112646 0.695551
V4    V     V_3+5 0.829860 0.986420 0.997150 1.476082
O20   O     O_3   0.104830 0.056030 0.997180 -0.352610
C35   C     C_2   0.471300 0.860833 0.771162 0.740788
O21   O     O_2   0.458006 0.903229 0.705857 -0.533722
O22   O     O_R   0.607853 0.887463 0.829584 -0.646239
H17   H     H_    0.674535 0.946189 0.812491 0.282691
C36   C     C_2   0.211328 0.833048 0.583364 0.835091
O23   O     O_2   0.192434 0.913775 0.564032 -0.531491
O24   O     O_R   0.348664 0.779843 0.541883 -0.661357
H18   H     H_    0.425016 0.816311 0.499529 0.306961
O25   O     O_3   0.478874 0.650684 0.264856 -0.652259
H19   H     H_    0.447871 0.585701 0.276589 0.281963
C37   C     C_2   0.318790 0.266812 0.870825 0.826927
O26   O     O_2   0.173657 0.220290 0.863136 -0.554849
O27   O     O_R   0.332579 0.331737 0.934583 -0.660245
H20   H     H_    0.212866 0.333838 0.970625 0.294100
O28   O     O_3   0.360098 0.395461 0.748065 -0.628188
H21   H     H_    0.424539 0.451949 0.728705 0.318134
O29   O     O_3   0.292416 0.247558 0.154469 -0.648610
H22   H     H_    0.326905 0.243650 0.094736 0.300065
C38   C     C_2   0.885478 0.779677 0.596268 0.745133
O30   O     O_2   0.731079 0.802540 0.625514 -0.552614
O31   O     O_R   0.891978 0.746703 0.514304 -0.660879
H23   H     H_    0.760452 0.744486 0.487024 0.300605
O32   O     O_3   0.399050 0.621983 0.762569 -0.651827
H24   H     H_    0.537355 0.627473 0.777207 0.275761

loop_
_geom_bond_atom_site_label_1
_geom_bond_atom_site_label_2
_ccdc_geom_bond_type
C28   C29   A    
O14   C32   A    
C38   O30   D    
C16   O25   S    
V4    O20   S    
O31   H23   S    
C1    O6    A    
O24   H18   S    
C17   C18   A    
O22   H17   S    
C26   H15   S    
C5    C9    S    
C22   C37   S    
C10   C11   S    
C14   C15   A    
C7    C9    S    
C11   H8    S    
O15   V3    S    
O5    C3    A    
C12   H7    S    
V3    O20   S    
V2    O10   S    
O32   H24   S    
C5    C6    S    
C29   H16   S    
O12   C31   A    
C21   C22   A    
C3    C15   S    
C7    C11   S    
C28   O29   S    
C5    H2    S    
C27   C28   A    
O8    V2    S    
C22   C23   A    
C26   C27   A    
C25   C26   A    
O18   V4    S    
O17   V4    S    
O15   C33   A    
C29   C30   A    
O7    V1    S    
O11   V4    S    
C2    C30   S    
C38   O31   S    
O9    C4    A    
C19   C20   A    
C20   C21   A    
C25   H14   S    
O4    C2    A    
C37   O27   S    
C31   O16   A    
O17   V3    S    
C25   C30   A    
C21   C32   S    
C17   H11   S    
C36   O24   S    
C6    C10   S    
C8    C9    S    
C37   O26   D    
O16   V4    S    
C14   H10   S    
O2    C1    A    
C35   O21   D    
C15   C16   A    
C7    C36   S    
O25   H19   S    
C5    H1    S    
C4    C9    S    
C35   O22   S    
O3    C4    A    
C18   C34   S    
O1    V2    S    
O13   C34   A    
C8    O32   S    
C23   C24   A    
C6    H4    S    
O6    V2    S    
C23   O28   S    
O9    V2    S    
C19   H12   S    
O2    V1    S    
H5    C11   S    
O29   H22   S    
C20   H13   S    
O19   V4    S    
C8    C12   S    
O14   V3    S    
O1    C2    A    
C10   C33   S    
O5    V1    S    
O8    C3    A    
C8    H6    S    
C27   C31   S    
C1    C24   S    
C13   C18   A    
C10   C12   S    
O7    V2    S    
O4    V1    S    
O3    V1    S    
V1    O10   S    
C7    C38   S    
O11   C32   A    
C12   C35   S    
O13   V3    S    
C16   C17   A    
C13   C14   A    
C13   H9    S    
O18   C33   A    
C19   C24   A    
C36   O23   D    
O19   C34   A    
C6    H3    S    
O12   V3    S    
O27   H20   S    
O28   H21   S    
