data_mof_unit_366.cif
_audit_creation_date              2013-03-05T16:48:45-0500
_audit_creation_method            fapswitch 2.2
_symmetry_space_group_name_H-M    P1
_symmetry_Int_Tables_number       1
_space_group_crystal_system       triclinic
_cell_length_a                    27.459855
_cell_length_b                    9.214309
_cell_length_c                    8.100186
_cell_angle_alpha                 89.997509
_cell_angle_beta                  90.002985
_cell_angle_gamma                 88.716224
_cell_volume                      2049.02368147

loop_
_atom_site_label
_atom_site_type_symbol
_atom_site_description
_atom_site_fract_x
_atom_site_fract_y
_atom_site_fract_z
_atom_type_partial_charge
O1    O     O_R   0.500000 0.285350 0.636850 -0.613263
O2    O     O_R   0.500000 0.714650 0.363150 -0.612869
O3    O     O_R   0.500000 0.714650 0.636850 -0.613289
O4    O     O_R   0.500000 0.285350 0.363150 -0.612884
C1    C     C_R   0.500051 0.217477 0.500003 0.929416
C2    C     C_R   0.499948 0.782523 0.499998 0.929404
O5    O     O_R   0.428760 0.500000 0.636860 -0.622948
O6    O     O_R   0.571240 0.500000 0.363140 -0.621061
O7    O     O_R   0.571240 0.500000 0.636860 -0.623004
O8    O     O_R   0.428760 0.500000 0.363140 -0.621036
C3    C     C_R   0.405520 0.503765 0.500320 0.869132
C4    C     C_R   0.594481 0.496243 0.500330 0.869167
Zn1   Zn    Zn3+2 0.500000 0.500000 0.682780 0.998749
Zn2   Zn    Zn3+2 0.500000 0.500000 0.317220 1.000632
C5    C     C_R   0.181782 0.404174 0.587751 0.574169
C6    C     C_R   0.818237 0.595970 0.587538 0.574089
C7    C     C_R   0.171473 0.657526 0.535443 0.545915
C8    C     C_R   0.828537 0.342589 0.535447 0.545867
O9    O     O_2   0.212012 0.286769 0.595001 -0.497509
O10   O     O_2   0.788011 0.713394 0.594639 -0.497587
O11   O     O_2   0.191543 0.784002 0.490947 -0.504414
O12   O     O_2   0.808457 0.216083 0.491113 -0.504425
N1    N     N_R   0.199976 0.534811 0.542853 -0.366618
N2    N     N_R   0.800037 0.465310 0.542772 -0.366586
C9    C     C_R   0.279526 0.582456 0.657964 -0.117837
C10   C     C_R   0.720498 0.418238 0.658255 -0.117984
C11   C     C_R   0.273498 0.499078 0.374650 -0.100012
C12   C     C_R   0.726498 0.500439 0.374481 -0.100126
C13   C     C_R   0.329836 0.569845 0.649442 -0.199397
C14   C     C_R   0.670187 0.430824 0.649731 -0.199323
C15   C     C_R   0.324163 0.488030 0.365021 -0.206571
C16   C     C_R   0.675831 0.511474 0.364860 -0.206581
C17   C     C_R   0.251310 0.544683 0.522002 0.298331
C18   C     C_R   0.748699 0.455423 0.522046 0.298577
C19   C     C_R   0.101902 0.517550 0.620434 -0.200216
C20   C     C_R   0.898114 0.482595 0.620323 -0.200139
C21   C     C_R   0.132043 0.392277 0.624832 -0.178775
C22   C     C_R   0.867975 0.607872 0.624638 -0.178846
C23   C     C_R   0.121952 0.652088 0.578714 -0.208848
C24   C     C_R   0.878063 0.348049 0.578667 -0.209136
C25   C     C_R   0.111460 0.258708 0.661714 0.358270
C26   C     C_R   0.888556 0.741443 0.661495 0.358347
C27   C     C_R   0.092310 0.777386 0.589655 0.340211
C28   C     C_R   0.907706 0.222756 0.589654 0.340208
C29   C     C_R   0.352495 0.520203 0.503970 -0.039460
C30   C     C_R   0.647511 0.479864 0.504016 -0.039489
H1    H     H_    0.341039 0.450329 0.251536 0.159750
H2    H     H_    0.658946 0.548693 0.251187 0.159751
H3    H     H_    0.350960 0.597472 0.757483 0.162589
H4    H     H_    0.649080 0.403655 0.757957 0.162617
H5    H     H_    0.251481 0.468089 0.270040 0.131282
H6    H     H_    0.748505 0.530971 0.269673 0.131148
H7    H     H_    0.262249 0.616217 0.772343 0.128651
H8    H     H_    0.737787 0.384951 0.772793 0.128513
C31   C     C_R   0.977795 0.363406 0.663068 -0.097939
C32   C     C_R   0.022219 0.636742 0.663055 -0.097816
C33   C     C_R   0.970482 0.629238 0.662945 -0.078119
C34   C     C_R   0.029533 0.370912 0.663027 -0.078027
C35   C     C_R   0.948931 0.491982 0.650905 -0.073514
C36   C     C_R   0.051084 0.508166 0.650973 -0.073483
C37   C     C_R   0.953249 0.231563 0.664224 0.636218
C38   C     C_R   0.046765 0.768582 0.664200 0.635918
C39   C     C_R   0.939188 0.753219 0.657958 0.532076
C40   C     C_R   0.060829 0.246933 0.658108 0.532070
C41   C     C_1   0.500017 0.064592 0.500006 -0.177691
C42   C     C_1   0.499982 0.935407 0.499999 -0.177689
N3    N     N_1   0.500000 0.500000 0.073640 -0.037182
N4    N     N_1   0.500000 0.500000 0.926360 -0.037920
O13   O     O_3   0.140716 0.135549 0.678357 -0.475652
C43   C     C_3   0.139879 0.090794 0.844941 0.192719
H9    H     H_    0.104449 0.040445 0.873350 0.199016
H10   H     H_    0.145979 0.183383 0.930856 0.086195
C44   C     C_3   0.180290 0.978193 0.874562 -0.720074
H11   H     H_    0.216111 0.023749 0.841648 0.276337
H12   H     H_    0.180862 0.946152 0.006677 0.184191
H13   H     H_    0.174054 0.880097 0.799046 0.272137
O14   O     O_3   0.859298 0.864592 0.678155 -0.475633
C45   C     C_3   0.860107 0.909219 0.844780 0.192668
H14   H     H_    0.895550 0.959426 0.873354 0.198819
H15   H     H_    0.853949 0.816576 0.930580 0.086223
C46   C     C_3   0.819730 0.021928 0.874386 -0.719705
H16   H     H_    0.783912 0.976677 0.840800 0.276606
H17   H     H_    0.819041 0.053514 0.006628 0.184175
H18   H     H_    0.826103 0.120250 0.799377 0.271753
O15   O     O_3   0.107083 0.907904 0.526209 -0.473360
C47   C     C_3   0.089098 0.919202 0.362932 0.246930
H19   H     H_    0.048498 0.924529 0.362345 0.148534
H20   H     H_    0.101854 0.825327 0.286095 0.095550
C48   C     C_3   0.107479 0.056684 0.282795 -0.721094
H21   H     H_    0.147918 0.055127 0.280561 0.270898
H22   H     H_    0.093322 0.063971 0.155161 0.161913
H23   H     H_    0.094104 0.154143 0.350017 0.252420
O16   O     O_3   0.892938 0.092228 0.526248 -0.473259
C49   C     C_3   0.910820 0.081071 0.362838 0.246981
H24   H     H_    0.951422 0.076050 0.361928 0.147983
H25   H     H_    0.897927 0.174864 0.286098 0.095754
C50   C     C_3   0.892497 0.943453 0.282859 -0.720760
H26   H     H_    0.852054 0.944577 0.281196 0.271176
H27   H     H_    0.906507 0.936410 0.155029 0.161755
H28   H     H_    0.906079 0.846064 0.349814 0.252176
F1    F     F_    0.968960 0.119835 0.759884 -0.545561
F2    F     F_    0.031053 0.880301 0.759854 -0.545580
F3    F     F_    0.956059 0.885705 0.625000 -0.561806
F4    F     F_    0.043962 0.114456 0.625106 -0.561873

loop_
_geom_bond_atom_site_label_1
_geom_bond_atom_site_label_2
_geom_bond_distance
_ccdc_geom_bond_type
O16   C49   1.414766 S    
C31   C35   1.414018 A    
C44   H12   1.110136 S    
C44   H11   1.110554 S    
C19   C23   1.408786 A    
C20   C35   1.421765 A    
C50   H28   1.106096 S    
C50   H26   1.110475 S    
C13   H3    1.083404 S    
O14   C45   1.411284 S    
C11   C17   1.400381 A    
O5    C3    1.276963 A    
C7    N1    1.362020 A    
C21   C25   1.398062 A    
C8    N2    1.362005 A    
C19   C21   1.405665 A    
C9    H7    1.083377 S    
C22   C26   1.398039 A    
O13   C43   1.411299 S    
C45   H15   1.116575 S    
C33   C35   1.411649 A    
C34   C36   1.411638 A    
C32   C33   1.423930 A    
C7    C23   1.406280 A    
O7    Zn1   1.991305 S    
C5    C21   1.405152 A    
C20   C24   1.408767 A    
C8    C24   1.406281 A    
C28   O16   1.377197 S    
C50   H27   1.106021 S    
C5    O9    1.350047 S    
C10   C18   1.395121 A    
N1    C17   1.424653 S    
N2    C18   1.424614 S    
Zn2   N3    1.973043 S    
C43   H9    1.111287 S    
C48   H22   1.106019 S    
C24   C28   1.400437 A    
O3    Zn1   2.012522 S    
C6    O10   1.350054 S    
O3    C2    1.272735 A    
C5    N1    1.362994 A    
C14   H4    1.083365 S    
C12   C18   1.400369 A    
C6    N2    1.362981 A    
C15   H1    1.083193 S    
C34   C40   1.414624 A    
C16   H2    1.083157 S    
O2    C2    1.272759 A    
C10   H8    1.083351 S    
C46   H17   1.110077 S    
C11   H5    1.082950 S    
C33   C39   1.414623 A    
C9    C13   1.385514 A    
C47   H20   1.115699 S    
C11   C15   1.394889 A    
N3    N4    1.192995 T    
C27   O15   1.377246 S    
C12   C16   1.394919 A    
C1    C41   1.408748 S    
O8    Zn2   1.991308 S    
C47   H19   1.114875 S    
C23   C27   1.400442 A    
C49   C50   1.519678 S    
O15   C47   1.414759 S    
C46   H16   1.110678 S    
C32   C36   1.413993 A    
C13   C29   1.404371 A    
C19   C36   1.421769 A    
C4    C30   1.460932 S    
C37   F1    1.351443 S    
C2    C42   1.408748 S    
O6    C4    1.281542 A    
C43   C44   1.521127 S    
C48   H23   1.105937 S    
C49   H25   1.115740 S    
C39   F3    1.342198 S    
C10   C14   1.385498 A    
C44   H13   1.107919 S    
O1    C1    1.272748 A    
C3    C29   1.460840 S    
O1    Zn1   2.012555 S    
C46   H18   1.107997 S    
C25   O13   1.382211 S    
C40   F4    1.342168 S    
O6    Zn2   1.991267 S    
C45   H14   1.111311 S    
C16   C30   1.403691 A    
C14   C30   1.404401 A    
O4    C1    1.272745 A    
C47   C48   1.519710 S    
C28   C37   1.392817 A    
C8    O12   1.349287 S    
C12   H6    1.082919 S    
C45   C46   1.521138 S    
C31   C37   1.402476 A    
C20   C22   1.405661 A    
C32   C38   1.402448 A    
O4    Zn2   2.012523 S    
C49   H24   1.114881 S    
O2    Zn2   2.012554 S    
O7    C4    1.276966 A    
C7    O11   1.349274 S    
O8    C3    1.281511 A    
O5    Zn1   1.991270 S    
C26   O14   1.382201 S    
C41   C42   1.190371 T    
C15   C29   1.403642 A    
C31   C34   1.423942 A    
C9    C17   1.395133 A    
C43   H10   1.116548 S    
C25   C40   1.397291 A    
C48   H21   1.110391 S    
C26   C39   1.397286 A    
C27   C38   1.392845 A    
C6    C22   1.405138 A    
C38   F2    1.351432 S    
Zn1   N4    1.973043 S    
