data_mof_unit_4176.cif
_audit_creation_date              2012-12-10T17:54:17-0500
_audit_creation_method            fapswitch 2.2
_symmetry_space_group_name_H-M    P1
_symmetry_Int_Tables_number       1
_space_group_crystal_system       triclinic
_cell_length_a                    27.59804
_cell_length_b                    10.665181
_cell_length_c                    9.922405
_cell_angle_alpha                 89.057092
_cell_angle_beta                  89.124027
_cell_angle_gamma                 93.405954
_cell_volume                      2914.60119985

loop_
_atom_site_label
_atom_site_type_symbol
_atom_type_description
_atom_site_fract_x
_atom_site_fract_y
_atom_site_fract_z
_atom_type_partial_charge
C1    C     C_R   0.503287 0.260275 0.502667 0.890366
C2    C     C_R   0.975943 0.455048 0.380848 -0.101916
C3    C     C_R   0.978060 0.659840 0.492313 0.115687
C4    C     C_R   0.406778 0.510840 0.500489 0.842833
C5    C     C_R   0.951595 0.553621 0.440998 0.019357
C6    C     C_R   0.948124 0.360650 0.312464 0.582355
C7    C     C_R   0.897732 0.355218 0.320321 -0.194230
C8    C     C_R   0.873632 0.444068 0.393658 -0.121801
C9    C     C_R   0.900425 0.544585 0.452653 -0.062752
C10   C     C_R   0.876092 0.635238 0.524732 0.008268
C11   C     C_R   0.825406 0.623947 0.535715 0.509839
C12   C     C_R   0.274501 0.476601 0.585307 -0.069529
C13   C     C_R   0.823046 0.436189 0.407452 0.549737
C14   C     C_R   0.723968 0.497410 0.607715 -0.090209
C15   C     C_R   0.673445 0.491144 0.613286 -0.199419
C16   C     C_R   0.495626 0.738593 0.499051 0.861309
C17   C     C_R   0.671833 0.526806 0.370931 -0.205512
C18   C     C_R   0.722161 0.533797 0.365838 -0.094597
C19   C     C_R   0.748323 0.518875 0.483919 0.300474
C20   C     C_R   0.026834 0.453627 0.394873 0.107970
C21   C     C_R   0.053329 0.563955 0.437254 0.047872
C22   C     C_R   0.029060 0.672619 0.471982 -0.113125
C23   C     C_R   0.255360 0.559317 0.492280 0.221758
C24   C     C_R   0.051795 0.343474 0.375873 -0.150809
C25   C     C_R   0.107625 0.787418 0.496126 0.676743
C26   C     C_R   0.953054 0.744773 0.571016 -0.230006
C27   C     C_R   0.902850 0.733587 0.585697 -0.134987
C28   C     C_R   0.594032 0.501000 0.498868 0.880931
C29   C     C_R   0.056953 0.788137 0.487840 0.057529
C30   C     C_R   0.496099 0.102240 0.765045 0.564586
C31   C     C_R   0.471125 0.037427 0.870813 -0.347518
C32   C     C_R   0.445574 0.923871 0.847252 0.602352
C33   C     C_R   0.449008 0.869366 0.721173 -0.266361
C34   C     C_R   0.104301 0.564539 0.447755 -0.136838
C35   C     C_R   0.476579 0.931371 0.615740 -0.072505
C36   C     C_R   0.493365 0.056264 0.631107 -0.035424
C37   C     C_R   0.506554 0.126462 0.510946 -0.065111
C38   C     C_R   0.514502 0.066333 0.389452 -0.227031
C39   C     C_R   0.507988 0.938669 0.383786 -0.187950
C40   C     C_R   0.178560 0.454865 0.438523 0.522638
C41   C     C_R   0.490206 0.870851 0.497167 -0.048209
C42   C     C_R   0.421761 0.358349 0.135345 0.188667
C43   C     C_R   0.382259 0.316511 0.056207 -0.220194
C44   C     C_R   0.388379 0.301045 0.918909 0.159090
C45   C     C_R   0.128295 0.453811 0.424344 0.027413
C46   C     C_R   0.429969 0.355614 0.857631 -0.208560
C47   C     C_R   0.464164 0.430462 0.928113 0.162416
C48   C     C_R   0.462645 0.430590 0.072838 0.090632
C49   C     C_R   0.534540 0.566064 0.068951 -0.097408
C50   C     C_R   0.534314 0.566678 0.926074 -0.052104
C51   C     C_R   0.181612 0.670713 0.499754 0.576779
C52   C     C_R   0.286337 0.635715 0.408926 -0.101921
C53   C     C_R   0.336612 0.627923 0.414535 0.175872
C54   C     C_R   0.324215 0.464571 0.589020 -0.245522
C55   C     C_3   0.043078 0.999651 0.574941 -0.634595
C56   C     C_R   0.101695 0.343929 0.389442 -0.161113
C57   C     C_3   0.384470 0.248319 0.337494 -0.737211
C58   C     C_3   0.330027 0.116671 0.905857 -0.697245
C59   C     C_3   0.365484 0.844910 0.374075 -0.739611
C60   C     C_R   0.131256 0.675115 0.482993 -0.213196
C61   C     C_R   0.355393 0.535448 0.500805 -0.121111
C62   C     C_R   0.647079 0.505664 0.494700 -0.047113
F1    F     F_    0.133861 0.898478 0.508535 -0.608538
F2    F     F_    0.528160 0.197438 0.799162 -0.644156
F3    F     F_    0.420488 0.862035 0.949158 -0.665615
F4    F     F_    0.968676 0.278639 0.229047 -0.673671
H1    H     H_    0.338300 0.397110 0.657912 0.173350
H2    H     H_    0.430345 0.778506 0.706703 0.194625
H3    H     H_    0.517841 0.893145 0.291291 0.179214
H4    H     H_    0.562778 0.620209 0.120439 0.136938
H5    H     H_    0.349933 0.273615 0.104016 0.183317
H6    H     H_    0.435207 0.335414 0.754322 0.203733
H7    H     H_    0.562392 0.621497 0.870382 0.139177
H8    H     H_    0.119237 0.256854 0.374635 0.210109
H9    H     H_    0.655116 0.474669 0.709811 0.172925
H10   H     H_    0.744218 0.485482 0.699200 0.151197
H11   H     H_    0.877656 0.280864 0.268153 0.219288
H12   H     H_    0.271102 0.700299 0.338033 0.166020
H13   H     H_    0.033280 0.253547 0.358178 0.214249
H14   H     H_    0.004668 0.910089 0.415760 0.243379
H15   H     H_    0.007443 0.031110 0.609993 0.202072
H16   H     H_    0.064845 0.082243 0.532592 0.260822
H17   H     H_    0.061988 0.961663 0.663506 0.258136
H18   H     H_    0.447481 0.211041 0.235984 0.225550
H19   H     H_    0.395760 0.230586 0.442663 0.217605
H20   H     H_    0.366864 0.159711 0.299293 0.220578
H21   H     H_    0.357809 0.322246 0.338091 0.251222
H22   H     H_    0.365817 0.209600 0.744176 0.206489
H23   H     H_    0.972055 0.817319 0.627328 0.176389
H24   H     H_    0.310549 0.059224 0.829028 0.252543
H25   H     H_    0.302507 0.145018 0.980248 0.244887
H26   H     H_    0.356739 0.058045 0.955664 0.266589
H27   H     H_    0.401642 0.690916 0.313837 0.264716
H28   H     H_    0.389685 0.905024 0.305997 0.253024
H29   H     H_    0.378156 0.856210 0.479169 0.229083
H30   H     H_    0.328157 0.877494 0.366087 0.261556
H31   H     H_    0.652406 0.539148 0.278071 0.163087
H32   H     H_    0.885168 0.801781 0.646076 0.195013
H33   H     H_    0.740967 0.551109 0.270125 0.148039
H34   H     H_    0.526250 0.117960 0.298570 0.171288
H35   H     H_    0.472415 0.074373 0.971804 0.181304
H36   H     H_    0.250656 0.418667 0.651624 0.166755
N1    N     N_R   0.203961 0.561648 0.477677 -0.359208
N2    N     N_R   0.800110 0.525681 0.477126 -0.356264
N3    N     N_R   0.499540 0.498800 0.142780 -0.107711
N4    N     N_R   0.499520 0.498720 0.857170 -0.093112
N5    N     N_2   0.035890 0.906525 0.471116 -0.294020
N6    N     N_2   0.427013 0.286836 0.255253 -0.228823
N7    N     N_2   0.354465 0.226365 0.841476 -0.312257
N8    N     N_2   0.366925 0.714914 0.335114 -0.294446
O1    O     O_R   0.500000 0.316780 0.614690 -0.578568
O2    O     O_R   0.571250 0.499990 0.614680 -0.601925
O3    O     O_R   0.571240 0.499970 0.385350 -0.625344
O4    O     O_2   0.202050 0.350192 0.412439 -0.545421
O5    O     O_2   0.796891 0.339556 0.352485 -0.547585
O6    O     O_2   0.208056 0.773509 0.539866 -0.477664
O7    O     O_2   0.801493 0.711161 0.602680 -0.552433
O8    O     O_R   0.500000 0.316750 0.385360 -0.614606
O9    O     O_R   0.428760 0.500030 0.614650 -0.643870
O10   O     O_R   0.428750 0.500010 0.385320 -0.596091
O11   O     O_R   0.500000 0.683250 0.614640 -0.615381
O12   O     O_R   0.500000 0.683220 0.385310 -0.633150
Zn1   Zn    Zn3+2 0.500000 0.500020 0.653130 0.989749
Zn2   Zn    Zn3+2 0.500000 0.499980 0.346870 0.965115

loop_
_geom_bond_atom_site_label_1
_geom_bond_atom_site_label_2
_ccdc_geom_bond_type
C10   C27   A    
C53   N8    S    
C15   H9    S    
C27   H32   S    
C8    C13   A    
C22   C29   A    
C30   F2    S    
C58   N7    S    
C35   C36   A    
C43   C44   A    
C7    C8    A    
C39   C41   A    
C31   C32   A    
C28   O2    A    
C26   H23   S    
C12   H36   S    
H14   N5    S    
C26   C27   A    
C31   H35   S    
C36   C37   A    
C30   C31   A    
C51   N1    A    
C59   N8    S    
C57   H20   S    
C18   C19   A    
C25   F1    S    
C42   C43   A    
C16   O12   A    
H18   N6    S    
C53   C61   A    
C40   O4    S    
C20   C24   A    
C45   C56   A    
C8    C9    A    
N4    Zn1   S    
C4    O9    A    
C11   N2    A    
C25   C60   A    
C55   H15   S    
C58   H25   S    
C46   H6    S    
C1    C37   S    
H27   N8    S    
C7    H11   S    
C44   N7    S    
C21   C22   A    
C34   C60   A    
C2    C6    A    
C59   H29   S    
C52   H12   S    
C44   C46   A    
C25   C29   A    
C40   C45   A    
C23   N1    S    
C56   H8    S    
C2    C20   A    
C47   C48   A    
O2    Zn1   S    
C38   H34   S    
C28   O3    A    
C50   H7    S    
O8    Zn2   S    
C54   H1    S    
O1    Zn1   S    
C4    C61   S    
C57   H21   S    
N3    Zn2   S    
C55   N5    S    
C55   H16   S    
C14   H10   S    
C16   O11   A    
C5    C9    A    
C37   C38   A    
C17   C62   A    
C19   N2    S    
C24   H13   S    
C48   N3    A    
C12   C23   A    
C47   N4    A    
C17   C18   A    
C39   H3    S    
C34   C45   A    
C42   C48   A    
C13   N2    A    
C58   H24   S    
C13   O5    S    
H22   N7    S    
C59   H28   S    
C49   H4    S    
C2    C5    A    
C59   H30   S    
C55   H17   S    
C11   O7    S    
O12   Zn2   S    
C52   C53   A    
C9    C10   A    
C46   C47   A    
C43   H5    S    
C14   C19   A    
C3    C26   A    
C29   N5    S    
C3    C5    A    
C49   N3    A    
C6    C7    A    
C21   C34   A    
C54   C61   A    
O9    Zn1   S    
C24   C56   A    
C51   O6    S    
C30   C36   A    
C32   C33   A    
C1    O1    A    
C40   N1    A    
C23   C52   A    
C38   C39   A    
O3    Zn2   S    
C42   N6    S    
C33   C35   A    
C15   C62   A    
C57   H19   S    
C1    O8    A    
C35   C41   A    
O11   Zn1   S    
C10   C11   A    
C6    F4    S    
C57   N6    S    
C20   C21   A    
C17   H31   S    
C49   C50   A    
C18   H33   S    
C50   N4    A    
C14   C15   A    
C4    O10   A    
C3    C22   A    
C51   C60   A    
C58   H26   S    
C16   C41   S    
C12   C54   A    
O10   Zn2   S    
C33   H2    S    
C32   F3    S    
C28   C62   S    
