data_mof_unit_300.cif
_audit_creation_date              2013-03-05T16:00:16-0500
_audit_creation_method            fapswitch 2.2
_symmetry_space_group_name_H-M    P1
_symmetry_Int_Tables_number       1
_space_group_crystal_system       triclinic
_cell_length_a                    11.695279
_cell_length_b                    14.71299
_cell_length_c                    14.833775
_cell_angle_alpha                 64.693448
_cell_angle_beta                  103.65582
_cell_angle_gamma                 102.314653
_cell_volume                      2223.88467875

loop_
_atom_site_label
_atom_site_type_symbol
_atom_site_description
_atom_site_fract_x
_atom_site_fract_y
_atom_site_fract_z
_atom_type_partial_charge
O1    O     O_R   0.459870 0.022090 0.338120 -0.598812
O2    O     O_R   0.540130 0.977910 0.661880 -0.600603
O3    O     O_R   0.511290 0.160150 0.379180 -0.534030
O4    O     O_R   0.488710 0.839850 0.620820 -0.529926
C1    C     C_R   0.482480 0.119481 0.312562 0.789791
C2    C     C_R   0.521136 0.880149 0.687452 0.787460
O5    O     O_R   0.311490 0.930960 0.479480 -0.590738
O6    O     O_R   0.688510 0.069040 0.520520 -0.598269
O7    O     O_R   0.362910 0.069020 0.520540 -0.511455
O8    O     O_R   0.637090 0.930980 0.479460 -0.513814
C3    C     C_R   0.284300 0.000419 0.499950 0.817626
C4    C     C_R   0.715701 0.999545 0.500084 0.815148
Cu1   Cu    Cu3+1 0.469550 0.918260 0.475690 1.010996
Cu2   Cu    Cu3+1 0.530450 0.081740 0.524310 1.005183
C5    C     C_1   0.162725 0.000863 0.500152 -0.156817
C6    C     C_1   0.837254 0.999008 0.499926 -0.142758
C7    C     C_1   0.060044 0.000359 0.500116 0.006649
C8    C     C_1   0.939913 0.999425 0.499980 0.014270
C9    C     C_R   0.472442 0.185951 0.204746 -0.097374
C10   C     C_R   0.540303 0.812015 0.794752 -0.062041
C11   C     C_R   0.384462 0.219158 0.031092 -0.172479
C12   C     C_R   0.628990 0.780150 0.968396 -0.165874
C13   C     C_R   0.408526 0.150885 0.130915 -0.174674
C14   C     C_R   0.597370 0.848361 0.869391 -0.191843
C15   C     C_R   0.522327 0.287132 0.176265 -0.119308
C16   C     C_R   0.507475 0.707892 0.821806 -0.218030
C17   C     C_R   0.500239 0.358122 0.075929 0.092354
C18   C     C_R   0.527702 0.638736 0.922703 0.065785
C19   C     C_R   0.423803 0.322925 0.004545 0.051837
C20   C     C_R   0.598997 0.675433 0.994252 0.116483
C21   C     C_R   0.540973 0.463947 0.047053 -0.015849
C22   C     C_R   0.487650 0.533328 0.952123 -0.128144
C23   C     C_R   0.396418 0.494634 0.889696 0.385249
C24   C     C_R   0.631109 0.503378 0.109502 0.451598
C25   C     C_R   0.376260 0.391689 0.911284 -0.207371
C26   C     C_R   0.649075 0.607616 0.087061 -0.302885
H1    H     H_    0.310547 0.364764 0.860040 0.164475
H2    H     H_    0.711746 0.636662 0.138198 0.143523
H3    H     H_    0.471794 0.680804 0.762467 0.220661
H4    H     H_    0.570556 0.309208 0.236053 0.254602
H5    H     H_    0.624027 0.928712 0.850210 0.154668
H6    H     H_    0.371111 0.072108 0.151149 0.152196
H7    H     H_    0.328113 0.191800 0.976115 0.134571
H8    H     H_    0.681071 0.809000 0.023662 0.141541
N1    N     N_R   0.576230 0.204580 0.560790 -0.188043
N2    N     N_R   0.423770 0.795420 0.439210 -0.186654
C27   C     C_R   0.731122 0.303211 0.629316 -0.304473
C28   C     C_R   0.307916 0.723756 0.324624 -0.303763
C29   C     C_R   0.685008 0.213564 0.616347 -0.010596
C30   C     C_R   0.337482 0.801823 0.358334 -0.004090
C31   C     C_R   0.506787 0.281591 0.520380 0.618800
C32   C     C_R   0.483369 0.712341 0.490328 0.628920
C33   C     C_R   0.556640 0.380359 0.518697 -0.094127
C34   C     C_R   0.468854 0.637238 0.449673 -0.095245
C35   C     C_R   0.668522 0.387292 0.579469 0.118763
C36   C     C_R   0.373318 0.641415 0.369813 0.120253
C37   C     C_R   0.500716 0.471460 0.460718 0.034631
C38   C     C_R   0.543184 0.558238 0.485331 0.031367
C39   C     C_R   0.662405 0.565686 0.536117 -0.039974
C40   C     C_R   0.412166 0.484242 0.373035 -0.029357
C41   C     C_R   0.720742 0.479429 0.585695 -0.260286
C42   C     C_R   0.347599 0.566541 0.331563 -0.262412
H9    H     H_    0.810625 0.485354 0.625969 0.137084
H10   H     H_    0.279845 0.574875 0.265337 0.132791
H11   H     H_    0.290988 0.867861 0.320114 0.144223
H12   H     H_    0.737254 0.151169 0.649697 0.147911
H13   H     H_    0.817973 0.308175 0.674485 0.155085
H14   H     H_    0.236846 0.729416 0.261269 0.152253
C43   C     C_2   0.737892 0.663641 0.524826 0.427577
H15   H     H_    0.814155 0.666552 0.582235 0.062281
O9    O     O_2   0.719905 0.740595 0.449068 -0.525475
C44   C     C_2   0.400096 0.427386 0.309125 0.418408
H16   H     H_    0.316706 0.419058 0.260503 0.060511
O10   O     O_2   0.485411 0.394570 0.305696 -0.547439
O11   O     O_3   0.316515 0.552588 0.813213 -0.744701
H17   H     H_    0.300542 0.603671 0.834167 0.324842
O12   O     O_3   0.707900 0.441724 0.186428 -0.743150
H18   H     H_    0.765003 0.481617 0.221119 0.331549
O13   O     O_3   0.551709 0.702055 0.582631 -0.712352
H19   H     H_    0.550057 0.628740 0.626079 0.285902
O14   O     O_3   0.388353 0.259139 0.487140 -0.707726
H20   H     H_    0.343359 0.302466 0.498107 0.283138

loop_
_geom_bond_atom_site_label_1
_geom_bond_atom_site_label_2
_geom_bond_distance
_ccdc_geom_bond_type
C17   C19   1.418787 A    
O7    Cu2   1.917886 S    
O14   H20   0.990902 S    
C27   C29   1.389999 A    
O12   H18   0.991997 S    
O5    C3    1.298927 A    
C13   H6    1.083152 S    
O1    C1    1.299296 A    
C40   C42   1.395962 A    
C25   H1    1.084944 S    
C24   O12   1.382104 S    
Cu1   N2    2.032864 S    
C16   H3    1.078564 S    
C40   C44   1.477462 S    
N2    C32   1.369820 A    
C28   C36   1.400349 A    
O4    Cu1   1.942930 S    
C43   O9    1.221173 D    
C42   H10   1.085773 S    
C11   H7    1.084027 S    
C3    C5    1.423972 S    
C23   O11   1.378301 S    
C12   H8    1.083834 S    
C4    C6    1.423868 S    
C32   O13   1.376281 S    
C31   O14   1.375643 S    
C24   C26   1.402188 A    
C28   C30   1.388835 A    
Cu1   Cu2   2.706024 S    
C14   H5    1.082987 S    
O2    C2    1.303517 A    
O2    Cu2   1.952031 S    
C27   H13   1.083900 S    
C32   C34   1.433473 A    
Cu2   N1    2.032864 S    
C33   C35   1.414190 A    
C34   C36   1.413370 A    
C39   C41   1.396943 A    
C29   H12   1.081255 S    
C17   C21   1.429848 A    
C10   C14   1.400811 A    
C18   C22   1.422340 A    
C44   O10   1.217255 D    
C33   C37   1.444596 A    
C37   C40   1.427418 A    
C38   C39   1.425867 A    
C11   C19   1.403415 A    
C31   C33   1.437618 A    
C9    C13   1.398705 A    
O11   H17   0.991666 S    
C21   C22   1.428944 A    
N1    C29   1.357007 A    
O6    C4    1.299110 A    
C41   H9    1.085559 S    
C7    C8    1.401634 S    
C21   C24   1.429492 A    
C28   H14   1.083876 S    
O7    C3    1.300925 A    
O3    Cu2   1.942928 S    
O8    C4    1.300745 A    
C39   C43   1.485015 S    
O4    C2    1.304004 A    
C11   C13   1.390336 A    
C12   C14   1.393758 A    
O1    Cu1   1.952030 S    
C27   C35   1.400647 A    
C34   C38   1.440400 A    
C5    C7    1.199193 T    
N2    C30   1.356038 A    
O6    Cu2   1.913276 S    
C12   C20   1.404171 A    
C44   H16   1.085733 S    
O3    C1    1.307821 A    
O8    Cu1   1.917888 S    
C1    C9    1.466690 S    
C15   C17   1.406202 A    
C2    C10   1.466924 S    
C19   C25   1.388080 A    
C16   C18   1.401734 A    
C20   C26   1.388563 A    
C22   C23   1.430089 A    
C26   H2    1.084554 S    
C15   H4    1.068699 S    
C37   C38   1.432665 A    
C10   C16   1.397001 A    
C35   C41   1.395152 A    
C18   C20   1.411829 A    
C23   C25   1.385969 A    
C36   C42   1.392266 A    
C43   H15   1.085731 S    
C9    C15   1.394001 A    
C30   H11   1.081664 S    
O13   H19   0.990935 S    
O5    Cu1   1.913277 S    
C6    C8    1.199148 T    
N1    C31   1.372861 A    
