data_mof_unit_4891.cif
_audit_creation_date              2012-12-11T14:01:42-0500
_audit_creation_method            fapswitch 2.2
_symmetry_space_group_name_H-M    P1
_symmetry_Int_Tables_number       1
_space_group_crystal_system       triclinic
_cell_length_a                    19.029066
_cell_length_b                    10.95972
_cell_length_c                    18.786239
_cell_angle_alpha                 90.182564
_cell_angle_beta                  90.149266
_cell_angle_gamma                 89.698029
_cell_volume                      3917.84349355

loop_
_atom_site_label
_atom_site_type_symbol
_atom_type_description
_atom_site_fract_x
_atom_site_fract_y
_atom_site_fract_z
_atom_type_partial_charge
C1    C     C_R   0.272484 0.041956 0.853556 0.548087
C2    C     C_R   0.986436 0.667010 0.972129 -0.140940
C3    C     C_R   0.462655 0.158786 0.041766 -0.140098
C4    C     C_R   0.486469 0.167009 0.972105 -0.140888
C5    C     C_2   0.246492 0.581542 0.919495 -0.044125
C6    C     C_2   0.753136 0.572476 0.082050 -0.052895
C7    C     C_2   0.746497 0.081561 0.919501 -0.044107
C8    C     C_2   0.253128 0.072499 0.082040 -0.053283
C9    C     C_2   0.215666 0.490635 0.064083 0.077402
C10   C     C_2   0.749117 0.583310 0.923468 0.078785
C11   C     C_2   0.715671 0.990643 0.064083 0.077689
C12   C     C_R   0.707245 0.989621 0.141120 0.582964
C13   C     C_2   0.249109 0.083331 0.923458 0.079393
C14   C     C_2   0.280255 0.500969 0.035161 -0.078810
C15   C     C_2   0.715666 0.502614 0.965524 -0.095795
C16   C     C_2   0.780260 0.000982 0.035165 -0.078842
C17   C     C_2   0.215651 0.002646 0.965515 -0.095407
C18   C     C_2   0.293694 0.519599 0.958770 0.081022
C19   C     C_2   0.701715 0.525020 0.041168 0.094491
C20   C     C_2   0.793699 0.019613 0.958774 0.080982
C21   C     C_2   0.201702 0.025056 0.041158 0.094183
C22   C     C_2   0.512541 0.838820 0.584883 -0.106592
C23   C     C_R   0.772486 0.541950 0.853558 0.550226
C24   C     C_2   0.514709 0.829849 0.428768 -0.104487
C25   C     C_2   0.012441 0.339031 0.584835 -0.108635
C26   C     C_2   0.014663 0.329893 0.428753 -0.104687
C27   C     C_2   0.546466 0.748578 0.472152 -0.153111
C28   C     C_2   0.531590 0.740842 0.547595 -0.165999
C29   C     C_2   0.046727 0.249048 0.472185 -0.149551
C30   C     C_2   0.031854 0.241203 0.547629 -0.160595
C31   C     C_2   0.246567 0.564962 0.583199 -0.105332
C32   C     C_2   0.753552 0.567221 0.417149 -0.108138
C33   C     C_2   0.746639 0.065708 0.582981 -0.105362
C34   C     C_R   0.207244 0.489619 0.141120 0.583545
C35   C     C_2   0.245043 0.113050 0.430728 -0.103663
C36   C     C_2   0.237713 0.568649 0.428152 -0.104216
C37   C     C_2   0.761690 0.569692 0.572334 -0.088976
C38   C     C_2   0.737879 0.069459 0.427946 -0.092507
C39   C     C_2   0.243103 0.104117 0.586041 -0.105586
C40   C     C_R   0.471521 0.822721 0.853451 0.561227
C41   C     C_R   0.527647 0.821694 0.147146 0.566508
C42   C     C_R   0.971519 0.322722 0.853453 0.561622
C43   C     C_R   0.027644 0.321693 0.147150 0.566446
C44   C     C_2   0.182261 0.557564 0.472038 -0.152131
C45   C     C_R   0.462088 0.046167 0.076908 0.110988
C46   C     C_2   0.817437 0.561166 0.528512 -0.148913
C47   C     C_2   0.682360 0.059174 0.471817 -0.149095
C48   C     C_2   0.282305 0.181656 0.549371 -0.162582
C49   C     C_2   0.186852 0.582719 0.547615 -0.160486
C50   C     C_2   0.812749 0.586611 0.453153 -0.164380
C51   C     C_2   0.687002 0.084109 0.547372 -0.163029
C52   C     C_2   0.270184 0.200949 0.474106 -0.150266
C53   C     C_R   0.260816 0.636090 0.851020 0.552264
C54   C     C_R   0.739381 0.634537 0.149296 0.552429
C55   C     C_R   0.760817 0.136096 0.851022 0.552368
C56   C     C_R   0.504632 0.061655 0.933618 0.135021
C57   C     C_R   0.239380 0.134542 0.149294 0.554853
C58   C     C_R   0.270989 0.048206 0.649667 0.555807
C59   C     C_R   0.726106 0.042580 0.353744 0.558890
C60   C     C_R   0.773821 0.542365 0.646362 0.550569
C61   C     C_R   0.226024 0.542320 0.353854 0.556713
C62   C     C_R   0.472407 0.824338 0.649499 0.556211
C63   C     C_R   0.532346 0.823564 0.354031 0.552915
C64   C     C_R   0.972365 0.324366 0.649467 0.552117
C65   C     C_R   0.032304 0.323578 0.354014 0.551415
C66   C     C_R   0.260012 0.633792 0.647420 0.556848
C67   C     C_R   0.962063 0.546152 0.076928 0.111444
C68   C     C_R   0.740017 0.634518 0.352656 0.551802
C69   C     C_R   0.760036 0.133938 0.647375 0.556325
C70   C     C_R   0.238240 0.142542 0.356204 0.548594
C71   C     C_R   0.497127 0.827113 0.075197 -0.000134
C72   C     C_R   0.500073 0.833460 0.926004 0.018243
C73   C     C_R   0.997113 0.327108 0.075205 -0.000145
C74   C     C_R   0.000059 0.333465 0.926012 0.017965
C75   C     C_R   0.484191 0.939340 0.040047 0.007492
C76   C     C_R   0.495704 0.945007 0.965322 0.029070
C77   C     C_R   0.984170 0.439334 0.040060 0.007580
C78   C     C_R   0.004604 0.561663 0.933636 0.134940
C79   C     C_R   0.995681 0.445009 0.965334 0.028900
C80   C     C_R   0.507852 0.723367 0.962278 -0.161659
C81   C     C_R   0.504486 0.719821 0.035029 -0.165601
C82   C     C_R   0.007839 0.223370 0.962285 -0.161741
C83   C     C_R   0.004471 0.219819 0.035036 -0.165659
C84   C     C_R   0.962624 0.658775 0.041791 -0.140043
Cr1   Cr    Cr6+3 0.230530 0.836340 0.748870 1.011965
Cr2   Cr    Cr6+3 0.614360 0.677860 0.250770 1.028042
Cr3   Cr    Cr6+3 0.885640 0.177860 0.749230 1.040925
Cr4   Cr    Cr6+3 0.114360 0.177860 0.250770 1.029034
Cr5   Cr    Cr6+3 0.769470 0.836340 0.251130 1.012004
Cr6   Cr    Cr6+3 0.730530 0.336340 0.748870 1.012860
Cr7   Cr    Cr6+3 0.269470 0.336340 0.251130 1.009625
Cr8   Cr    Cr6+3 0.387420 0.989430 0.750820 1.043547
Cr9   Cr    Cr6+3 0.612580 0.989430 0.249180 1.034913
Cr10  Cr    Cr6+3 0.887420 0.489430 0.750820 1.041584
Cr11  Cr    Cr6+3 0.112580 0.489430 0.249180 1.032161
Cr12  Cr    Cr6+3 0.385640 0.677860 0.749230 1.039217
H1    H     H_    0.513193 0.637334 0.934151 0.143880
H2    H     H_    0.857280 0.632044 0.428920 0.155259
H3    H     H_    0.642148 0.129011 0.572012 0.153969
H4    H     H_    0.288110 0.287612 0.452976 0.159456
H5    H     H_    0.290502 0.587431 0.447100 0.093325
H6    H     H_    0.708629 0.587228 0.553472 0.087469
H7    H     H_    0.790721 0.087904 0.446861 0.095292
H8    H     H_    0.194554 0.068120 0.563959 0.102879
H9    H     H_    0.289708 0.513161 0.559984 0.101521
H10   H     H_    0.710783 0.515153 0.440060 0.104510
H11   H     H_    0.789759 0.013964 0.559708 0.110809
H12   H     H_    0.511679 0.631639 0.059864 0.165369
H13   H     H_    0.226476 0.025799 0.450084 0.093276
H14   H     H_    0.946490 0.741381 0.069149 0.114281
H15   H     H_    0.991087 0.756352 0.948188 0.102945
H16   H     H_    0.446524 0.241397 0.069120 0.114353
H17   H     H_    0.491124 0.256347 0.948160 0.102810
H18   H     H_    0.326373 0.504235 0.069327 0.119668
H19   H     H_    0.699291 0.414506 0.944762 0.117321
H20   H     H_    0.826378 0.004248 0.069332 0.119560
H21   H     H_    0.199274 0.914536 0.944756 0.117509
H22   H     H_    0.198100 0.614221 0.943126 0.114469
H23   H     H_    0.013184 0.137339 0.934156 0.143874
H24   H     H_    0.805429 0.583415 0.059979 0.104944
H25   H     H_    0.698110 0.114249 0.943135 0.114408
H26   H     H_    0.305420 0.083435 0.059967 0.104760
H27   H     H_    0.580699 0.677624 0.450887 0.155756
H28   H     H_    0.530559 0.650193 0.570839 0.153548
H29   H     H_    0.081223 0.178467 0.450951 0.158920
H30   H     H_    0.031167 0.150600 0.570950 0.153026
H31   H     H_    0.480612 0.902207 0.448258 0.093701
H32   H     H_    0.517573 0.929958 0.562866 0.102407
H33   H     H_    0.980249 0.401872 0.448181 0.085165
H34   H     H_    0.011665 0.131636 0.059869 0.165311
H35   H     H_    0.017155 0.430175 0.562743 0.095902
H36   H     H_    0.389532 0.987400 0.146983 0.214043
H37   H     H_    0.421865 0.125540 0.167552 0.238306
H38   H     H_    0.590299 0.040989 0.871616 0.229358
H39   H     H_    0.542535 0.165152 0.851086 0.220214
H40   H     H_    0.889519 0.487367 0.147014 0.213579
H41   H     H_    0.921850 0.625508 0.167584 0.237263
H42   H     H_    0.090273 0.541014 0.871634 0.229279
H43   H     H_    0.042507 0.665179 0.851112 0.220481
H44   H     H_    0.371977 0.398442 0.940207 0.216539
H45   H     H_    0.130076 0.538189 0.451296 0.156147
H46   H     H_    0.398973 0.539757 0.961064 0.219099
H47   H     H_    0.601011 0.464333 0.028899 0.204869
H48   H     H_    0.641587 0.418951 0.103567 0.233261
H49   H     H_    0.871971 0.898440 0.940200 0.216706
H50   H     H_    0.898979 0.039741 0.961069 0.218962
H51   H     H_    0.100995 0.964386 0.028889 0.204855
H52   H     H_    0.141571 0.918986 0.103553 0.233438
H53   H     H_    0.117376 0.531700 0.033934 0.239513
H54   H     H_    0.136338 0.380319 0.035376 0.244798
H55   H     H_    0.747958 0.766228 0.911824 0.247614
H56   H     H_    0.869912 0.543000 0.549125 0.151346
H57   H     H_    0.822076 0.708657 0.948798 0.233233
H58   H     H_    0.617383 0.031709 0.033931 0.239484
H59   H     H_    0.636345 0.880327 0.035372 0.244814
H60   H     H_    0.247959 0.266246 0.911800 0.247274
H61   H     H_    0.322070 0.208672 0.948790 0.233261
H62   H     H_    0.630104 0.040204 0.451123 0.155882
H63   H     H_    0.328612 0.223668 0.572666 0.153134
H64   H     H_    0.141961 0.627565 0.572217 0.153099
N1    N     N_3   0.435552 0.038988 0.148396 -0.594949
N2    N     N_3   0.767316 0.702838 0.948517 -0.629512
N3    N     N_3   0.655266 0.966084 0.021069 -0.662171
N4    N     N_3   0.267309 0.202862 0.948502 -0.629655
N5    N     N_3   0.538869 0.073472 0.865809 -0.587953
N6    N     N_3   0.935536 0.538961 0.148420 -0.596178
N7    N     N_3   0.038841 0.573495 0.865828 -0.587468
N8    N     N_3   0.362147 0.490875 0.931302 -0.593759
N9    N     N_3   0.634178 0.493762 0.069914 -0.590688
N10   N     N_3   0.862149 0.990877 0.931303 -0.593398
N11   N     N_3   0.134165 0.993804 0.069904 -0.590887
N12   N     N_3   0.155258 0.466075 0.021071 -0.662212
O1    O     O_R   0.215090 0.709860 0.828130 -0.546629
O2    O     O_R   0.543740 0.718170 0.330000 -0.511933
O3    O     O_R   0.956260 0.218170 0.670000 -0.513691
O4    O     O_R   0.043740 0.218170 0.330000 -0.511823
O5    O     O_R   0.320940 0.626760 0.674370 -0.500887
O6    O     O_R   0.679060 0.626760 0.325630 -0.508067
O7    O     O_R   0.820940 0.126760 0.674370 -0.499670
O8    O     O_R   0.179060 0.126760 0.325630 -0.503608
O9    O     O_3   0.334530 0.834540 0.749640 -0.255722
O10   O     O_3   0.665470 0.834540 0.250360 -0.281257
O11   O     O_3   0.834530 0.334540 0.749640 -0.257560
O12   O     O_R   0.784910 0.709860 0.171870 -0.544447
O13   O     O_3   0.165470 0.334540 0.250360 -0.282614
O14   O     O_R   0.236990 0.958390 0.823710 -0.515956
O15   O     O_R   0.763010 0.958390 0.176290 -0.513826
O16   O     O_R   0.736990 0.458390 0.823710 -0.514796
O17   O     O_R   0.263010 0.458390 0.176290 -0.512714
O18   O     O_R   0.332380 0.074750 0.830850 -0.506199
O19   O     O_R   0.667620 0.074750 0.169150 -0.512228
O20   O     O_R   0.832380 0.574750 0.830850 -0.504001
O21   O     O_R   0.167620 0.574750 0.169150 -0.511657
O22   O     O_R   0.445800 0.917770 0.825070 -0.459371
O23   O     O_R   0.715090 0.209860 0.828130 -0.546856
O24   O     O_R   0.554200 0.917770 0.174930 -0.478528
O25   O     O_R   0.945800 0.417770 0.825070 -0.458554
O26   O     O_R   0.054200 0.417770 0.174930 -0.478487
O27   O     O_R   0.456410 0.716580 0.829970 -0.521973
O28   O     O_R   0.543590 0.716580 0.170030 -0.513551
O29   O     O_R   0.956410 0.216580 0.829970 -0.521662
O30   O     O_R   0.043590 0.216580 0.170030 -0.513628
O31   O     O_R   0.321080 0.625290 0.822650 -0.450962
O32   O     O_R   0.678920 0.625290 0.177350 -0.461583
O33   O     O_R   0.821080 0.125290 0.822650 -0.450475
O34   O     O_R   0.284910 0.209860 0.171870 -0.542360
O35   O     O_R   0.178920 0.125290 0.177350 -0.460272
O36   O     O_R   0.214930 0.711450 0.668160 -0.512102
O37   O     O_R   0.785070 0.711450 0.331840 -0.511878
O38   O     O_R   0.714930 0.211450 0.668160 -0.512256
O39   O     O_R   0.285070 0.211450 0.331840 -0.513255
O40   O     O_R   0.236850 0.959870 0.675420 -0.498752
O41   O     O_R   0.763150 0.959870 0.324580 -0.488331
O42   O     O_R   0.736850 0.459870 0.675420 -0.494671
O43   O     O_R   0.263150 0.459870 0.324580 -0.497022
O44   O     O_R   0.332230 0.076350 0.670880 -0.513150
O45   O     O_R   0.445660 0.919250 0.676780 -0.496063
O46   O     O_R   0.667770 0.076350 0.329120 -0.511942
O47   O     O_R   0.832230 0.576350 0.670880 -0.514593
O48   O     O_R   0.167770 0.576350 0.329120 -0.509514
O49   O     O_R   0.554340 0.919250 0.323220 -0.496672
O50   O     O_R   0.945660 0.419250 0.676780 -0.504277
O51   O     O_R   0.054340 0.419250 0.323220 -0.498795
O52   O     O_R   0.456260 0.718170 0.670000 -0.515576

loop_
_geom_bond_atom_site_label_1
_geom_bond_atom_site_label_2
_ccdc_geom_bond_type
C44   C49   S    
H44   N8    S    
Cr12  O27   S    
C20   N10   S    
C30   H30   S    
C43   C73   S    
C56   C76   A    
C29   H29   S    
C80   H1    S    
C31   C66   S    
H53   N12   S    
Cr5   O15   S    
C63   O49   A    
C55   O23   A    
C67   C77   A    
C24   C27   D    
C7    C55   S    
Cr12  O9    S    
C75   C76   A    
C70   O8    A    
C53   O1    A    
C39   H8    S    
C40   O22   A    
C1    O14   A    
C15   C19   S    
C6    C19   D    
Cr7   O17   S    
C78   N7    S    
C29   C30   S    
Cr6   O16   S    
C13   N4    S    
C5    C53   S    
Cr6   O42   S    
C7    H25   S    
C41   O24   A    
Cr8   O22   S    
C10   C15   D    
Cr3   O11   S    
C37   H6    S    
C73   C83   A    
C46   H56   S    
Cr2   O6    S    
H52   N11   S    
C45   N1    S    
C11   C16   D    
C60   O42   A    
H36   N1    S    
Cr3   O33   S    
Cr7   O43   S    
C2    C84   A    
H54   N12   S    
Cr6   O23   S    
C35   C70   S    
Cr8   O18   S    
C44   H45   S    
Cr12  O52   S    
C33   H11   S    
C56   N5    S    
C24   H31   S    
Cr1   O1    S    
C61   O48   A    
C49   H64   S    
C62   O52   A    
Cr12  O5    S    
C17   C21   S    
Cr9   O49   S    
C35   H13   S    
C33   C69   S    
C41   C71   S    
C1    O18   A    
C77   C79   A    
Cr7   O13   S    
C81   H12   S    
C67   C84   A    
Cr11  O21   S    
C32   H10   S    
C4    C56   A    
C70   O39   A    
C31   H9    S    
C82   H23   S    
C31   C49   D    
C41   O28   A    
C59   O41   A    
C68   O37   A    
C16   H20   S    
C6    H24   S    
C23   O20   A    
C7    C20   D    
H51   N11   S    
Cr4   O8    S    
Cr10  O20   S    
Cr9   O19   S    
C51   H3    S    
C55   O33   A    
C66   O5    A    
C2    H15   S    
C50   H2    S    
H42   N7    S    
C42   C74   S    
C62   O45   A    
C4    H17   S    
H47   N9    S    
C83   H34   S    
Cr7   O39   S    
C60   O47   A    
Cr6   O38   S    
C18   N8    S    
C78   C79   A    
C25   C30   D    
C47   C51   S    
C5    C18   D    
H59   N3    S    
C14   H18   S    
C39   C58   S    
Cr3   O7    S    
C57   O34   A    
C3    C45   A    
C84   H14   S    
H37   N1    S    
Cr9   O46   S    
Cr2   O2    S    
C25   C64   S    
C9    C14   D    
Cr5   O12   S    
C38   H7    S    
C2    C78   A    
C8    C57   S    
C22   C62   S    
H46   N8    S    
C66   O36   A    
Cr9   O10   S    
H58   N3    S    
C22   H32   S    
Cr2   O10   S    
C3    H16   S    
C16   C20   S    
H55   N2    S    
C43   O30   A    
C11   N3    S    
Cr11  O48   S    
H39   N5    S    
H38   N5    S    
C64   O50   A    
C72   C76   A    
C53   O31   A    
C64   O3    A    
H43   N7    S    
H61   N4    S    
C32   C50   D    
C38   C47   D    
C26   H33   S    
C34   O21   A    
Cr4   O13   S    
C40   O27   A    
C42   O25   A    
C6    C54   S    
C24   C63   S    
C58   O40   A    
C74   C79   A    
H50   N10   S    
C65   O4    A    
C9    C34   S    
C54   O12   A    
C36   C44   D    
Cr9   O24   S    
C1    C13   S    
Cr10  O11   S    
Cr4   O35   S    
C3    C4    A    
C25   H35   S    
Cr1   O40   S    
Cr2   O32   S    
C65   O51   A    
Cr7   O34   S    
C48   H63   S    
Cr11  O13   S    
Cr12  O31   S    
Cr5   O41   S    
C74   C82   A    
Cr1   O14   S    
C12   O19   A    
C57   O35   A    
H49   N10   S    
C35   C52   D    
C27   H27   S    
C40   C72   S    
C26   C65   S    
C14   C18   S    
C34   O17   A    
C19   N9    S    
C80   C81   A    
C9    N12   S    
C59   O46   A    
C8    C21   D    
Cr5   O37   S    
C11   C12   S    
C28   H28   S    
Cr1   O9    S    
C17   H21   S    
C10   C23   S    
C33   C51   D    
Cr3   O3    S    
C46   C50   S    
Cr4   O4    S    
C13   C17   D    
H57   N2    S    
C45   C75   A    
Cr10  O25   S    
Cr5   O10   S    
C37   C46   D    
C72   C80   A    
C21   N11   S    
C69   O7    A    
C32   C68   S    
C71   C75   A    
C12   O15   A    
C8    H26   S    
C23   O16   A    
H40   N6    S    
Cr11  O26   S    
C54   O32   A    
H48   N9    S    
C68   O6    A    
Cr10  O47   S    
C52   H4    S    
Cr8   O44   S    
C43   O26   A    
C15   H19   S    
Cr8   O45   S    
Cr11  O51   S    
C37   C60   S    
H41   N6    S    
C38   C59   S    
C5    H22   S    
C48   C52   S    
Cr6   O11   S    
H60   N4    S    
C26   C29   D    
C10   N2    S    
C82   C83   A    
Cr2   O28   S    
C27   C28   S    
Cr10  O50   S    
C73   C77   A    
C36   H5    S    
C42   O29   A    
C22   C28   D    
C69   O38   A    
C61   O43   A    
Cr4   O30   S    
Cr8   O9    S    
C63   O2    A    
Cr3   O29   S    
C36   C61   S    
Cr1   O36   S    
C67   N6    S    
C39   C48   D    
C71   C81   A    
C47   H62   S    
C58   O44   A    
