data_mof_unit_1432.cif
_audit_creation_date              2012-12-11T15:50:39-0500
_audit_creation_method            fapswitch 2.2
_symmetry_space_group_name_H-M    P1
_symmetry_Int_Tables_number       1
_space_group_crystal_system       triclinic
_cell_length_a                    6.910081
_cell_length_b                    14.658701
_cell_length_c                    16.044097
_cell_angle_alpha                 90.0
_cell_angle_beta                  90.000029
_cell_angle_gamma                 89.999973
_cell_volume                      1625.15168933

loop_
_atom_site_label
_atom_site_type_symbol
_atom_type_description
_atom_site_fract_x
_atom_site_fract_y
_atom_site_fract_z
_atom_type_partial_charge
O1    O     O_R   0.638140 0.833910 0.163320 -0.528741
O2    O     O_R   0.361860 0.166090 0.836680 -0.528741
O3    O     O_R   0.361860 0.166090 0.663320 -0.528741
O4    O     O_R   0.638140 0.833910 0.336680 -0.528741
O5    O     O_R   0.138140 0.666090 0.336680 -0.528741
O6    O     O_R   0.861860 0.333910 0.663320 -0.528741
O7    O     O_R   0.861860 0.333910 0.836680 -0.528741
O8    O     O_R   0.138140 0.666090 0.163320 -0.528741
O9    O     O_R   0.308390 0.844930 0.336080 -0.537460
O10   O     O_R   0.691610 0.155070 0.663920 -0.537460
O11   O     O_R   0.691610 0.155070 0.836080 -0.537460
O12   O     O_R   0.308390 0.844930 0.163920 -0.537460
O13   O     O_R   0.808390 0.655070 0.163920 -0.537460
O14   O     O_R   0.191610 0.344930 0.836080 -0.537460
O15   O     O_R   0.191610 0.344930 0.663920 -0.537460
O16   O     O_R   0.808390 0.655070 0.336080 -0.537460
C1    C     C_R   0.478100 0.865502 0.366393 0.756192
C2    C     C_R   0.521900 0.134498 0.633607 0.756192
C3    C     C_R   0.521900 0.134498 0.866393 0.756192
C4    C     C_R   0.478100 0.865502 0.133607 0.756192
C5    C     C_R   0.978100 0.634498 0.133607 0.756191
C6    C     C_R   0.021900 0.365502 0.866393 0.756191
C7    C     C_R   0.021900 0.365502 0.633607 0.756191
C8    C     C_R   0.978100 0.634498 0.366393 0.756191
O17   O     O_3   0.471620 0.691320 0.250000 -0.363120
O18   O     O_3   0.528380 0.308680 0.750000 -0.363120
O19   O     O_3   0.971620 0.808680 0.250000 -0.363119
O20   O     O_3   0.028380 0.191320 0.750000 -0.363119
V1    V     V_3+5 0.196770 0.760880 0.250000 1.547246
V2    V     V_3+5 0.803230 0.239120 0.750000 1.547246
V3    V     V_3+5 0.696770 0.739120 0.250000 1.547245
V4    V     V_3+5 0.303230 0.260880 0.750000 1.547245
C9    C     C_R   0.843316 0.502389 0.445273 -0.169667
C10   C     C_R   0.156684 0.497611 0.554727 -0.169667
C11   C     C_R   0.156683 0.497611 0.945273 -0.169668
C12   C     C_R   0.843317 0.502389 0.054726 -0.169668
C13   C     C_R   0.343314 0.997609 0.054725 -0.169666
C14   C     C_R   0.656686 0.002390 0.945275 -0.169666
C15   C     C_R   0.656686 0.002390 0.554725 -0.169666
C16   C     C_R   0.343314 0.997610 0.445275 -0.169666
H1    H     H_    0.722035 0.502325 0.402490 0.162606
H2    H     H_    0.277965 0.497675 0.597510 0.162606
H3    H     H_    0.277964 0.497675 0.902489 0.162605
H4    H     H_    0.722036 0.502325 0.097510 0.162605
H5    H     H_    0.222030 0.997672 0.097508 0.162608
H6    H     H_    0.777970 0.002328 0.902492 0.162608
H7    H     H_    0.777969 0.002327 0.597508 0.162608
H8    H     H_    0.222031 0.997673 0.402492 0.162608
C17   C     C_R   0.850293 0.435829 0.507862 0.183728
C18   C     C_R   0.149707 0.564171 0.492138 0.183728
C19   C     C_R   0.149706 0.564171 0.007862 0.183728
C20   C     C_R   0.850294 0.435828 0.992138 0.183728
C21   C     C_R   0.350290 0.064170 0.992137 0.183727
C22   C     C_R   0.649710 0.935830 0.007863 0.183727
C23   C     C_R   0.649709 0.935830 0.492137 0.183727
C24   C     C_R   0.350290 0.064170 0.507863 0.183728
C25   C     C_R   0.008597 0.433010 0.564249 -0.114863
C26   C     C_R   0.991403 0.566990 0.435751 -0.114863
C27   C     C_R   0.991403 0.566990 0.064249 -0.114863
C28   C     C_R   0.008597 0.433010 0.935751 -0.114863
C29   C     C_R   0.508598 0.066990 0.935751 -0.114861
C30   C     C_R   0.491402 0.933009 0.064248 -0.114861
C31   C     C_R   0.491403 0.933010 0.435751 -0.114862
C32   C     C_R   0.508597 0.066990 0.564249 -0.114862
I1    I     I_    0.618469 0.340422 0.505961 -0.343858
I2    I     I_    0.381531 0.659578 0.494038 -0.343858
I3    I     I_    0.381529 0.659579 0.005961 -0.343858
I4    I     I_    0.618471 0.340421 0.994039 -0.343858
I5    I     I_    0.118463 0.159575 0.994035 -0.343859
I6    I     I_    0.881537 0.840425 0.005964 -0.343859
I7    I     I_    0.881538 0.840425 0.494036 -0.343859
I8    I     I_    0.118462 0.159575 0.505964 -0.343858

loop_
_geom_bond_atom_site_label_1
_geom_bond_atom_site_label_2
_ccdc_geom_bond_type
O17   V3    S    
O18   V4    S    
C9    C26   A    
O12   V1    S    
O19   V1    S    
C10   H2    S    
C12   C27   A    
C21   I5    S    
C13   C30   A    
O15   V4    S    
O16   V3    S    
C15   C32   A    
O11   C3    A    
C16   C31   A    
C17   I1    S    
O8    V1    S    
C3    C29   S    
C5    C27   S    
C6    C28   S    
C9    C17   A    
O1    V3    S    
C17   C25   A    
O3    C2    A    
O2    V4    S    
C16   H8    S    
C20   C28   A    
C21   C29   A    
C15   C23   A    
O11   V2    S    
C16   C24   A    
C23   C31   A    
C10   C25   A    
C24   C32   A    
C11   H3    S    
C12   C20   A    
O9    V1    S    
C14   C29   A    
C13   C21   A    
O15   C7    A    
C14   C22   A    
O16   C8    A    
O7    V2    S    
O5    V1    S    
O17   V1    S    
C10   C18   A    
O19   V3    S    
C18   C26   A    
O20   V4    S    
C22   C30   A    
C24   I8    S    
C11   C28   A    
O10   V2    S    
C22   I6    S    
O12   C4    A    
O8    C5    A    
O13   C5    A    
C19   I3    S    
C18   I2    S    
O4    C1    A    
O9    C1    A    
O6    V2    S    
O18   V2    S    
C11   C19   A    
C12   H4    S    
C19   C27   A    
C13   H5    S    
C15   H7    S    
C7    C25   S    
O1    C4    A    
O2    C3    A    
O13   V3    S    
O14   V4    S    
C20   I4    S    
O7    C6    A    
C9    H1    S    
O14   C6    A    
O20   V2    S    
C1    C31   S    
C2    C32   S    
O5    C8    A    
O10   C2    A    
O6    C7    A    
C4    C30   S    
O3    V4    S    
C14   H6    S    
O4    V3    S    
C8    C26   S    
C23   I7    S    
