data_mof_unit_434.cif
_audit_creation_date              2012-12-10T18:47:49-0500
_audit_creation_method            fapswitch 2.2
_symmetry_space_group_name_H-M    P1
_symmetry_Int_Tables_number       1
_space_group_crystal_system       triclinic
_cell_length_a                    9.891204
_cell_length_b                    10.770676
_cell_length_c                    15.33283
_cell_angle_alpha                 91.659885
_cell_angle_beta                  69.188136
_cell_angle_gamma                 90.349042
_cell_volume                      1526.24495362

loop_
_atom_site_label
_atom_site_type_symbol
_atom_type_description
_atom_site_fract_x
_atom_site_fract_y
_atom_site_fract_z
_atom_type_partial_charge
C1    C     C_R   0.501412 0.739960 0.499286 0.873206
C2    C     C_R   0.369188 0.933965 0.531915 -0.203680
C3    C     C_R   0.493826 0.128025 0.509189 -0.097706
C4    C     C_R   0.502825 0.872719 0.501682 -0.094340
C5    C     C_R   0.957313 0.418580 0.444007 0.007754
C6    C     C_R   0.040597 0.579580 0.558069 -0.015098
C7    C     C_R   0.100297 0.417287 0.444088 0.137517
C8    C     C_R   0.896295 0.580009 0.557738 0.136610
C9    C     C_R   0.409433 0.497703 0.676227 0.884481
C10   C     C_R   0.589654 0.508812 0.324207 0.873858
C11   C     C_R   0.349752 0.499857 0.778702 -0.123486
C12   C     C_R   0.497150 0.260387 0.503946 0.877377
C13   C     C_R   0.639573 0.550444 0.226921 -0.109193
C14   C     C_R   0.156689 0.464550 0.927253 0.110653
C15   C     C_R   0.781341 0.686052 0.102190 0.106348
C16   C     C_R   0.208840 0.457895 0.829492 0.054100
C17   C     C_R   0.754274 0.635328 0.190687 0.054422
C18   C     C_R   0.435178 0.548600 0.826220 -0.248401
C19   C     C_R   0.548952 0.525775 0.177226 -0.244456
C20   C     C_R   0.383608 0.562360 0.923562 0.051934
C21   C     C_R   0.556410 0.594215 0.099527 0.053211
C22   C     C_R   0.246706 0.510669 0.975733 0.045048
C23   C     C_R   0.300889 0.550469 0.117422 -0.078094
C24   C     C_R   0.680769 0.666969 0.055378 0.038848
C25   C     C_R   0.473750 0.614313 0.969604 0.010152
C26   C     C_R   0.443884 0.584786 0.062923 0.015635
C27   C     C_1   0.073939 0.447099 0.130997 0.204199
C28   C     C_1   0.813153 0.803815 0.921647 0.227191
C29   C     C_1   0.242779 0.583589 0.216296 0.161051
C30   C     C_1   0.587768 0.774433 0.851888 0.158589
C31   C     C_1   0.776078 0.883811 0.446831 0.181904
C32   C     C_1   0.221754 0.119406 0.576305 0.170898
C33   C     C_1   0.916397 0.330518 0.385550 0.271876
C34   C     C_R   0.589914 0.697043 0.927561 -0.081684
C35   C     C_1   0.077722 0.659705 0.622936 0.184292
C36   C     C_R   0.205675 0.507123 0.074092 -0.069363
C37   C     C_R   0.694148 0.722053 0.969337 -0.071188
C38   C     C_R   0.633351 0.939710 0.478232 -0.003865
C39   C     C_R   0.363057 0.061488 0.537638 -0.005738
C40   C     C_R   0.626792 0.066714 0.483059 -0.213463
H1    H     H_    0.465942 0.456204 0.202907 0.154509
H2    H     H_    0.999206 0.333661 0.958923 0.215884
H3    H     H_    0.900286 0.837846 0.108667 0.213336
H4    H     H_    0.998435 0.709302 0.058115 0.208846
H5    H     H_    0.226504 0.262560 0.424616 0.226082
H6    H     H_    0.286940 0.368418 0.337137 0.219614
H7    H     H_    0.825894 0.753273 0.605706 0.192165
H8    H     H_    0.780341 0.643337 0.687491 0.159464
H9    H     H_    0.545866 0.571256 0.786147 0.173136
H10   H     H_    0.727129 0.117606 0.464918 0.178905
H11   H     H_    0.268792 0.882577 0.552385 0.181004
H12   H     H_    0.889551 0.607876 0.262749 0.228693
H13   H     H_    0.764764 0.722514 0.306325 0.200281
H14   H     H_    0.084479 0.469579 0.748823 0.219217
H15   H     H_    0.174958 0.331238 0.738152 0.210405
H16   H     H_    0.941005 0.480680 0.954580 0.204198
N1    N     N_R   0.142780 0.500030 0.500020 -0.112743
N2    N     N_1   0.585623 0.836656 0.792081 -0.191708
N3    N     N_1   0.890643 0.840064 0.421702 -0.194681
N4    N     N_1   0.108459 0.165216 0.607377 -0.206520
N5    N     N_1   0.884936 0.258728 0.338546 -0.202931
N6    N     N_1   0.106074 0.723624 0.675910 -0.205234
N7    N     N_3   0.197519 0.326354 0.384779 -0.466172
N8    N     N_3   0.789293 0.662122 0.619208 -0.379691
N9    N     N_R   0.857220 0.499970 0.499980 -0.117564
N10   N     N_1   0.968781 0.397617 0.174924 -0.190247
N11   N     N_1   0.907670 0.869043 0.883107 -0.174561
N12   N     N_3   0.836560 0.681040 0.245206 -0.456934
N13   N     N_3   0.117799 0.402021 0.784392 -0.463957
N14   N     N_3   0.010334 0.426841 0.976200 -0.447317
N15   N     N_3   0.907163 0.761774 0.063330 -0.447479
N16   N     N_1   0.196376 0.612401 0.294619 -0.185704
O1    O     O_R   0.385370 0.683250 0.500010 -0.607466
O2    O     O_R   0.614630 0.316750 0.499990 -0.618630
O3    O     O_R   0.614700 0.683220 0.500000 -0.602118
O4    O     O_R   0.385300 0.316780 0.500000 -0.635181
O5    O     O_R   0.319830 0.500020 0.632250 -0.619764
O6    O     O_R   0.680170 0.499980 0.367750 -0.615587
O7    O     O_R   0.549160 0.499990 0.632240 -0.593516
O8    O     O_R   0.450840 0.500010 0.367760 -0.616771
Zn1   Zn    Zn3+2 0.346870 0.500020 0.500000 0.959492
Zn2   Zn    Zn3+2 0.653130 0.499980 0.500000 0.975841

loop_
_geom_bond_atom_site_label_1
_geom_bond_atom_site_label_2
_ccdc_geom_bond_type
C21   C26   A    
C11   C18   A    
C12   O2    A    
C34   C37   A    
C10   O6    A    
C23   C29   S    
C19   C21   A    
H8    N8    S    
C20   C25   A    
H2    N14   S    
C6    C35   S    
H4    N15   S    
C9    O7    A    
C23   C26   A    
C31   N3    T    
H13   N12   S    
C3    C12   S    
C2    C39   A    
C5    C33   S    
H12   N12   S    
C25   C34   A    
C29   N16   T    
C3    C39   A    
C8    N9    A    
C14   N14   S    
C6    N1    A    
O2    Zn2   S    
O1    Zn1   S    
C30   C34   S    
C1    O3    A    
C28   N11   T    
C5    N9    A    
H7    N8    S    
C5    C7    A    
C10   O8    A    
C13   C19   A    
C6    C8    A    
C25   C26   A    
H5    N7    S    
C2    C4    A    
C11   C16   A    
O6    Zn2   S    
O5    Zn1   S    
C24   C37   A    
C9    O5    A    
C9    C11   S    
C7    N7    S    
H15   N13   S    
C8    N8    S    
C15   C24   A    
C20   C22   A    
C3    C40   A    
H16   N14   S    
C12   O4    A    
C14   C16   A    
C32   N4    T    
C22   C36   A    
C15   C17   A    
C17   N12   S    
H3    N15   S    
C16   N13   S    
C4    C38   A    
O8    Zn1   S    
C10   C13   S    
O4    Zn1   S    
O7    Zn2   S    
O3    Zn2   S    
C27   C36   S    
C15   N15   S    
C31   C38   S    
C13   C17   A    
H6    N7    S    
C1    C4    S    
C1    O1    A    
C14   C22   A    
C27   N10   T    
C38   C40   A    
N9    Zn2   S    
H14   N13   S    
C28   C37   S    
C40   H10   S    
C30   N2    T    
C35   N6    T    
C18   C20   A    
N1    Zn1   S    
C2    H11   S    
C33   N5    T    
C23   C36   A    
C21   C24   A    
C32   C39   S    
C7    N1    A    
C19   H1    S    
C18   H9    S    
