data_mof_unit_2116.cif
_audit_creation_date              2012-12-10T17:22:07-0500
_audit_creation_method            fapswitch 2.2
_symmetry_space_group_name_H-M    P1
_symmetry_Int_Tables_number       1
_space_group_crystal_system       triclinic
_cell_length_a                    10.200947
_cell_length_b                    10.59782
_cell_length_c                    15.756792
_cell_angle_alpha                 89.834274
_cell_angle_beta                  79.789416
_cell_angle_gamma                 96.084438
_cell_volume                      1666.60162004

loop_
_atom_site_label
_atom_site_type_symbol
_atom_type_description
_atom_site_fract_x
_atom_site_fract_y
_atom_site_fract_z
_atom_type_partial_charge
C1    C     C_R   0.556615 0.733967 0.498466 0.927650
C2    C     C_3   0.424558 0.626960 0.057014 0.513597
C3    C     C_3   0.511342 0.515417 0.081626 -0.156910
C4    C     C_3   0.444604 0.381684 0.056276 -0.089626
C5    C     C_3   0.423471 0.387259 0.960931 -0.126567
C6    C     C_1   0.511684 0.513488 0.173275 0.009987
C7    C     C_1   0.501525 0.503907 0.824809 -0.044259
C8    C     C_1   0.496524 0.500302 0.750291 -0.239800
C9    C     C_2   0.588655 0.868462 0.511131 -0.369266
C10   C     C_2   0.493920 0.930321 0.557511 -0.174840
C11   C     C_2   0.410298 0.127470 0.521940 -0.004157
C12   C     C_R   0.498276 0.498725 0.661616 0.899842
C13   C     C_2   0.503722 0.067118 0.551854 -0.241180
C14   C     C_2   0.925235 0.504418 0.511882 -0.079318
C15   C     C_2   0.068215 0.474412 0.507387 -0.176484
C16   C     C_R   0.442911 0.264981 0.507147 0.902527
C17   C     C_R   0.501947 0.501382 0.338224 0.896661
C18   C     C_3   0.439160 0.625795 0.955075 0.213623
C19   C     C_3   0.665807 0.511728 0.929072 0.811476
C20   C     C_3   0.666616 0.536505 0.029397 0.439664
C21   C     C_1   0.507922 0.508074 0.248911 -0.233053
C22   C     C_3   0.512078 0.509522 0.914836 -0.137492
H1    H     H_    0.337520 0.610971 0.938714 0.091775
H2    H     H_    0.517512 0.314965 0.054124 0.194576
H3    H     H_    0.596115 0.117922 0.564983 0.180484
H4    H     H_    0.399162 0.880377 0.589172 0.179990
H5    H     H_    0.683979 0.917494 0.479695 0.153392
H6    H     H_    0.101218 0.388329 0.478815 0.166423
H7    H     H_    0.890072 0.578011 0.555138 0.138367
H8    H     H_    0.126082 0.634384 0.560352 0.163382
H9    H     H_    0.318879 0.402251 0.959040 0.185398
N1    N     N_2   0.842720 0.448890 0.465540 -0.040081
N2    N     N_2   0.157250 0.551040 0.534500 -0.194130
O1    O     O_R   0.431050 0.692470 0.506940 -0.609681
O2    O     O_R   0.651130 0.659650 0.484820 -0.607009
O3    O     O_R   0.389910 0.516410 0.633920 -0.605029
O4    O     O_R   0.609990 0.483590 0.611800 -0.618536
O5    O     O_R   0.348870 0.340350 0.515180 -0.594590
O6    O     O_R   0.568950 0.307530 0.493060 -0.627241
O7    O     O_R   0.390010 0.516410 0.388200 -0.605500
O8    O     O_R   0.610090 0.483590 0.366080 -0.602829
Zn1   Zn    Zn3+2 0.353060 0.521920 0.514770 0.926585
Zn2   Zn    Zn3+2 0.646940 0.478080 0.485230 0.934705
O9    O     O_3   0.484759 0.750634 0.076947 -0.607712
C23   C     C_3   0.443827 0.801043 0.160124 0.090216
H10   H     H_    0.422056 0.728559 0.212713 0.143151
H11   H     H_    0.353820 0.851454 0.160263 0.149195
C24   C     C_3   0.551713 0.901637 0.180348 -0.880812
H12   H     H_    0.588329 0.966983 0.123865 0.267730
H13   H     H_    0.509358 0.957908 0.236013 0.219276
H14   H     H_    0.636983 0.857335 0.198161 0.237135
C25   C     C_3   0.269632 0.615045 0.102171 -0.451201
C26   C     C_3   0.155030 0.539674 0.066215 -0.980944
H15   H     H_    0.136720 0.582673 0.005821 0.260385
H16   H     H_    0.162969 0.438812 0.057764 0.259650
H17   H     H_    0.062349 0.543339 0.114485 0.276251
H18   H     H_    0.259689 0.588337 0.171284 0.193083
H19   H     H_    0.236920 0.711367 0.101332 0.218196
C27   C     C_3   0.285002 0.052467 0.499228 -0.393480
C28   C     C_3   0.190469 0.129358 0.460946 -0.899268
H20   H     H_    0.138622 0.188104 0.511630 0.267226
H21   H     H_    0.245474 0.189336 0.405301 0.261968
H22   H     H_    0.112714 0.063693 0.437800 0.240454
H23   H     H_    0.317147 0.979733 0.451488 0.224930
H24   H     H_    0.226839 0.002078 0.558217 0.207331
O10   O     O_3   0.506684 0.742502 0.917580 -0.608652
C29   C     C_3   0.427513 0.805745 0.869543 0.114149
H25   H     H_    0.340863 0.839076 0.913631 0.158135
H26   H     H_    0.390487 0.742562 0.820536 0.135170
C30   C     C_3   0.512010 0.919901 0.821832 -0.884002
H27   H     H_    0.597789 0.889099 0.776081 0.244398
H28   H     H_    0.450680 0.970343 0.784090 0.215254
H29   H     H_    0.550445 0.985663 0.868691 0.270645
C31   C     C_3   0.890291 0.346060 0.409756 -0.215199
C32   C     C_3   0.811648 0.315439 0.337630 -0.787432
H30   H     H_    0.708279 0.272950 0.361685 0.279278
H31   H     H_    0.813529 0.401588 0.297170 0.266391
H32   H     H_    0.861013 0.243441 0.296014 0.200198
H33   H     H_    0.993764 0.373736 0.374334 0.163388
H34   H     H_    0.888401 0.258758 0.449485 0.164726
O11   O     O_3   0.701018 0.385812 0.913045 -0.663693
C33   C     C_3   0.781091 0.369519 0.831257 0.196769
H35   H     H_    0.885749 0.411709 0.831166 0.194770
H36   H     H_    0.741737 0.413485 0.778180 0.163164
C34   C     C_3   0.785030 0.228751 0.813768 -0.956269
H37   H     H_    0.685806 0.185430 0.802810 0.250074
H38   H     H_    0.860039 0.216060 0.754962 0.228409
H39   H     H_    0.813224 0.179636 0.869175 0.268889
O12   O     O_3   0.773131 0.597600 0.880346 -0.662692
C35   C     C_3   0.753284 0.695769 0.824734 0.112913
H40   H     H_    0.744724 0.785243 0.860372 0.208942
H41   H     H_    0.669344 0.676767 0.790820 0.187602
C36   C     C_3   0.877642 0.719317 0.755059 -0.930944
H42   H     H_    0.892030 0.632460 0.716740 0.248839
H43   H     H_    0.866443 0.798234 0.711238 0.220679
H44   H     H_    0.967447 0.745047 0.784860 0.264881
C37   C     C_3   0.728032 0.676972 0.042115 -0.240311
C38   C     C_3   0.881779 0.702771 0.027722 -0.796408
H45   H     H_    0.917486 0.676800 0.087160 0.255107
H46   H     H_    0.931786 0.649619 0.973119 0.305509
H47   H     H_    0.912643 0.805739 0.014891 0.213298
H48   H     H_    0.694814 0.745505 0.000059 0.248462
H49   H     H_    0.695625 0.702090 0.109980 0.216539
O13   O     O_3   0.764490 0.467051 0.060106 -0.570449
C39   C     C_3   0.738210 0.338546 0.087893 0.148638
H50   H     H_    0.712496 0.273942 0.036994 0.179860
H51   H     H_    0.662288 0.326677 0.147768 0.143958
C40   C     C_3   0.867092 0.295353 0.107935 -0.882904
H52   H     H_    0.907561 0.359316 0.154732 0.259989
H53   H     H_    0.847638 0.197101 0.135381 0.208595
H54   H     H_    0.943244 0.296791 0.047925 0.261372
C41   C     C_3   0.440136 0.256717 0.914797 -0.288423
C42   C     C_3   0.314843 0.160616 0.935856 -0.958388
H55   H     H_    0.310672 0.112401 0.998958 0.274897
H56   H     H_    0.221788 0.206299 0.935843 0.258131
H57   H     H_    0.318117 0.086377 0.886471 0.255936
H58   H     H_    0.461080 0.269485 0.843744 0.222335
H59   H     H_    0.524848 0.210992 0.932171 0.239836
C43   C     C_3   0.323391 0.314889 0.122384 -0.342206
C44   C     C_3   0.362398 0.210039 0.177387 -0.962725
H60   H     H_    0.405452 0.134926 0.135689 0.266134
H61   H     H_    0.436350 0.249124 0.216832 0.260813
H62   H     H_    0.272028 0.166072 0.221715 0.258379
H63   H     H_    0.275505 0.382578 0.167715 0.237495
H64   H     H_    0.244803 0.269274 0.088998 0.222467

loop_
_geom_bond_atom_site_label_1
_geom_bond_atom_site_label_2
_ccdc_geom_bond_type
C36   H42   S    
C2    C18   S    
O3    Zn1   S    
C19   C20   S    
O1    Zn1   S    
C3    C6    S    
C37   C38   S    
C35   H40   S    
C7    C8    T    
C34   H37   S    
C44   H60   S    
C39   H51   S    
C1    O2    A    
C27   H23   S    
C28   H22   S    
N2    Zn1   S    
C7    C22   S    
O5    Zn1   S    
N1    C31   S    
C41   H58   S    
C4    H2    S    
C26   H17   S    
C40   H52   S    
C28   H21   S    
C23   H11   S    
C12   O4    A    
C41   C42   S    
C24   H14   S    
C5    C22   S    
C2    O9    S    
C4    C43   S    
C30   H27   S    
C12   O3    A    
O2    Zn2   S    
C9    C10   D    
C37   H48   S    
C44   H62   S    
C42   H57   S    
C10   H4    S    
C24   H13   S    
O10   C29   S    
C27   C28   S    
C36   H43   S    
C31   H34   S    
O8    Zn2   S    
C13   H3    S    
C11   C27   S    
O13   C39   S    
C44   H61   S    
C1    O1    A    
O11   C33   S    
C26   H16   S    
C25   H19   S    
C39   C40   S    
C31   C32   S    
C20   C37   S    
C34   H38   S    
C18   H1    S    
C19   C22   S    
C1    C9    S    
O6    Zn2   S    
C23   C24   S    
C23   H10   S    
C6    C21   T    
C17   C21   S    
C29   H25   S    
C28   H20   S    
C29   H26   S    
C17   O7    A    
O4    Zn2   S    
C32   H30   S    
C19   O12   S    
C11   C16   S    
C35   H41   S    
C8    C12   S    
C30   H29   S    
C3    C20   S    
C32   H31   S    
C37   H49   S    
C2    C25   S    
C43   H64   S    
C24   H12   S    
C33   H35   S    
C36   H44   S    
C38   H46   S    
C31   H33   S    
C14   H7    S    
C3    C4    S    
C38   H47   S    
C25   C26   S    
C9    H5    S    
C35   C36   S    
C42   H55   S    
C34   H39   S    
H8    N2    S    
C18   C22   S    
O9    C23   S    
C14   N1    D    
C4    C5    S    
C10   C13   S    
C43   C44   S    
C26   H15   S    
C20   O13   S    
C5    C41   S    
C18   O10   S    
C33   C34   S    
C39   H50   S    
C33   H36   S    
C40   H54   S    
C29   C30   S    
C2    C3    S    
C27   H24   S    
C41   H59   S    
C11   C13   D    
C15   H6    S    
O7    Zn1   S    
N1    Zn2   S    
C40   H53   S    
C43   H63   S    
C32   H32   S    
C17   O8    A    
C25   H18   S    
C16   O6    A    
C38   H45   S    
C14   C15   S    
C30   H28   S    
C42   H56   S    
O12   C35   S    
C19   O11   S    
C15   N2    D    
C16   O5    A    
C5    H9    S    
