data_mof_unit_376.cif
_audit_creation_date              2012-12-11T16:57:23-0500
_audit_creation_method            fapswitch 2.2
_symmetry_space_group_name_H-M    P1
_symmetry_Int_Tables_number       1
_space_group_crystal_system       triclinic
_cell_length_a                    14.550888
_cell_length_b                    16.138109
_cell_length_c                    6.932489
_cell_angle_alpha                 89.999979
_cell_angle_beta                  99.155178
_cell_angle_gamma                 90.0
_cell_volume                      1607.17559479

loop_
_atom_site_label
_atom_site_type_symbol
_atom_type_description
_atom_site_fract_x
_atom_site_fract_y
_atom_site_fract_z
_atom_type_partial_charge
O1    O     O_R   0.584990 0.413650 0.534420 -0.537722
O2    O     O_R   0.584990 0.586350 0.534420 -0.537722
O3    O     O_R   0.596190 0.585230 0.208380 -0.544795
O4    O     O_R   0.596190 0.414770 0.208380 -0.544796
O5    O     O_R   0.415010 0.586420 0.976930 -0.543702
O6    O     O_R   0.415010 0.413580 0.976930 -0.543702
C1    C     C_R   0.617881 0.614985 0.384022 0.690771
C2    C     C_R   0.617881 0.385015 0.384022 0.690771
O7    O     O_3   0.440560 0.500000 0.319140 -0.367713
V1    V     V_3+5 0.511030 0.500000 0.068070 1.371625
O8    O     O_R   0.403810 0.414840 0.643540 -0.544729
O9    O     O_R   0.403810 0.585160 0.643540 -0.544729
C3    C     C_R   0.379510 0.387238 0.804541 0.713293
C4    C     C_R   0.379510 0.612762 0.804541 0.713293
V2    V     V_3+5 0.488970 0.500000 0.560620 1.378153
O10   O     O_3   0.559440 0.500000 0.859420 -0.369690
H1    H     H_    0.162816 0.789504 0.816795 0.163818
H2    H     H_    0.162816 0.210496 0.816795 0.163818
H3    H     H_    0.324533 0.698948 0.094520 0.141883
H4    H     H_    0.324533 0.301053 0.094520 0.141883
C5    C     C_2   0.303494 0.675686 0.789566 -0.085980
C6    C     C_2   0.303494 0.324315 0.789566 -0.085981
C7    C     C_2   0.283206 0.713341 0.953747 -0.161038
C8    C     C_2   0.283206 0.286659 0.953747 -0.161038
H5    H     H_    0.240749 0.807802 0.251001 0.130132
H6    H     H_    0.240749 0.192198 0.251002 0.130131
C9    C     C_2   0.196931 0.820052 0.112347 -0.349893
C10   C     C_2   0.196931 0.179947 0.112347 -0.349892
C11   C     C_2   0.209006 0.776830 0.952049 -0.145850
C12   C     C_2   0.209006 0.223170 0.952048 -0.145850
C13   C     C_R   0.678364 0.748582 0.550066 0.059445
C14   C     C_R   0.678364 0.251418 0.550066 0.059445
C15   C     C_R   0.683994 0.686010 0.411855 -0.127311
C16   C     C_R   0.683994 0.313990 0.411855 -0.127310
C17   C     C_R   0.751762 0.697346 0.288471 -0.186860
C18   C     C_R   0.751763 0.302654 0.288472 -0.186861
H7    H     H_    0.756793 0.653592 0.172271 0.125724
H8    H     H_    0.756793 0.346408 0.172272 0.125724
C19   C     C_R   0.817341 0.762904 0.320624 -0.184952
C20   C     C_R   0.817341 0.237096 0.320624 -0.184952
H9    H     H_    0.870548 0.767368 0.228298 0.121540
H10   H     H_    0.870548 0.232632 0.228298 0.121540
C21   C     C_R   0.817755 0.818560 0.478283 -0.098778
C22   C     C_R   0.817755 0.181440 0.478283 -0.098777
C23   C     C_R   0.744435 0.810800 0.584719 0.071890
C24   C     C_R   0.744435 0.189200 0.584719 0.071889
C25   C     C_3   0.737678 0.816324 0.796153 -0.413958
C26   C     C_3   0.737678 0.183676 0.796153 -0.413958
C27   C     C_3   0.661264 0.749845 0.757410 -0.091531
C28   C     C_3   0.661264 0.250155 0.757410 -0.091531
H11   H     H_    0.713658 0.878468 0.836365 0.170078
H12   H     H_    0.713659 0.121532 0.836365 0.170078
H13   H     H_    0.801970 0.793682 0.889238 0.159592
H14   H     H_    0.801970 0.206318 0.889237 0.159592
H15   H     H_    0.679166 0.690249 0.834835 0.147258
H16   H     H_    0.679166 0.309750 0.834834 0.147259
O11   O     O_R   0.921430 0.915960 0.371040 -0.536519
O12   O     O_R   0.921430 0.084040 0.371040 -0.536519
O13   O     O_R   0.910450 0.087500 0.697310 -0.542927
O14   O     O_R   0.910450 0.912500 0.697310 -0.542927
O15   O     O_R   0.091710 0.087460 0.928430 -0.539368
O16   O     O_R   0.091710 0.912540 0.928430 -0.539368
C29   C     C_R   0.888612 0.114732 0.519145 0.697524
C30   C     C_R   0.888612 0.885268 0.519145 0.697524
O17   O     O_3   0.065970 1.000000 0.586140 -0.369321
V3    V     V_3+5 0.995640 1.000000 0.837400 1.400720
O18   O     O_R   0.103020 0.915700 0.261710 -0.544133
O19   O     O_R   0.103020 0.084300 0.261710 -0.544134
C31   C     C_R   0.125501 0.886029 0.100806 0.756150
C32   C     C_R   0.125501 0.113971 0.100806 0.756150
V4    V     V_3+5 0.017940 0.000000 0.344880 1.384651
O20   O     O_3   0.947330 0.000000 0.046180 -0.370492
C33   C     C_3   0.247779 0.693655 0.588918 -0.353266
C34   C     C_3   0.156326 0.644412 0.557872 -0.291883
C35   C     C_3   0.096238 0.666104 0.363556 -0.778431
H17   H     H_    0.076804 0.732704 0.360777 0.225819
H18   H     H_    0.134256 0.652445 0.240408 0.239392
H19   H     H_    0.031460 0.628581 0.344794 0.214407
H20   H     H_    0.172356 0.577073 0.559594 0.183342
H21   H     H_    0.115789 0.657165 0.677524 0.195234
H22   H     H_    0.234735 0.761133 0.570596 0.168251
H23   H     H_    0.288112 0.676726 0.471523 0.176742
C36   C     C_3   0.247779 0.306345 0.588918 -0.353265
C37   C     C_3   0.156324 0.355587 0.557873 -0.291881
C38   C     C_3   0.096235 0.333892 0.363560 -0.778428
H24   H     H_    0.134251 0.347552 0.240409 0.239391
H25   H     H_    0.076804 0.267291 0.360785 0.225818
H26   H     H_    0.031455 0.371413 0.344800 0.214406
H27   H     H_    0.115789 0.342834 0.677528 0.195234
H28   H     H_    0.172354 0.422926 0.559590 0.183342
H29   H     H_    0.288112 0.323275 0.471522 0.176741
H30   H     H_    0.234736 0.238867 0.570596 0.168250
C39   C     C_3   0.563756 0.783472 0.773135 -0.320902
C40   C     C_3   0.550671 0.794463 0.987111 -0.305096
C41   C     C_3   0.470589 0.853591 0.004830 -0.791969
H31   H     H_    0.490076 0.917808 0.970236 0.223698
H32   H     H_    0.407258 0.835675 0.902337 0.245116
H33   H     H_    0.454955 0.852209 0.156467 0.217414
H34   H     H_    0.535972 0.733227 0.048506 0.197767
H35   H     H_    0.614873 0.819811 0.075829 0.214426
H36   H     H_    0.552650 0.843726 0.694447 0.182200
H37   H     H_    0.510411 0.739553 0.700374 0.159722
C42   C     C_3   0.563756 0.216528 0.773136 -0.320902
C43   C     C_3   0.550671 0.205537 0.987112 -0.305096
C44   C     C_3   0.470589 0.146409 0.004831 -0.791970
H38   H     H_    0.407258 0.164325 0.902338 0.245117
H39   H     H_    0.490076 0.082193 0.970237 0.223699
H40   H     H_    0.454956 0.147791 0.156469 0.217414
H41   H     H_    0.614873 0.180189 0.075830 0.214426
H42   H     H_    0.535973 0.266773 0.048507 0.197767
H43   H     H_    0.510411 0.260447 0.700375 0.159723
H44   H     H_    0.552650 0.156274 0.694447 0.182199

loop_
_geom_bond_atom_site_label_1
_geom_bond_atom_site_label_2
_ccdc_geom_bond_type
O15   C32   A    
C39   C40   S    
C9    C11   D    
O1    C2    A    
H1    C11   S    
C33   C34   S    
C17   C19   A    
C41   H31   S    
O4    C2    A    
C41   H33   S    
C19   H9    S    
C38   H24   S    
C26   H14   S    
C36   H30   S    
C44   H39   S    
C7    C11   S    
C4    C5    S    
C17   H7    S    
C26   H12   S    
O3    C1    A    
O13   V3    S    
C43   H41   S    
O12   V4    S    
V2    O10   S    
C5    C33   S    
C42   H43   S    
O2    C1    A    
O8    V2    S    
O15   V3    S    
V3    O20   S    
H4    C8    S    
C13   C15   A    
H2    C12   S    
O7    V1    S    
O18   V4    S    
C9    C31   S    
C25   H13   S    
C26   C28   S    
O14   V3    S    
C28   C42   S    
C34   H21   S    
C1    C15   S    
C37   H28   S    
C13   C27   S    
C33   H22   S    
C43   C44   S    
C22   C24   A    
C21   C30   S    
C23   C25   S    
C22   C29   S    
C44   H40   S    
C24   C26   S    
C34   C35   S    
O16   V3    S    
C38   H25   S    
C18   C20   A    
C37   C38   S    
C25   C27   S    
C39   H36   S    
C25   H11   S    
C27   H15   S    
C28   H16   S    
O16   C31   A    
C42   H44   S    
O18   C31   A    
C14   C16   A    
H3    C7    S    
C35   H17   S    
C35   H18   S    
C36   C37   S    
O9    V2    S    
C40   H35   S    
C2    C16   S    
O11   V4    S    
O2    V2    S    
C21   C23   A    
C14   C28   S    
O5    C4    A    
O1    V2    S    
O9    C4    A    
C34   H20   S    
C5    C7    D    
C6    C8    D    
O13   C29   A    
C37   H27   S    
O4    V1    S    
C33   H23   S    
O11   C30   A    
C38   H26   S    
O12   C29   A    
C14   C24   A    
C10   C32   S    
C20   H10   S    
C39   H37   S    
O6    V1    S    
C19   C21   A    
C41   H32   S    
H5    C9    S    
C36   H29   S    
C44   H38   S    
H6    C10   S    
O14   C30   A    
C6    C36   S    
C18   H8    S    
O7    V2    S    
O5    V1    S    
O3    V1    S    
O17   V4    S    
O6    C3    A    
C43   H42   S    
O8    C3    A    
C40   H34   S    
O19   V4    S    
C10   C12   D    
C15   C17   A    
C3    C6    S    
C16   C18   A    
C40   C41   S    
C35   H19   S    
C8    C12   S    
C20   C22   A    
V4    O20   S    
O19   C32   A    
O17   V3    S    
C13   C23   A    
C42   C43   S    
V1    O10   S    
C27   C39   S    
