data_mof_unit_832.cif
_audit_creation_date              2013-03-05T15:58:35-0500
_audit_creation_method            fapswitch 2.2
_symmetry_space_group_name_H-M    P1
_symmetry_Int_Tables_number       1
_space_group_crystal_system       triclinic
_cell_length_a                    15.095477
_cell_length_b                    13.69808
_cell_length_c                    10.634168
_cell_angle_alpha                 89.759601
_cell_angle_beta                  89.87116
_cell_angle_gamma                 90.005084
_cell_volume                      2198.8982481

loop_
_atom_site_label
_atom_site_type_symbol
_atom_site_description
_atom_site_fract_x
_atom_site_fract_y
_atom_site_fract_z
_atom_type_partial_charge
O1    O     O_R   0.370260 0.582280 0.500030 -0.591360
O2    O     O_R   0.629740 0.417720 0.499970 -0.591360
O3    O     O_R   0.629740 0.582280 0.499970 -0.589931
O4    O     O_R   0.370260 0.417720 0.500030 -0.589931
C1    C     C_R   0.328503 0.500022 0.500258 0.810079
C2    C     C_R   0.671497 0.499978 0.499742 0.810079
O5    O     O_R   0.499980 0.582260 0.316850 -0.587728
O6    O     O_R   0.500020 0.417740 0.683150 -0.587728
O7    O     O_R   0.500020 0.582260 0.683150 -0.583570
O8    O     O_R   0.499980 0.417740 0.316850 -0.583570
C3    C     C_R   0.500017 0.500243 0.259068 0.787971
C4    C     C_R   0.499982 0.499757 0.740932 0.787971
Cu1   Cu    Cu3+1 0.500000 0.597420 0.500000 0.935211
Cu2   Cu    Cu3+1 0.500000 0.402580 0.500000 0.935211
C5    C     C_3   0.500589 0.592945 0.039916 -0.134910
C6    C     C_3   0.499411 0.407055 0.960084 -0.134910
C7    C     C_3   0.573074 0.545497 0.957450 -0.165839
C8    C     C_3   0.426926 0.454503 0.042550 -0.165839
C9    C     C_3   0.427499 0.546596 0.957923 -0.171190
C10   C     C_3   0.572501 0.453404 0.042077 -0.171190
H1    H     H_    0.368223 0.584644 0.920263 0.126896
H2    H     H_    0.631777 0.415356 0.079737 0.126896
H3    H     H_    0.501100 0.669104 0.075228 0.138756
H4    H     H_    0.498900 0.330896 0.924772 0.138756
H5    H     H_    0.632835 0.582630 0.919434 0.131801
H6    H     H_    0.367165 0.417370 0.080566 0.131801
C11   C     C_3   0.499985 0.499238 0.877737 0.020405
C12   C     C_3   0.500015 0.500762 0.122263 0.020405
C13   C     C_R   0.814419 0.411234 0.492821 -0.245887
C14   C     C_R   0.185581 0.588766 0.507178 -0.245887
C15   C     C_R   0.768296 0.499789 0.499443 -0.080891
C16   C     C_R   0.231703 0.500211 0.500556 -0.080891
C17   C     C_R   0.814614 0.588000 0.505909 -0.235040
C18   C     C_R   0.185386 0.412000 0.494091 -0.235040
C19   C     C_R   0.906799 0.588469 0.506257 0.072778
C20   C     C_R   0.093201 0.411531 0.493743 0.072778
C21   C     C_R   0.953528 0.499441 0.499773 0.015088
C22   C     C_R   0.046472 0.500559 0.500227 0.015088
C23   C     C_R   0.907232 0.409518 0.492841 0.102040
C24   C     C_R   0.092768 0.590482 0.507159 0.102040
C25   C     C_R   0.952440 0.677113 0.513186 -0.212782
C26   C     C_R   0.047560 0.322887 0.486814 -0.212782
C27   C     C_R   0.045084 0.679432 0.513801 0.174629
C28   C     C_R   0.954916 0.320568 0.486199 0.174629
H7    H     H_    0.777266 0.343865 0.487527 0.168463
H8    H     H_    0.222734 0.656135 0.512473 0.168463
H9    H     H_    0.778943 0.656601 0.511058 0.153007
H10   H     H_    0.221057 0.343399 0.488942 0.153007
H11   H     H_    0.915491 0.744901 0.518189 0.143055
H12   H     H_    0.084508 0.255099 0.481811 0.143055
C29   C     C_R   0.441563 0.793078 0.574992 0.009206
C30   C     C_R   0.558437 0.206922 0.425008 0.009206
C31   C     C_R   0.558365 0.793578 0.424903 0.002245
C32   C     C_R   0.441635 0.206422 0.575097 0.002245
N1    N     N_R   0.500000 0.743810 0.500000 -0.182149
N2    N     N_R   0.500000 0.256190 0.500000 -0.182149
C33   C     C_R   0.559834 0.896647 0.423225 -0.005500
C34   C     C_R   0.440166 0.103353 0.576775 -0.005500
C35   C     C_R   0.440107 0.896131 0.576684 -0.005436
C36   C     C_R   0.559893 0.103869 0.423316 -0.005436
C37   C     C_R   0.499987 0.948182 0.499981 0.087820
C38   C     C_R   0.500013 0.051818 0.500019 0.087820
C39   C     C_R   0.619465 0.949193 0.346980 -0.205592
C40   C     C_R   0.380535 0.050807 0.653019 -0.205592
C41   C     C_R   0.380485 0.948158 0.652947 -0.203469
C42   C     C_R   0.619515 0.051842 0.347053 -0.203468
H13   H     H_    0.396043 0.751994 0.633586 0.123779
H14   H     H_    0.603957 0.248006 0.366414 0.123780
H15   H     H_    0.603830 0.752877 0.366237 0.125390
H16   H     H_    0.396170 0.247123 0.633763 0.125390
H17   H     H_    0.666082 0.910925 0.287303 0.135776
H18   H     H_    0.333917 0.089075 0.712697 0.135776
H19   H     H_    0.333821 0.909485 0.712547 0.135144
H20   H     H_    0.666179 0.090515 0.287453 0.135144
C43   C     C_3   0.090997 0.777143 0.521576 -0.894069
H21   H     H_    0.042984 0.838485 0.526228 0.232586
H22   H     H_    0.132632 0.779971 0.607440 0.228434
H23   H     H_    0.133143 0.788539 0.437071 0.234781
C44   C     C_3   0.909003 0.222857 0.478424 -0.894069
H24   H     H_    0.957016 0.161515 0.473772 0.232586
H25   H     H_    0.866857 0.211461 0.562929 0.234781
H26   H     H_    0.867368 0.220028 0.392560 0.228434

loop_
_geom_bond_atom_site_label_1
_geom_bond_atom_site_label_2
_geom_bond_distance
_ccdc_geom_bond_type
C34   C38   1.407973 A    
Cu2   N2    2.005262 S    
C20   C26   1.398331 A    
C8    H6    1.110196 S    
O3    C2    1.291691 A    
C31   H15   1.082645 S    
O5    C3    1.282796 A    
O1    C1    1.291044 A    
C19   C21   1.410744 A    
C42   H20   1.083354 S    
C7    C10   1.546540 S    
C41   H19   1.083354 S    
C36   C38   1.407993 A    
C8    C9    1.546540 S    
O7    Cu1   1.957820 S    
C30   C36   1.412003 A    
C24   C27   1.417170 A    
C15   C17   1.398001 A    
C14   C16   1.400640 A    
C9    C11   1.531618 S    
C29   N1    1.367858 A    
O3    Cu1   1.969455 S    
O6    C4    1.282796 A    
C1    C16   1.461238 S    
C6    C11   1.533650 S    
C5    H3    1.110273 S    
C2    C15   1.461238 S    
C39   C42   1.406105 A    
C36   C42   1.406161 A    
C6    H4    1.110273 S    
Cu1   Cu2   2.668933 S    
C34   C40   1.406212 A    
C25   C27   1.398903 A    
O2    C2    1.291043 A    
C26   C28   1.398903 A    
C19   C25   1.398331 A    
C25   H11   1.084679 S    
C43   H23   1.110371 S    
C33   C39   1.406212 A    
C31   N1    1.367812 A    
C27   C43   1.509851 S    
C21   C23   1.418424 A    
C32   N2    1.367812 A    
C35   C37   1.407993 A    
C4    C11   1.454791 S    
C7    C11   1.531657 S    
C8    C12   1.531657 S    
O8    Cu2   1.957821 S    
C44   H25   1.110371 S    
C31   C33   1.412068 A    
C10   C12   1.531618 S    
C13   H7    1.081585 S    
C16   C18   1.398000 A    
C5    C9    1.545807 S    
C43   H21   1.110902 S    
C21   C22   1.403140 A    
C32   H16   1.082645 S    
C6    C10   1.545807 S    
C13   C23   1.401256 A    
C14   C24   1.401256 A    
C29   H13   1.082675 S    
C43   H22   1.110462 S    
C26   H12   1.084679 S    
C39   H17   1.083323 S    
C17   H9    1.084613 S    
C29   C35   1.412003 A    
C32   C34   1.412068 A    
C5    C7    1.545755 S    
O6    Cu2   1.959553 S    
C9    H1    1.110233 S    
C14   H8    1.081585 S    
C28   C44   1.509851 S    
C10   H2    1.110233 S    
O4    C1    1.291691 A    
C30   H14   1.082675 S    
C44   H26   1.110462 S    
C33   C37   1.407973 A    
C23   C28   1.417170 A    
C18   H10   1.084613 S    
C7    H5    1.110196 S    
C40   C41   1.406105 A    
C20   C22   1.410744 A    
C13   C15   1.400640 A    
C35   C41   1.406161 A    
C22   C24   1.418424 A    
C5    C12   1.533650 S    
C3    C12   1.454791 S    
C17   C19   1.391601 A    
C18   C20   1.391603 A    
C40   H18   1.083323 S    
O4    Cu2   1.969455 S    
C37   C38   1.419620 A    
O2    Cu2   1.969418 S    
O7    C4    1.284105 A    
O8    C3    1.284105 A    
C44   H24   1.110902 S    
O5    Cu1   1.959554 S    
O1    Cu1   1.969418 S    
C6    C8    1.545755 S    
C30   N2    1.367857 A    
Cu1   N1    2.005262 S    
