data_mof_unit_1562.cif
_audit_creation_date              2013-03-05T15:42:29-0500
_audit_creation_method            fapswitch 2.2
_symmetry_space_group_name_H-M    P1
_symmetry_Int_Tables_number       1
_space_group_crystal_system       triclinic
_cell_length_a                    7.754312
_cell_length_b                    8.596908
_cell_length_c                    23.375788
_cell_angle_alpha                 91.093867
_cell_angle_beta                  85.672999
_cell_angle_gamma                 93.793761
_cell_volume                      1550.30033927

loop_
_atom_site_label
_atom_site_type_symbol
_atom_site_description
_atom_site_fract_x
_atom_site_fract_y
_atom_site_fract_z
_atom_type_partial_charge
O1    O     O_R   0.389250 0.738570 0.503790 -0.581881
O2    O     O_R   0.610750 0.261430 0.496210 -0.586429
O3    O     O_R   0.678390 0.711620 0.493890 -0.586017
O4    O     O_R   0.321610 0.288380 0.506110 -0.583518
C1    C     C_R   0.544478 0.793911 0.493659 0.917806
C2    C     C_R   0.453896 0.206001 0.496793 0.924181
O5    O     O_R   0.355400 0.513520 0.588790 -0.580154
O6    O     O_R   0.644600 0.486480 0.411210 -0.572585
O7    O     O_R   0.644550 0.486570 0.578900 -0.605171
O8    O     O_R   0.355450 0.513430 0.421100 -0.612365
C3    C     C_R   0.502446 0.503291 0.610530 0.999550
C4    C     C_R   0.497426 0.497755 0.389384 0.969665
Zn1   Zn    Zn3+2 0.306930 0.518000 0.506610 1.129470
Zn2   Zn    Zn3+2 0.693070 0.482000 0.493390 1.134157
C5    C     C_R   0.375832 0.389035 0.118559 0.655093
C6    C     C_R   0.530390 0.669908 0.882477 0.641532
N1    N     N_R   0.428528 0.518123 0.149293 -0.342620
N2    N     N_R   0.472883 0.540727 0.853051 -0.345743
C7    C     C_R   0.461089 0.659786 0.123768 0.664922
C8    C     C_R   0.387572 0.415297 0.879697 0.657552
C9    C     C_R   0.478090 0.668946 0.063708 -0.132976
C10   C     C_R   0.361652 0.413041 0.939772 -0.135488
C11   C     C_R   0.418385 0.537947 0.031638 -0.058987
C12   C     C_R   0.429452 0.542221 0.971366 -0.053534
C13   C     C_R   0.351405 0.400856 0.059993 -0.131535
C14   C     C_R   0.511852 0.673954 0.942780 -0.140980
C15   C     C_R   0.557336 0.801790 0.035209 0.243667
C16   C     C_R   0.271931 0.285629 0.969024 0.238315
C17   C     C_R   0.576540 0.803111 0.975127 0.236434
C18   C     C_R   0.269040 0.278303 0.028945 0.242472
O9    O     O_2   0.354166 0.248989 0.144148 -0.421872
O10   O     O_2   0.605587 0.792801 0.852883 -0.417523
O11   O     O_2   0.478387 0.789781 0.156650 -0.420090
O12   O     O_2   0.331363 0.292740 0.847616 -0.423325
C19   C     C_R   0.607510 0.435597 0.762814 0.269887
C20   C     C_R   0.612176 0.558638 0.231186 0.276035
C21   C     C_R   0.611212 0.423640 0.702651 0.162370
C22   C     C_R   0.625518 0.561382 0.290809 0.171148
C23   C     C_R   0.507691 0.518971 0.672623 -0.307899
C24   C     C_R   0.488774 0.491883 0.327128 -0.300161
C25   C     C_R   0.405617 0.629077 0.702530 0.264531
C26   C     C_R   0.339839 0.420292 0.303643 0.270915
C27   C     C_R   0.397917 0.634434 0.761941 -0.129526
C28   C     C_R   0.319396 0.437701 0.245632 -0.099843
C29   C     C_R   0.496412 0.538899 0.791934 0.066318
C30   C     C_R   0.454021 0.504440 0.209150 0.054323
C31   C     C_2   0.564231 0.954534 0.479585 0.005792
C32   C     C_2   0.425821 0.043574 0.488044 0.034230
N3    N     N_2   0.950330 0.457950 0.484560 -0.125769
N4    N     N_2   0.049670 0.542050 0.515440 -0.129933
N5    N     N_R   0.640900 0.926911 0.066457 0.272701
O13   O     O_R   0.595174 0.068757 0.062052 -0.270964
O14   O     O_R   0.779104 0.902520 0.092361 -0.209392
N6    N     N_R   0.170882 0.169931 0.938916 0.274579
O15   O     O_R   0.227442 0.032291 0.928616 -0.249157
O16   O     O_R   0.029738 0.207207 0.917285 -0.213992
N7    N     N_R   0.679911 0.928869 0.947954 0.276820
O17   O     O_R   0.613431 0.060811 0.939591 -0.253851
O18   O     O_R   0.842343 0.911827 0.932623 -0.228574
N8    N     N_R   0.166387 0.154766 0.058256 0.270767
O19   O     O_R   0.196769 0.009761 0.047370 -0.270121
O20   O     O_R   0.039179 0.187485 0.095107 -0.235651
N9    N     N_R   0.709811 0.339047 0.794598 0.256398
O21   O     O_R   0.791872 0.397387 0.837422 -0.302936
O22   O     O_R   0.713973 0.190686 0.782891 -0.199553
N10   N     N_R   0.756950 0.612990 0.193070 0.240491
O23   O     O_R   0.805349 0.529345 0.148456 -0.333241
O24   O     O_R   0.837201 0.748247 0.201621 -0.208259
N11   N     N_R   0.718306 0.314303 0.672413 0.253437
O25   O     O_R   0.884164 0.320665 0.678303 -0.278406
O26   O     O_R   0.649337 0.204496 0.640683 -0.306879
N12   N     N_R   0.775276 0.637786 0.314328 0.263473
O27   O     O_R   0.757903 0.756164 0.349315 -0.297212
O28   O     O_R   0.929905 0.597097 0.297691 -0.287469
N13   N     N_R   0.313669 0.739546 0.673223 0.245305
O29   O     O_R   0.161574 0.777692 0.694065 -0.283320
O30   O     O_R   0.392637 0.820457 0.631413 -0.337788
N14   N     N_R   0.213648 0.322982 0.337348 0.240089
O31   O     O_R   0.264645 0.226535 0.373854 -0.351496
O32   O     O_R   0.053589 0.307482 0.323866 -0.273723
H1    H     H_    0.315672 0.714665 0.785418 0.225498
H2    H     H_    0.200241 0.393301 0.228047 0.238216
N15   N     N_R   0.732961 0.015814 0.458059 0.240297
O33   O     O_R   0.754499 0.081413 0.408079 -0.266003
O34   O     O_R   0.861349 0.017850 0.490668 -0.255109
N16   N     N_R   0.248869 0.981314 0.493743 0.242801
O35   O     O_R   0.159508 0.989613 0.542987 -0.259083
O36   O     O_R   0.179214 0.913849 0.449958 -0.262861
H3    H     H_    0.013857 0.382067 0.457095 0.253712
H4    H     H_    0.986123 0.617887 0.542929 0.236016

loop_
_geom_bond_atom_site_label_1
_geom_bond_atom_site_label_2
_geom_bond_distance
_ccdc_geom_bond_type
N10   O24   1.301316 A    
N9    O22   1.301334 A    
C21   N11   1.436007 S    
C15   C17   1.401319 A    
O7    Zn2   2.006001 S    
C23   C25   1.414786 A    
O5    C3    1.291723 A    
C1    C31   1.421344 S    
C2    C32   1.412322 S    
O1    C1    1.271533 A    
C7    C9    1.403415 A    
C12   C14   1.416351 A    
C28   H2    1.083061 S    
C20   N10   1.438058 S    
N7    O18   1.300250 A    
Zn2   N3    2.013874 S    
N8    O20   1.301318 A    
O4    Zn1   1.984568 S    
N11   O26   1.301392 A    
N4    H4    1.029322 S    
C31   C32   1.359364 D    
C28   C30   1.396884 A    
C18   N8    1.436874 S    
C11   C12   1.406076 A    
C20   C30   1.413146 A    
C31   N15   1.436021 S    
C8    O12   1.349379 S    
C24   C26   1.415149 A    
N10   O23   1.301374 A    
C9    C15   1.414247 A    
C10   C16   1.416807 A    
C25   C27   1.385565 A    
O2    C2    1.275805 A    
C26   C28   1.389165 A    
C15   N5    1.435143 S    
C22   N12   1.436609 S    
C6    C14   1.406109 A    
N6    O16   1.300894 A    
N16   O36   1.301903 A    
N5    O13   1.300328 A    
N1    C30   1.435886 S    
N12   O28   1.300483 A    
C7    O11   1.349320 S    
N3    H3    1.029195 S    
C16   N6    1.432475 S    
N16   O35   1.301296 A    
C32   N16   1.436996 S    
Zn1   N4    2.013876 S    
N8    O19   1.300754 A    
N5    O14   1.300624 A    
C4    C24   1.461619 S    
N13   O29   1.301629 A    
C25   N13   1.437976 S    
N13   O30   1.301255 A    
N15   O33   1.301600 A    
O6    C4    1.294801 A    
N14   O32   1.301170 A    
C3    C23   1.458531 S    
C27   C29   1.391125 A    
O7    C3    1.294419 A    
O3    Zn2   1.984568 S    
O8    C4    1.293258 A    
O4    C2    1.287539 A    
N15   O34   1.297756 A    
C17   N7    1.431621 S    
C26   N14   1.441743 S    
C9    C11   1.412710 A    
C27   H1    1.083789 S    
C10   C12   1.416047 A    
O1    Zn1   1.961049 S    
C19   C29   1.408501 A    
N2    C29   1.426446 S    
C13   C18   1.412932 A    
C5    N1    1.366944 A    
N6    O15   1.300896 A    
O6    Zn2   1.986644 S    
C19   C21   1.406420 A    
N14   O31   1.301312 A    
C8    C10   1.403847 A    
N12   O27   1.300936 A    
O3    C1    1.294985 A    
O8    Zn1   2.006001 S    
C5    O9    1.349491 S    
C6    O10   1.349183 S    
C16   C18   1.401750 A    
C21   C23   1.415211 A    
C22   C24   1.414847 A    
N7    O17   1.300631 A    
C20   C22   1.404985 A    
N1    C7    1.366488 A    
N2    C8    1.362872 A    
C11   C13   1.412418 A    
N11   O25   1.301219 A    
O2    Zn2   1.961049 S    
C5    C13   1.402661 A    
N9    O21   1.301263 A    
O5    Zn1   1.986644 S    
C14   C17   1.416929 A    
C6    N2    1.362691 A    
N3    N4    1.275714 D    
C19   N9    1.438693 S    
