data_mof_unit_3320.cif
_audit_creation_date              2013-03-05T15:45:10-0500
_audit_creation_method            fapswitch 2.2
_symmetry_space_group_name_H-M    P1
_symmetry_Int_Tables_number       1
_space_group_crystal_system       triclinic
_cell_length_a                    11.523884
_cell_length_b                    11.480602
_cell_length_c                    19.512826
_cell_angle_alpha                 90.719862
_cell_angle_beta                  90.516825
_cell_angle_gamma                 60.255925
_cell_volume                      2241.25901409

loop_
_atom_site_label
_atom_site_type_symbol
_atom_site_description
_atom_site_fract_x
_atom_site_fract_y
_atom_site_fract_z
_atom_type_partial_charge
O1    O     O_R   0.267740 0.231990 0.575440 -0.499312
O2    O     O_R   0.527280 0.186680 0.570530 -0.493579
C1    C     C_R   0.640869 0.117661 0.599085 0.548542
O3    O     O_R   0.728090 0.003480 0.576380 -0.500778
O4    O     O_R   0.682970 0.789220 0.570490 -0.490105
C2    C     C_R   0.612881 0.745481 0.598509 0.548442
O5    O     O_R   0.499290 0.771920 0.575530 -0.503580
O6    O     O_R   0.285330 0.030900 0.569730 -0.487283
C3    C     C_R   0.240702 0.145423 0.598121 0.557599
O7    O     O_R   0.270980 0.227040 0.423900 -0.511464
O8    O     O_R   0.530280 0.182090 0.430050 -0.518641
C4    C     C_R   0.643719 0.110978 0.401660 0.539489
O9    O     O_R   0.731330 0.998530 0.424830 -0.517736
O10   O     O_R   0.685970 0.784630 0.430010 -0.500466
C5    C     C_R   0.613563 0.741118 0.401095 0.543881
O11   O     O_R   0.502530 0.766960 0.423990 -0.544301
O12   O     O_R   0.288330 0.026310 0.429250 -0.511526
C6    C     C_R   0.300259 0.115204 0.393853 0.551020
Cr1   Cr    Cr6+3 0.404720 0.198220 0.499960 1.024378
Cr2   Cr    Cr6+3 0.698290 0.897110 0.500380 1.028242
Cr3   Cr    Cr6+3 0.396970 0.904720 0.499610 1.017301
O13   O     O_3   0.499990 0.000020 0.499980 -0.270348
C7    C     C_1   0.669660 0.647266 0.860249 0.012798
C8    C     C_1   0.655217 0.683656 0.728448 -0.029575
C9    C     C_1   0.663127 0.667208 0.799762 -0.027887
C10   C     C_1   0.642019 0.703518 0.667918 0.005376
C11   C     C_1   0.126777 0.198385 0.859335 0.010486
C12   C     C_1   0.171426 0.170195 0.727644 -0.029384
C13   C     C_1   0.150145 0.181937 0.798933 -0.027133
C14   C     C_1   0.195143 0.161021 0.667288 0.003103
C15   C     C_1   0.677851 0.191128 0.860894 0.010820
C16   C     C_1   0.658823 0.167435 0.728988 -0.029590
C17   C     C_1   0.665219 0.180917 0.800340 -0.027904
C18   C     C_1   0.653679 0.149918 0.668501 0.004920
C19   C     C_R   0.523076 0.722430 0.286728 -0.031376
C20   C     C_R   0.535087 0.739093 0.217013 0.218402
C21   C     C_R   0.662627 0.681784 0.189272 0.055724
C22   C     C_R   0.774608 0.645488 0.231154 -0.136304
H1    H     H_    0.874490 0.601077 0.210150 0.179404
C23   C     C_R   0.759015 0.661228 0.301114 -0.174157
H2    H     H_    0.844394 0.641153 0.332950 0.142758
C24   C     C_R   0.635011 0.697417 0.329802 -0.013477
C25   C     C_R   0.288358 0.209735 0.280126 -0.115811
H3    H     H_    0.350245 0.250092 0.298669 0.126000
C26   C     C_R   0.235805 0.240511 0.214317 -0.088028
H4    H     H_    0.257425 0.304356 0.182764 0.135943
C27   C     C_R   0.153416 0.191258 0.190314 0.073683
C28   C     C_R   0.126287 0.108895 0.232030 -0.092835
H5    H     H_    0.060781 0.071847 0.214801 0.142951
C29   C     C_R   0.176331 0.080776 0.298233 -0.128624
H6    H     H_    0.146918 0.024500 0.330937 0.119250
C30   C     C_R   0.256519 0.132191 0.322784 0.031509
C31   C     C_R   0.718463 0.031135 0.285075 -0.114659
H7    H     H_    0.759820 0.929013 0.302878 0.163461
C32   C     C_R   0.720268 0.052760 0.215416 0.209712
C33   C     C_R   0.666329 0.185455 0.192065 0.015958
C34   C     C_R   0.600755 0.293951 0.237981 -0.186201
H8    H     H_    0.561062 0.396144 0.221023 0.138256
C35   C     C_R   0.595496 0.271076 0.307278 -0.169172
H9    H     H_    0.545302 0.355416 0.342294 0.126199
C36   C     C_R   0.658218 0.139538 0.331171 -0.016679
O14   O     O_R   0.821500 0.119550 0.952820 -0.488897
O15   O     O_R   0.037130 0.162750 0.957360 -0.488223
C37   C     C_R   0.082036 0.231015 0.928629 0.554083
O16   O     O_R   0.056440 0.344950 0.951330 -0.501379
O17   O     O_R   0.797900 0.560570 0.957460 -0.488418
C38   C     C_R   0.683533 0.605116 0.929602 0.560737
O18   O     O_R   0.596140 0.579600 0.952720 -0.491034
O19   O     O_R   0.639070 0.321380 0.958660 -0.496362
C39   C     C_R   0.707891 0.206504 0.930297 0.555385
O20   O     O_R   0.821240 0.124490 0.104360 -0.464474
O21   O     O_R   0.036900 0.167320 0.097830 -0.487113
C40   C     C_R   0.083794 0.235925 0.125253 0.553478
O22   O     O_R   0.056190 0.349890 0.102870 -0.523917
O23   O     O_R   0.797670 0.565150 0.097930 -0.498219
C41   C     C_R   0.681977 0.617000 0.123575 0.585603
O24   O     O_R   0.595880 0.584540 0.104260 -0.474594
O25   O     O_R   0.638830 0.325960 0.099140 -0.515637
C42   C     C_R   0.706467 0.210470 0.125918 0.571710
Cr4   Cr    Cr6+3 0.926180 0.152240 0.028110 1.104015
Cr5   Cr    Cr6+3 0.921340 0.452070 0.027460 1.074360
Cr6   Cr    Cr6+3 0.626260 0.447120 0.028700 1.074604
O26   O     O_3   0.824590 0.350480 0.028090 -0.287832
C43   C     C_3   0.400053 0.719734 0.314550 -0.246448
C44   C     C_3   0.314683 0.691828 0.263038 -0.292191
C45   C     C_3   0.230008 0.642222 0.298764 -0.457096
H10   H     H_    0.295028 0.544403 0.323829 0.144543
H11   H     H_    0.164649 0.716635 0.337861 0.160950
H12   H     H_    0.165969 0.628332 0.260418 0.184900
H13   H     H_    0.244376 0.786472 0.236867 0.224793
H14   H     H_    0.379123 0.614970 0.224776 0.196228
H15   H     H_    0.437644 0.637327 0.352563 0.163671
H16   H     H_    0.333447 0.815554 0.341116 0.180022
N1    N     N_R   0.779115 0.939631 0.169292 0.092168
O27   O     O_R   0.721838 0.943299 0.110939 -0.300892
O28   O     O_R   0.886769 0.830141 0.186911 -0.376362
N2    N     N_R   0.423344 0.832180 0.176522 0.066367
O29   O     O_R   0.362168 0.789807 0.135552 -0.339327
O30   O     O_R   0.414459 0.947093 0.163549 -0.326895

loop_
_geom_bond_atom_site_label_1
_geom_bond_atom_site_label_2
_geom_bond_distance
_ccdc_geom_bond_type
C32   C33   1.409798 A    
O11   Cr3   2.055027 S    
C4    C36   1.448139 S    
C11   C13   1.202890 T    
C40   O22   1.265970 A    
C19   C20   1.393734 A    
O23   C41   1.264644 A    
O20   C42   1.266810 A    
N2    O29   1.301208 A    
C44   H14   1.109387 S    
C6    C30   1.453216 S    
O4    Cr2   1.923762 S    
C2    C10   1.423671 S    
C31   H7    1.084068 S    
O8    Cr1   1.937058 S    
C33   C42   1.454058 S    
O14   Cr4   2.039064 S    
C12   C13   1.407833 S    
C8    C10   1.199681 T    
C32   N1    1.436814 S    
O4    C2    1.273084 A    
C45   H11   1.111142 S    
C25   C30   1.402951 A    
C34   C35   1.388234 A    
C5    O11   1.247043 A    
C33   C34   1.405518 A    
O14   C39   1.267898 A    
O12   C6    1.302355 A    
C26   C27   1.399491 A    
C7    C38   1.423673 S    
C19   C24   1.439362 A    
O19   Cr6   1.927722 S    
N2    O30   1.299596 A    
C31   C36   1.402036 A    
C15   C39   1.425176 S    
O6    C3    1.271206 A    
C29   C30   1.399286 A    
C15   C17   1.200604 T    
C20   N2    1.435932 S    
C23   C24   1.395543 A    
O17   C38   1.272514 A    
C35   H9    1.083392 S    
Cr3   O13   1.973581 S    
N1    O27   1.301538 A    
Cr4   O26   1.976503 S    
O20   Cr4   2.050442 S    
Cr5   O26   1.973429 S    
C29   H6    1.082165 S    
O15   Cr4   1.935018 S    
C31   C32   1.386980 A    
C35   C36   1.396010 A    
O1    Cr1   2.057101 S    
C38   O18   1.267997 A    
O10   Cr2   1.925359 S    
Cr1   O13   1.975911 S    
O1    C3    1.265494 A    
C8    C9    1.402699 S    
C27   C40   1.451943 S    
C45   H10   1.110882 S    
O23   Cr5   1.939570 S    
C1    C18   1.425368 S    
C44   C45   1.528438 S    
O12   Cr3   1.919367 S    
C16   C18   1.200663 T    
C25   H3    1.083162 S    
C21   C22   1.400989 A    
O25   Cr6   1.920822 S    
O16   Cr5   2.058888 S    
C27   C28   1.404167 A    
O7    Cr1   2.037783 S    
C44   H13   1.109412 S    
O6    Cr3   1.938669 S    
C43   C44   1.538702 S    
N1    O28   1.301211 A    
C25   C26   1.387653 A    
C3    C14   1.429220 S    
C23   H2    1.083794 S    
C21   C41   1.436283 S    
Cr2   O13   1.984680 S    
O22   Cr5   2.037033 S    
C1    O3    1.269249 A    
C20   C21   1.389940 A    
O9    Cr2   2.041351 S    
O2    Cr1   1.921547 S    
O25   C42   1.274032 A    
C5    C24   1.453845 S    
O21   C40   1.266991 A    
C45   H12   1.110728 S    
C19   C43   1.537335 S    
C2    O5    1.267001 A    
O18   Cr6   2.038470 S    
C16   C17   1.404230 S    
C12   C14   1.202891 T    
O2    C1    1.273000 A    
O21   Cr4   1.921115 S    
O5    Cr3   2.037363 S    
C37   O16   1.264576 A    
O17   Cr5   1.921022 S    
C22   C23   1.376403 A    
C41   O24   1.273546 A    
C34   H8    1.081551 S    
C22   H1    1.083395 S    
O24   Cr6   2.046516 S    
O7    C6    1.288754 A    
C28   H5    1.083601 S    
C28   C29   1.384886 A    
C43   H16   1.105921 S    
C7    C9    1.199688 T    
O19   C39   1.275287 A    
C11   C37   1.429211 S    
O15   C37   1.270826 A    
O3    Cr2   2.042029 S    
C26   H4    1.083375 S    
C4    O9    1.266285 A    
Cr6   O26   1.984639 S    
O10   C5    1.289233 A    
C43   H15   1.112701 S    
O8    C4    1.274767 A    
