data_mof_unit_3717.cif
_audit_creation_date              2012-12-10T16:50:09-0500
_audit_creation_method            fapswitch 2.2
_symmetry_space_group_name_H-M    P1
_symmetry_Int_Tables_number       1
_space_group_crystal_system       triclinic
_cell_length_a                    7.812834
_cell_length_b                    8.64531
_cell_length_c                    10.620115
_cell_angle_alpha                 92.193856
_cell_angle_beta                  85.609294
_cell_angle_gamma                 92.99502
_cell_volume                      713.823397588

loop_
_atom_site_label
_atom_site_type_symbol
_atom_type_description
_atom_site_fract_x
_atom_site_fract_y
_atom_site_fract_z
_atom_type_partial_charge
C1    C     C_R   0.544268 0.793902 0.496113 0.882760
C2    C     C_R   0.455632 0.206223 0.502581 0.906905
C3    C     C_R   0.498793 0.501408 0.260936 0.862541
C4    C     C_R   0.413821 0.780223 0.882641 -0.136094
C5    C     C_R   0.364548 0.910939 0.954839 -0.100019
C6    C     C_R   0.359041 0.909841 0.085911 -0.140304
C7    C     C_R   0.402061 0.777765 0.145193 -0.165539
C8    C     C_R   0.449994 0.643405 0.073322 0.096032
C9    C     C_1   0.621866 0.244127 0.858959 0.174367
C10   C     C_1   0.971085 0.637483 0.626074 0.447250
C11   C     C_1   0.701813 0.000844 0.382640 0.226461
C12   C     C_R   0.455567 0.644268 0.941355 0.073926
C13   C     C_1   0.293572 0.000497 0.611039 0.214802
C14   C     C_R   0.507533 0.509856 0.871875 -0.134722
C15   C     C_R   0.561851 0.379790 0.929944 -0.020040
C16   C     C_R   0.555804 0.380196 0.059160 -0.250162
C17   C     C_R   0.497862 0.508800 0.129154 -0.099908
C18   C     C_2   0.562225 0.953586 0.474440 -0.235174
C19   C     C_2   0.436585 0.046498 0.522097 -0.239830
C20   C     C_R   0.502183 0.502948 0.739212 0.869129
H1    H     H_    0.399094 0.782959 0.247084 0.147768
H2    H     H_    0.013718 0.385486 0.401368 0.197263
H3    H     H_    0.421822 0.787584 0.781054 0.143243
H4    H     H_    0.332424 0.014128 0.909106 0.151914
H5    H     H_    0.322899 0.012025 0.141781 0.140378
H6    H     H_    0.594981 0.279645 0.106011 0.156319
N1    N     N_2   0.950330 0.457950 0.466250 -0.179227
N2    N     N_2   0.049670 0.542050 0.533750 -0.150591
N3    N     N_1   0.670333 0.136087 0.802051 -0.189993
N4    N     N_1   0.906704 0.717427 0.703750 -0.216199
N5    N     N_1   0.812557 0.037881 0.309609 -0.203022
N6    N     N_1   0.179068 0.966632 0.681788 -0.199085
O1    O     O_R   0.389250 0.738570 0.508280 -0.631028
O2    O     O_R   0.678390 0.711630 0.486650 -0.619732
O3    O     O_R   0.355400 0.513470 0.694050 -0.625105
O4    O     O_R   0.644540 0.486530 0.672420 -0.619282
O5    O     O_R   0.321610 0.288370 0.513350 -0.622638
O6    O     O_R   0.610750 0.261430 0.491720 -0.603089
O7    O     O_R   0.355460 0.513470 0.327580 -0.634071
O8    O     O_R   0.644600 0.486530 0.305950 -0.608640
Zn1   Zn    Zn3+2 0.306930 0.517990 0.514440 0.955488
Zn2   Zn    Zn3+2 0.693070 0.482010 0.485560 0.976947

loop_
_geom_bond_atom_site_label_1
_geom_bond_atom_site_label_2
_ccdc_geom_bond_type
C3    O8    A    
C11   N5    T    
C11   C18   S    
C3    C17   S    
C6    C7    A    
C4    C12   A    
C2    O6    A    
C13   N6    T    
O4    Zn2   S    
C8    C17   A    
C2    O5    A    
C9    N3    T    
C8    C12   A    
O1    Zn1   S    
O8    Zn2   S    
C9    C15   S    
C3    O7    A    
C7    C8    A    
O7    Zn1   S    
C16   H6    S    
N1    Zn2   S    
C1    C18   S    
C5    H4    S    
C12   C14   A    
C1    O2    A    
O6    Zn2   S    
H2    N1    S    
O5    Zn1   S    
C5    C6    A    
O3    Zn1   S    
C6    H5    S    
C13   C19   S    
C1    O1    A    
C15   C16   A    
C20   O4    A    
C14   C20   S    
N2    Zn1   S    
C18   C19   D    
C10   N2    S    
N1    N2    D    
C4    H3    S    
C10   N4    T    
C14   C15   A    
C16   C17   A    
C2    C19   S    
C7    H1    S    
C20   O3    A    
C4    C5    A    
O2    Zn2   S    
