data_mof_unit_1543.cif
_audit_creation_date              2013-03-05T15:40:46-0500
_audit_creation_method            fapswitch 2.2
_symmetry_space_group_name_H-M    P1
_symmetry_Int_Tables_number       1
_space_group_crystal_system       triclinic
_cell_length_a                    6.921255
_cell_length_b                    17.365191
_cell_length_c                    24.077722
_cell_angle_alpha                 104.497914
_cell_angle_beta                  90.613013
_cell_angle_gamma                 90.14605
_cell_volume                      2801.52370663

loop_
_atom_site_label
_atom_site_type_symbol
_atom_site_description
_atom_site_fract_x
_atom_site_fract_y
_atom_site_fract_z
_atom_type_partial_charge
O1    O     O_R   0.494290 0.391990 0.999150 -0.593884
O2    O     O_R   0.827170 0.534410 0.082350 -0.554203
O3    O     O_R   0.994360 0.608010 0.000850 -0.519997
C1    C     C_R   0.659249 0.550266 0.106184 0.896935
O4    O     O_R   0.824210 0.388010 0.004470 -0.532939
O5    O     O_R   0.991370 0.460560 0.922410 -0.570908
C2    C     C_R   0.653419 0.354889 0.001120 0.789973
O6    O     O_R   0.497270 0.539440 0.077590 -0.556266
O7    O     O_3   0.659770 0.523970 0.973170 -0.245974
V1    V     V_3+5 0.935840 0.495550 0.004980 1.213354
O8    O     O_R   0.320910 0.465590 0.917650 -0.572004
C3    C     C_R   0.151212 0.449165 0.893980 0.814541
O9    O     O_R   0.323870 0.611990 0.995530 -0.515564
C4    C     C_R   0.153983 0.645368 0.999277 0.896289
V2    V     V_3+5 0.435470 0.504450 0.995020 1.205118
O10   O     O_3   0.161670 0.476030 0.026830 -0.280899
C5    C     C_2   0.138935 0.730657 0.999436 -0.278983
H1    H     H_    0.272323 0.761006 0.994254 0.138539
C6    C     C_2   0.968612 0.771093 0.004417 0.174067
C7    C     C_R   0.020449 0.243890 0.627756 0.554296
N1    N     N_R   0.101798 0.317713 0.649279 -0.449668
C8    C     C_R   0.169243 0.361428 0.613215 0.560048
C9    C     C_R   0.155778 0.331477 0.553254 -0.033598
C10   C     C_R   0.071152 0.256141 0.530622 -0.037809
C11   C     C_R   0.003047 0.211736 0.568047 -0.023197
C12   C     C_R   0.223597 0.375245 0.515496 -0.067849
C13   C     C_R   0.207012 0.344771 0.456130 -0.040932
C14   C     C_R   0.121936 0.269828 0.433042 -0.034523
C15   C     C_R   0.054137 0.225262 0.470427 -0.041857
C16   C     C_R   0.969047 0.149984 0.447764 -0.037445
C17   C     C_R   0.902375 0.106001 0.485528 -0.068364
C18   C     C_R   0.919262 0.136474 0.544930 -0.065785
C19   C     C_R   0.102619 0.238204 0.373393 0.688498
N2    N     N_R   0.018409 0.165041 0.351923 -0.417554
C20   C     C_R   0.952545 0.120763 0.387779 0.673847
O11   O     O_2   0.957719 0.201408 0.663950 -0.559084
O12   O     O_2   0.247023 0.434139 0.635240 -0.526106
H2    H     H_    0.289455 0.433301 0.531673 0.135712
H3    H     H_    0.260669 0.380260 0.428415 0.146058
O13   O     O_2   0.167739 0.280083 0.337108 -0.479675
O14   O     O_2   0.870613 0.048949 0.365459 -0.487457
H4    H     H_    0.836609 0.047923 0.469332 0.128415
H5    H     H_    0.865968 0.100909 0.572651 0.125803
C21   C     C_R   0.138387 0.077953 0.261543 0.296637
C22   C     C_R   0.127082 0.048586 0.201205 0.243882
C23   C     C_R   0.977453 0.074387 0.169776 -0.254750
C24   C     C_R   0.839307 0.127681 0.199229 -0.123249
H6    H     H_    0.723612 0.146360 0.175019 0.191147
C25   C     C_R   0.848991 0.158316 0.259059 0.357781
C26   C     C_R   0.001464 0.133805 0.290487 0.089564
C27   C     C_R   0.295206 0.366402 0.738311 0.001488
H7    H     H_    0.426503 0.353433 0.713746 0.081566
C28   C     C_R   0.307412 0.398907 0.797676 -0.115351
H8    H     H_    0.448958 0.410235 0.817679 0.091650
C29   C     C_R   0.138907 0.416058 0.830703 -0.098513
C30   C     C_R   0.958118 0.399625 0.802721 -0.114054
H9    H     H_    0.825346 0.411770 0.826638 0.094391
C31   C     C_R   0.946274 0.367222 0.743383 0.000730
H10   H     H_    0.805777 0.355566 0.722725 0.079308
C32   C     C_R   0.114581 0.350337 0.710671 0.276199
C33   C     C_R   0.449111 0.885167 0.609434 0.581600
N3    N     N_R   0.529753 0.846919 0.647482 -0.424086
C34   C     C_R   0.632956 0.778123 0.628106 0.627250
C35   C     C_R   0.656491 0.745032 0.568753 -0.038013
C36   C     C_R   0.571998 0.783201 0.529397 -0.042391
C37   C     C_R   0.468017 0.854035 0.549794 -0.022158
C38   C     C_R   0.761009 0.674552 0.547818 -0.035131
C39   C     C_R   0.779437 0.642075 0.488743 -0.070319
C40   C     C_R   0.694016 0.679267 0.449022 -0.031801
C41   C     C_R   0.590734 0.750295 0.469497 -0.041455
C42   C     C_R   0.505265 0.788297 0.430205 -0.035044
C43   C     C_R   0.403071 0.859391 0.451128 -0.055277
C44   C     C_R   0.384660 0.891826 0.510143 -0.084312
C45   C     C_R   0.707520 0.646792 0.389255 0.560567
N4    N     N_R   0.622130 0.684051 0.351301 -0.451389
C46   C     C_R   0.523596 0.754057 0.370867 0.568998
O15   O     O_2   0.351236 0.953295 0.629147 -0.587538
O16   O     O_2   0.712451 0.741773 0.666129 -0.485201
H11   H     H_    0.828219 0.643993 0.577010 0.157253
H12   H     H_    0.860197 0.587505 0.474331 0.133124
O17   O     O_2   0.802837 0.577896 0.369391 -0.534334
O18   O     O_2   0.444331 0.790870 0.333067 -0.496616
H13   H     H_    0.336119 0.890087 0.421974 0.157160
H14   H     H_    0.304069 0.946453 0.524551 0.126410
C47   C     C_R   0.463472 0.625814 0.257360 0.013556
H15   H     H_    0.324118 0.633406 0.277983 0.083635
C48   C     C_R   0.472361 0.593373 0.197994 -0.092129
H16   H     H_    0.338557 0.576965 0.174218 0.097353
C49   C     C_R   0.651223 0.582529 0.169742 -0.097632
C50   C     C_R   0.821048 0.604649 0.202782 -0.086015
H17   H     H_    0.961187 0.597596 0.182634 0.094706
C51   C     C_R   0.811800 0.637472 0.262225 0.017063
H18   H     H_    0.944071 0.655080 0.286556 0.091234
C52   C     C_R   0.632815 0.648673 0.290075 0.268542
C53   C     C_R   0.363522 0.842460 0.738045 0.341710
C54   C     C_R   0.346977 0.870050 0.798047 -0.200285
H19   H     H_    0.241279 0.843261 0.820408 0.149668
C55   C     C_R   0.468528 0.929763 0.830053 -0.205124
C56   C     C_R   0.606113 0.965380 0.801244 0.309290
C57   C     C_R   0.619672 0.941229 0.740546 -0.025226
C58   C     C_R   0.501846 0.877914 0.708763 0.173083
C59   C     C_2   0.633301 0.272942 0.008361 0.171044
C60   C     C_2   0.478578 0.224569 0.985295 -0.145215
O19   O     O_R   0.618210 0.960470 0.922400 -0.535724
O20   O     O_R   0.291310 0.111960 0.995450 -0.566898
O21   O     O_R   0.124210 0.039530 0.077580 -0.530151
C61   C     C_R   0.461725 0.143750 0.995435 0.940822
O22   O     O_R   0.288310 0.965490 0.917650 -0.563538
O23   O     O_R   0.121180 0.892010 0.999220 -0.576235
C62   C     C_R   0.456938 0.952598 0.893833 0.875189
O24   O     O_R   0.621230 0.107990 0.000760 -0.524916
O25   O     O_3   0.455770 0.976060 0.026840 -0.247986
V3    V     V_3+5 0.179680 0.004440 0.995020 1.257569
O26   O     O_R   0.791670 0.888040 0.004570 -0.530737
C63   C     C_R   0.960720 0.855168 0.001859 0.823047
O27   O     O_R   0.794680 0.034510 0.082370 -0.538047
C64   C     C_R   0.964823 0.047816 0.106119 0.953306
V4    V     V_3+5 0.680070 0.995560 0.005010 1.305934
O28   O     O_3   0.953840 0.023940 0.973160 -0.255294
N5    N     N_R   0.703476 0.214030 0.286708 0.134537
O29   O     O_R   0.673256 0.227993 0.341549 -0.325267
O30   O     O_R   0.591827 0.248359 0.256365 -0.288114
N6    N     N_R   0.789336 0.734118 0.012946 0.104780
O31   O     O_R   0.654051 0.724152 0.973855 -0.364032
O32   O     O_R   0.749416 0.723793 0.063280 -0.336254
N7    N     N_R   0.239361 0.778258 0.707840 0.109606
O33   O     O_R   0.199289 0.767991 0.653556 -0.372467
O34   O     O_R   0.154204 0.732561 0.735572 -0.304757
N8    N     N_R   0.732027 0.026580 0.833677 0.080316
O35   O     O_R   0.917214 0.014498 0.835320 -0.382436
O36   O     O_R   0.661171 0.093429 0.863248 -0.423413
C65   C     C_3   0.758204 0.984391 0.710115 -0.191719
C66   C     C_3   0.949480 0.940833 0.697850 -0.302606
H20   H     H_    0.057651 0.981908 0.687369 0.184586
H21   H     H_    0.001919 0.921557 0.735877 0.175812
H22   H     H_    0.934123 0.888216 0.660882 0.158618
H23   H     H_    0.695045 0.992359 0.669495 0.137633
H24   H     H_    0.786836 0.045824 0.736244 0.177179
N9    N     N_R   0.768497 0.249965 0.047090 0.082372
O37   O     O_R   0.706864 0.234477 0.094026 -0.362936
O38   O     O_R   0.953321 0.257223 0.040426 -0.363679
C67   C     C_3   0.334926 0.249505 0.943786 -0.276571
C68   C     C_3   0.211671 0.183461 0.905178 -0.272625
H25   H     H_    0.300695 0.131041 0.885186 0.157670
H26   H     H_    0.091840 0.165585 0.929627 0.198168
H27   H     H_    0.144738 0.206161 0.870284 0.123126
H28   H     H_    0.234725 0.294813 0.968605 0.186707
H29   H     H_    0.417690 0.276710 0.914134 0.110004
N10   N     N_R   0.284668 0.048588 0.293748 0.127192
O39   O     O_R   0.385137 0.097317 0.333467 -0.309630
O40   O     O_R   0.313461 0.972461 0.284797 -0.238764
N11   N     N_R   0.267048 0.992139 0.172215 0.129207
O41   O     O_R   0.211164 0.924122 0.139374 -0.332340
O42   O     O_R   0.450866 0.007345 0.180220 -0.300185

loop_
_geom_bond_atom_site_label_1
_geom_bond_atom_site_label_2
_geom_bond_distance
_ccdc_geom_bond_type
C39   H12   1.083072 S    
C68   H27   1.110979 S    
O19   C62   1.293603 A    
C48   H16   1.082676 S    
N7    O33   1.300915 A    
C55   C62   1.489929 S    
C17   H4    1.083211 S    
N9    O38   1.300656 A    
C53   C54   1.409643 A    
C1    O6    1.297613 A    
O26   C63   1.298259 A    
N6    O31   1.300515 A    
C24   C25   1.405970 A    
C47   H15   1.082747 S    
N5    O29   1.300769 A    
O20   C61   1.301053 A    
C6    N6    1.435780 S    
C12   C13   1.397785 A    
C15   C16   1.409063 A    
C16   C20   1.409158 A    
O24   V4    2.022686 S    
O20   V3    2.016413 S    
C14   C15   1.409034 A    
C1    C49   1.493862 S    
N10   O40   1.301287 A    
O5    C3    1.296597 A    
C16   C17   1.406409 A    
N6    O32   1.301136 A    
C25   N5    1.445820 S    
C7    C11   1.409651 A    
C31   C32   1.403238 A    
C68   H25   1.108955 S    
C55   C56   1.412967 A    
C30   H9    1.082616 S    
N2    C20   1.372342 A    
C9    C12   1.406338 A    
V4    O28   2.153352 S    
C57   C58   1.421378 A    
V3    O28   1.705667 S    
O8    V2    1.972478 S    
C33   C37   1.409668 A    
C24   H6    1.082696 S    
C13   H3    1.083100 S    
C65   C66   1.521051 S    
C2    C59   1.482744 S    
C54   C55   1.399442 A    
C66   H22   1.108471 S    
C9    C10   1.408463 A    
C41   C42   1.408206 A    
O1    V2    2.022332 S    
O7    V1    2.154973 S    
C44   H14   1.083238 S    
C33   N3    1.373869 A    
O23   V3    2.020299 S    
N3    C58   1.453652 S    
C11   C18   1.406830 A    
C47   C48   1.401143 A    
O9    C4    1.306229 A    
C4    C5    1.484032 S    
C59   C60   1.382005 D    
O4    V1    2.016291 S    
O25   V3    2.154969 S    
N5    O30   1.301772 A    
C19   N2    1.371875 A    
O19   V4    1.970932 S    
C28   C29   1.408647 A    
N2    C26   1.445807 S    
C19   O13   1.349131 S    
C67   C68   1.533443 S    
C45   N4    1.374574 A    
C56   N8    1.436635 S    
O21   V3    1.970105 S    
C27   H7    1.082682 S    
C3    C29   1.489095 S    
C35   C38   1.406672 A    
C67   H29   1.112338 S    
C38   H11   1.083076 S    
C10   C11   1.408529 A    
N1    C32   1.446173 S    
C46   O18   1.349227 S    
O4    C2    1.306100 A    
C12   H2    1.083103 S    
C31   H10   1.082676 S    
C28   H8    1.082551 S    
C37   C44   1.406690 A    
C38   C39   1.400059 A    
C23   C64   1.487481 S    
C27   C28   1.400744 A    
O22   V3    1.973530 S    
O2    C1    1.301031 A    
N4    C46   1.374503 A    
N3    C34   1.373861 A    
C47   C52   1.404677 A    
C50   C51   1.403977 A    
C56   C57   1.420139 A    
C6    C63   1.477736 S    
N9    O37   1.301291 A    
C54   H19   1.083323 S    
C29   C30   1.408889 A    
C51   C52   1.405646 A    
C5    H1    1.085618 S    
C40   C45   1.412245 A    
C7    N1    1.373475 A    
O26   V4    2.020010 S    
O3    C4    1.285451 A    
O27   V4    1.972574 S    
N11   O42   1.301171 A    
C14   C19   1.408101 A    
C36   C37   1.407747 A    
O6    V2    1.969857 S    
C33   O15   1.346713 S    
C48   C49   1.409176 A    
O21   C64   1.295128 A    
C66   H20   1.106546 S    
C45   O17   1.348921 S    
O2    V1    1.973472 S    
C60   C67   1.540298 S    
C21   C22   1.415351 A    
N8    O35   1.301093 A    
C21   C26   1.415926 A    
C68   H26   1.109699 S    
C23   C24   1.401448 A    
N7    O34   1.301627 A    
O1    C2    1.283805 A    
C61   O24   1.288856 A    
C67   H28   1.110556 S    
C39   C40   1.407280 A    
C17   C18   1.398746 A    
C43   C44   1.398615 A    
O5    V1    1.970317 S    
O8    C3    1.299322 A    
C57   C65   1.518000 S    
C53   C58   1.421786 A    
C21   N10   1.438816 S    
C22   N11   1.436396 S    
C35   C36   1.408492 A    
O9    V2    2.019955 S    
O7    V2    1.704647 S    
C42   C43   1.406737 A    
O3    V1    2.020343 S    
V1    O10   1.705615 S    
N10   O39   1.300676 A    
O25   V4    1.704375 S    
C8    O12   1.349253 S    
C53   N7    1.444348 S    
C50   H17   1.082607 S    
C42   C46   1.410607 A    
O22   C62   1.300961 A    
V2    O10   2.153348 S    
C51   H18   1.082691 S    
C5    C6    1.364624 D    
C18   H5    1.083269 S    
C30   C31   1.399771 A    
O27   C64   1.298138 A    
C59   N9    1.440097 S    
C40   C41   1.408165 A    
C20   O14   1.349028 S    
C43   H13   1.083169 S    
O23   C63   1.290337 A    
C34   C35   1.411846 A    
C7    O11   1.349268 S    
C22   C23   1.414660 A    
C10   C15   1.417387 A    
N11   O41   1.301324 A    
C25   C26   1.419130 A    
C13   C14   1.405792 A    
C66   H21   1.108643 S    
C8    C9    1.408688 A    
C60   C61   1.488007 S    
C27   C32   1.403945 A    
C65   H23   1.107115 S    
C49   C50   1.409491 A    
N1    C8    1.372990 A    
C65   H24   1.110566 S    
C36   C41   1.419575 A    
N4    C52   1.450930 S    
N8    O36   1.300600 A    
C34   O16   1.348948 S    
