data_mof_unit_3299.cif
_audit_creation_date              2013-03-05T15:41:28-0500
_audit_creation_method            fapswitch 2.2
_symmetry_space_group_name_H-M    P1
_symmetry_Int_Tables_number       1
_space_group_crystal_system       triclinic
_cell_length_a                    11.59114
_cell_length_b                    18.682134
_cell_length_c                    9.97783
_cell_angle_alpha                 90.000011
_cell_angle_beta                  110.350994
_cell_angle_gamma                 89.999784
_cell_volume                      2025.80187996

loop_
_atom_site_label
_atom_site_type_symbol
_atom_site_description
_atom_site_fract_x
_atom_site_fract_y
_atom_site_fract_z
_atom_type_partial_charge
O1    O     O_R   0.267710 0.668200 0.902110 -0.475469
O2    O     O_R   0.732290 0.331800 0.097890 -0.475510
O3    O     O_R   0.732290 0.168200 0.097890 -0.475473
O4    O     O_R   0.267710 0.831800 0.902110 -0.475516
O5    O     O_R   0.099480 0.674460 0.038850 -0.418059
O6    O     O_R   0.900520 0.325540 0.961150 -0.417784
O7    O     O_R   0.900520 0.174460 0.961150 -0.417790
O8    O     O_R   0.099480 0.825540 0.038850 -0.417990
C1    C     C_R   0.072562 0.646535 0.140545 0.562286
C2    C     C_R   0.927519 0.353428 0.859484 0.562397
C3    C     C_R   0.927508 0.146565 0.859482 0.562385
C4    C     C_R   0.072548 0.853458 0.140543 0.562345
O9    O     O_R   0.116720 0.669210 0.267660 -0.535066
O10   O     O_R   0.883280 0.330790 0.732340 -0.535094
O11   O     O_R   0.883280 0.169210 0.732340 -0.535092
O12   O     O_R   0.116720 0.830790 0.267660 -0.535085
O13   O     O_R   0.366710 0.675440 0.427590 -0.509631
O14   O     O_R   0.633290 0.324560 0.572410 -0.509616
O15   O     O_R   0.633290 0.175440 0.572410 -0.509624
O16   O     O_R   0.366710 0.824560 0.427590 -0.509628
C5    C     C_R   0.469918 0.646996 0.443272 0.532804
C6    C     C_R   0.530076 0.352998 0.556714 0.532852
C7    C     C_R   0.530079 0.147000 0.556717 0.532843
C8    C     C_R   0.469919 0.853003 0.443275 0.532813
O17   O     O_R   0.534870 0.669390 0.371760 -0.523407
O18   O     O_R   0.465130 0.330610 0.628240 -0.523354
O19   O     O_R   0.465130 0.169390 0.628240 -0.523352
O20   O     O_R   0.534870 0.830610 0.371760 -0.523395
O21   O     O_R   0.453080 0.674480 0.075160 -0.506959
O22   O     O_R   0.546920 0.325520 0.924840 -0.506967
O23   O     O_R   0.546920 0.174480 0.924840 -0.506976
O24   O     O_R   0.453080 0.825520 0.075160 -0.506948
C9    C     C_R   0.376391 0.645398 0.963611 0.547317
C10   C     C_R   0.623609 0.354603 0.036388 0.547291
C11   C     C_R   0.623610 0.145397 0.036388 0.547296
C12   C     C_R   0.376390 0.854603 0.963610 0.547302
Cr1   Cr    Cr6+3 0.187610 0.750000 0.979860 1.163386
Cr2   Cr    Cr6+3 0.812390 0.250000 0.020140 1.163689
Cr3   Cr    Cr6+3 0.245810 0.750000 0.341640 1.020508
Cr4   Cr    Cr6+3 0.754190 0.250000 0.658360 1.020541
Cr5   Cr    Cr6+3 0.485760 0.750000 0.219910 1.026660
Cr6   Cr    Cr6+3 0.514240 0.250000 0.780090 1.026679
O25   O     O_3   0.306390 0.750000 0.180470 -0.271881
O26   O     O_3   0.693610 0.250000 0.819530 -0.271894
C13   C     C_R   0.503799 0.424816 0.490587 -0.028650
C14   C     C_R   0.496180 0.575165 0.509350 -0.028621
C15   C     C_R   0.496185 0.924831 0.509361 -0.028617
C16   C     C_R   0.503806 0.075180 0.490596 -0.028662
C17   C     C_R   0.285722 0.419798 0.470050 -0.034663
C18   C     C_R   0.714255 0.580178 0.529849 -0.034395
C19   C     C_R   0.714260 0.919814 0.529866 -0.034449
C20   C     C_R   0.285727 0.080200 0.470045 -0.034669
C21   C     C_R   0.184952 0.451441 0.491679 -0.082872
C22   C     C_R   0.815033 0.548527 0.508251 -0.082675
C23   C     C_R   0.815035 0.951461 0.508256 -0.082718
C24   C     C_R   0.184955 0.048558 0.491674 -0.082863
C25   C     C_R   0.190650 0.522658 0.532628 -0.130577
C26   C     C_R   0.809332 0.477309 0.467312 -0.130484
C27   C     C_R   0.809337 0.022680 0.467320 -0.130472
C28   C     C_R   0.190655 0.977343 0.532635 -0.130604
C29   C     C_R   0.294890 0.563153 0.545471 -0.084589
C30   C     C_R   0.705083 0.436821 0.454459 -0.084559
C31   C     C_R   0.705093 0.063173 0.454475 -0.084563
C32   C     C_R   0.294895 0.936846 0.545481 -0.084585
C33   C     C_R   0.395725 0.533239 0.515486 0.004755
C34   C     C_R   0.604249 0.466740 0.484436 0.004768
C35   C     C_R   0.604257 0.033255 0.484451 0.004765
C36   C     C_R   0.395731 0.966759 0.515496 0.004762
C37   C     C_R   0.394882 0.459040 0.490051 0.006612
C38   C     C_R   0.605092 0.540940 0.509861 0.006692
C39   C     C_R   0.605099 0.959055 0.509878 0.006693
C40   C     C_R   0.394888 0.040958 0.490056 0.006606
H1    H     H_    0.103545 0.420091 0.479894 0.155660
H2    H     H_    0.896450 0.579873 0.520056 0.155594
H3    H     H_    0.896447 0.920113 0.520051 0.155598
H4    H     H_    0.103546 0.079908 0.479878 0.155667
H5    H     H_    0.114304 0.546664 0.554782 0.150364
H6    H     H_    0.885679 0.453298 0.445168 0.150295
H7    H     H_    0.885685 0.046690 0.445176 0.150325
H8    H     H_    0.114310 0.953339 0.554795 0.150327
H9    H     H_    0.278199 0.364085 0.438310 0.170314
H10   H     H_    0.721785 0.635892 0.561584 0.170278
H11   H     H_    0.721789 0.864102 0.561605 0.170271
H12   H     H_    0.278205 0.135911 0.438296 0.170296
H13   H     H_    0.297435 0.617007 0.585911 0.146770
H14   H     H_    0.702532 0.382966 0.414026 0.146721
H15   H     H_    0.702547 0.117029 0.414046 0.146730
H16   H     H_    0.297440 0.882992 0.585922 0.146764
H17   H     H_    0.448641 0.059390 0.882989 0.170152
H18   H     H_    0.551371 0.940606 0.116994 0.170153
H19   H     H_    0.551339 0.559384 0.117020 0.170145
H20   H     H_    0.448617 0.440604 0.883008 0.170155
C41   C     C_2   0.405980 0.924072 0.921382 -0.103482
C42   C     C_2   0.594025 0.075924 0.078605 -0.103464
C43   C     C_2   0.594019 0.424073 0.078612 -0.103482
C44   C     C_2   0.405978 0.575926 0.921387 -0.103450
C45   C     C_2   0.493362 0.962759 0.014835 -0.149705
C46   C     C_2   0.506650 0.037236 0.985147 -0.149721
C47   C     C_2   0.506630 0.462758 0.985163 -0.149706
C48   C     C_2   0.493342 0.537234 0.014853 -0.149712
H21   H     H_    0.655746 0.051730 0.175730 0.125454
H22   H     H_    0.344261 0.948264 0.824254 0.125430
H23   H     H_    0.344270 0.551739 0.824247 0.125469
H24   H     H_    0.655744 0.448268 0.175732 0.125419
C49   C     C_2   0.016829 0.923999 0.119809 -0.080648
C50   C     C_2   0.983493 0.076091 0.880346 -0.080737
C51   C     C_2   0.983547 0.423888 0.880352 -0.080691
C52   C     C_2   0.016892 0.575979 0.119814 -0.080714
C53   C     C_2   0.998346 0.960553 0.998184 0.168263
C54   C     C_2   0.002041 0.039549 0.002012 0.168221
C55   C     C_2   0.002161 0.460424 0.002036 0.168265
C56   C     C_2   0.998495 0.539419 0.998217 0.168250
H25   H     H_    0.980542 0.049093 0.783109 0.132411
H26   H     H_    0.019947 0.950999 0.217108 0.132490
H27   H     H_    0.019961 0.548983 0.217095 0.132492
H28   H     H_    0.980578 0.450887 0.783110 0.132433
N1    N     N_R   0.022235 0.076885 0.134607 0.063040
O27   O     O_R   0.942253 0.071675 0.198834 -0.386799
O28   O     O_R   0.107505 0.125631 0.176028 -0.355422
N2    N     N_R   0.977856 0.923212 0.865530 0.063157
O29   O     O_R   0.892134 0.874710 0.824003 -0.355621
O30   O     O_R   0.057748 0.928259 0.801127 -0.386773
N3    N     N_R   0.978070 0.576755 0.865579 0.063253
O31   O     O_R   0.892158 0.625149 0.823815 -0.355717
O32   O     O_R   0.057951 0.571690 0.801176 -0.386796
N4    N     N_R   0.022369 0.423083 0.134625 0.063017
O33   O     O_R   0.942393 0.428287 0.198857 -0.386780
O34   O     O_R   0.107605 0.374314 0.175989 -0.355420

loop_
_geom_bond_atom_site_label_1
_geom_bond_atom_site_label_2
_geom_bond_distance
_ccdc_geom_bond_type
C26   C30   1.393181 A    
O4    C12   1.267790 A    
N4    O33   1.301070 A    
C24   H4    1.081694 S    
O23   Cr6   1.959466 S    
O5    Cr1   1.949308 S    
C55   C56   1.476521 S    
C45   C46   1.441928 S    
O1    C9    1.267786 A    
N3    O31   1.301560 A    
N2    O29   1.301414 A    
C1    C52   1.450455 S    
O7    C3    1.272485 A    
C30   H14   1.080572 S    
O18   Cr6   2.070679 S    
C18   C22   1.391301 A    
C19   C39   1.415150 A    
C32   C36   1.418140 A    
C52   H27   1.083413 S    
C23   C27   1.386622 A    
N1    O28   1.301124 A    
C50   C54   1.343302 D    
C4    C49   1.450423 S    
C43   C47   1.326964 D    
N3    O32   1.301164 A    
C42   C46   1.326964 D    
O21   C9    1.279076 A    
O20   Cr5   2.070681 S    
O13   Cr3   1.950299 S    
C17   H9    1.082603 S    
C20   H12   1.082601 S    
O14   Cr4   1.950297 S    
C1    O9    1.264344 A    
C22   H2    1.081700 S    
C3    O11   1.264434 A    
C12   C41   1.442250 S    
C4    O12   1.264328 A    
C42   H21   1.083063 S    
N4    O34   1.301124 A    
O24   Cr5   1.959464 S    
O6    Cr2   1.949307 S    
C7    O19   1.274627 A    
H19   C48   1.088896 S    
H18   C45   1.088899 S    
C19   C23   1.391296 A    
O1    Cr1   2.073694 S    
C23   H3    1.081698 S    
O2    C10   1.267790 A    
C17   C37   1.415143 A    
Cr5   O25   1.976980 S    
C2    C51   1.450454 S    
Cr6   O26   1.976980 S    
C16   C40   1.413487 A    
O8    C4    1.272538 A    
C54   N1    1.440929 S    
N2    O30   1.301262 A    
Cr2   O26   1.996337 S    
O11   Cr4   2.072108 S    
C31   C35   1.418140 A    
O9    Cr3   2.072116 S    
O22   C10   1.279070 A    
C50   H25   1.083423 S    
C13   C37   1.413488 A    
C25   H5    1.081284 S    
C49   H26   1.083437 S    
C10   C43   1.442242 S    
O3    Cr2   2.073700 S    
C14   C33   1.422197 A    
C2    O10   1.264420 A    
O17   Cr5   2.070680 S    
O16   Cr3   1.950305 S    
C30   C34   1.418141 A    
Cr3   O25   1.965847 S    
O13   C5    1.267988 A    
C24   C28   1.386624 A    
Cr1   O25   1.996337 S    
C19   H11   1.082593 S    
O15   C7    1.267971 A    
O5    C1    1.272529 A    
C20   C40   1.415136 A    
O2    Cr2   2.073694 S    
C47   C48   1.441925 S    
O3    C11   1.267787 A    
C36   C40   1.408666 A    
C55   N4    1.440898 S    
C15   C39   1.413525 A    
C29   H13   1.080580 S    
C56   N3    1.440888 S    
O23   C11   1.279072 A    
O8    Cr1   1.949301 S    
C27   H7    1.081284 S    
C9    C44   1.442244 S    
C41   C45   1.326963 D    
C15   C36   1.422193 A    
C43   H24   1.083064 S    
C18   H10   1.082602 S    
C5    C14   1.479380 S    
C22   C26   1.386615 A    
C11   C42   1.442244 S    
C52   C56   1.343155 D    
C5    O17   1.274610 A    
C28   H8    1.081288 S    
C21   C25   1.386626 A    
C7    C16   1.479375 S    
C31   H15   1.080585 S    
O14   C6    1.267973 A    
C8    C15   1.479379 S    
C51   C55   1.343272 D    
C21   H1    1.081694 S    
C8    O20   1.274611 A    
C41   H22   1.083071 S    
O6    C2    1.272486 A    
O24   C12   1.279076 A    
C25   C29   1.393186 A    
C27   C31   1.393184 A    
H17   C46   1.088895 S    
C28   C32   1.393193 A    
C18   C38   1.415148 A    
C53   C54   1.476544 S    
O19   Cr6   2.070683 S    
C34   C38   1.408660 A    
C3    C50   1.450489 S    
C49   C53   1.343180 D    
C33   C37   1.408670 A    
C44   C48   1.326964 D    
O7    Cr2   1.949302 S    
C32   H16   1.080585 S    
C35   C39   1.408669 A    
C16   C35   1.422180 A    
C51   H28   1.083417 S    
C14   C38   1.413529 A    
C17   C21   1.391292 A    
O15   Cr4   1.950306 S    
C26   H6    1.081286 S    
O12   Cr3   2.072107 S    
O10   Cr4   2.072115 S    
C29   C33   1.418143 A    
Cr4   O26   1.965848 S    
C6    C13   1.479368 S    
O4    Cr1   2.073698 S    
C53   N2    1.440955 S    
C6    O18   1.274622 A    
C44   H23   1.083070 S    
C13   C34   1.422175 A    
O21   Cr5   1.959467 S    
O22   Cr6   1.959466 S    
N1    O27   1.301100 A    
O16   C8    1.267989 A    
C20   C24   1.391297 A    
H20   C47   1.088897 S    
