data_mof_unit_4208.cif
_audit_creation_date              2012-12-10T18:53:43-0500
_audit_creation_method            fapswitch 2.2
_symmetry_space_group_name_H-M    P1
_symmetry_Int_Tables_number       1
_space_group_crystal_system       triclinic
_cell_length_a                    10.721183
_cell_length_b                    9.809701
_cell_length_c                    19.212535
_cell_angle_alpha                 90.00537
_cell_angle_beta                  90.104387
_cell_angle_gamma                 89.990916
_cell_volume                      2020.60965052

loop_
_atom_site_label
_atom_site_type_symbol
_atom_type_description
_atom_site_fract_x
_atom_site_fract_y
_atom_site_fract_z
_atom_type_partial_charge
C1    C     C_R   0.259768 0.500009 0.499962 0.871331
C2    C     C_R   0.740232 0.499991 0.500047 0.871348
C3    C     C_R   0.500601 0.500088 0.930106 0.267996
C4    C     C_R   0.499647 0.499956 0.069532 0.295389
C5    C     C_R   0.499832 0.499992 0.365385 0.893265
C6    C     C_R   0.500180 0.500007 0.634611 0.893029
C7    C     C_R   0.063862 0.377985 0.487707 -0.194691
C8    C     C_R   0.936137 0.622007 0.512332 -0.194711
C9    C     C_R   0.936093 0.377959 0.487780 -0.196018
C10   C     C_R   0.063907 0.622034 0.512259 -0.195892
C11   C     C_R   0.872621 0.499977 0.500071 -0.013356
C12   C     C_R   0.127379 0.500019 0.499959 -0.013550
C13   C     C_R   0.575143 0.072053 0.544668 -0.078812
C14   C     C_R   0.424842 0.927946 0.455341 -0.078086
C15   C     C_R   0.424837 0.072067 0.455343 -0.079276
C16   C     C_R   0.575146 0.927932 0.544666 -0.078506
C17   C     C_R   0.487979 0.622961 0.253453 -0.236990
C18   C     C_R   0.496965 0.376408 0.746569 -0.224453
C19   C     C_R   0.504754 0.623636 0.746572 -0.225727
C20   C     C_R   0.510526 0.376921 0.253462 -0.239445
C21   C     C_R   0.487878 0.624939 0.181000 0.160070
C22   C     C_R   0.496387 0.374717 0.818992 0.165503
C23   C     C_R   0.505728 0.625341 0.818996 0.165686
C24   C     C_R   0.510366 0.374913 0.181012 0.160591
C25   C     C_R   0.499187 0.499930 0.144742 0.041260
C26   C     C_R   0.501035 0.500041 0.855118 0.016860
C27   C     C_R   0.499462 0.499963 0.289632 -0.104950
C28   C     C_R   0.500612 0.500020 0.710348 -0.116587
H1    H     H_    0.112490 0.283146 0.477707 0.153724
H2    H     H_    0.887508 0.716846 0.522334 0.153611
H3    H     H_    0.887430 0.283100 0.477841 0.156965
H4    H     H_    0.112572 0.716893 0.522197 0.157071
H5    H     H_    0.479805 0.718155 0.281726 0.159964
H6    H     H_    0.493447 0.280520 0.718576 0.166494
H7    H     H_    0.508230 0.719510 0.718580 0.165433
H8    H     H_    0.518691 0.281728 0.281739 0.161591
H9    H     H_    0.635119 0.126886 0.580318 0.125343
H10   H     H_    0.364853 0.873112 0.419699 0.123999
H11   H     H_    0.364832 0.126911 0.419710 0.123442
H12   H     H_    0.635136 0.873087 0.580309 0.121513
N1    N     N_R   0.500000 0.857200 0.500000 -0.077773
N2    N     N_R   0.500000 0.142800 0.500000 -0.078296
N3    N     N_R   0.605160 0.467848 0.034586 -0.187612
N4    N     N_R   0.395127 0.532389 0.964938 -0.175858
N5    N     N_R   0.605596 0.467706 0.965570 -0.176318
N6    N     N_R   0.394617 0.532137 0.033953 -0.188056
O1    O     O_R   0.316770 0.614620 0.500000 -0.627201
O2    O     O_R   0.683230 0.385380 0.500000 -0.627215
O3    O     O_R   0.683230 0.614620 0.500000 -0.625834
O4    O     O_R   0.316770 0.385380 0.500000 -0.625975
O5    O     O_R   0.499990 0.614700 0.398140 -0.621942
O6    O     O_R   0.500010 0.385300 0.601860 -0.622616
O7    O     O_R   0.500010 0.614700 0.601860 -0.624339
O8    O     O_R   0.499990 0.385300 0.398140 -0.624363
Zn1   Zn    Zn3+2 0.500000 0.653120 0.500000 0.944581
Zn2   Zn    Zn3+2 0.500000 0.346880 0.500000 0.944066
C29   C     C_3   0.477720 0.761787 0.144404 -0.422746
C30   C     C_3   0.603835 0.809063 0.116641 -0.853757
H13   H     H_    0.672744 0.815438 0.159769 0.261455
H14   H     H_    0.639205 0.738231 0.076249 0.269073
H15   H     H_    0.593815 0.911710 0.092916 0.247362
H16   H     H_    0.408586 0.757306 0.101462 0.221637
H17   H     H_    0.442930 0.841126 0.180899 0.201196
C31   C     C_3   0.488655 0.237987 0.855622 -0.418376
C32   C     C_3   0.615534 0.167598 0.856833 -0.851883
H18   H     H_    0.647446 0.145809 0.802995 0.251539
H19   H     H_    0.685484 0.233029 0.883398 0.274425
H20   H     H_    0.608286 0.069816 0.885621 0.248656
H21   H     H_    0.454318 0.248152 0.909843 0.216233
H22   H     H_    0.420284 0.171633 0.828251 0.202291
C33   C     C_3   0.513781 0.762052 0.855649 -0.420644
C34   C     C_3   0.387001 0.832643 0.856800 -0.846988
H23   H     H_    0.354894 0.854553 0.802950 0.254300
H24   H     H_    0.317064 0.767305 0.883285 0.273943
H25   H     H_    0.394508 0.930374 0.885638 0.247900
H26   H     H_    0.548355 0.751784 0.909889 0.216193
H27   H     H_    0.582116 0.828308 0.828334 0.200424
C35   C     C_3   0.520224 0.238040 0.144419 -0.421749
C36   C     C_3   0.394022 0.191207 0.116324 -0.858549
H28   H     H_    0.325039 0.184986 0.159282 0.259715
H29   H     H_    0.358899 0.262223 0.075884 0.269929
H30   H     H_    0.403801 0.088563 0.092572 0.248060
H31   H     H_    0.589436 0.242306 0.101651 0.222005
H32   H     H_    0.554719 0.158563 0.180985 0.202678

loop_
_geom_bond_atom_site_label_1
_geom_bond_atom_site_label_2
_ccdc_geom_bond_type
C7    H1    S    
C4    C25   S    
C29   H16   S    
C4    N6    A    
C33   H26   S    
C30   H14   S    
O2    Zn2   S    
C23   C26   A    
N1    Zn1   S    
N2    Zn2   S    
C5    C27   S    
C35   H31   S    
C6    C28   S    
C20   C24   A    
C32   H19   S    
C31   H22   S    
C1    O4    A    
C13   H9    S    
C30   H15   S    
O7    Zn1   S    
C1    C12   S    
C17   H5    S    
C34   H25   S    
C2    C11   S    
C13   N2    A    
N4    N6    A    
C29   H17   S    
C18   H6    S    
C7    C12   A    
O8    Zn2   S    
C3    N4    A    
C17   C27   A    
C23   C33   S    
C5    O8    A    
C18   C28   A    
C24   C25   A    
C34   H24   S    
C36   H29   S    
C35   C36   S    
C1    O1    A    
C2    O2    A    
C30   H13   S    
O3    Zn1   S    
C3    N5    A    
O4    Zn2   S    
C19   C23   A    
C21   C29   S    
C2    O3    A    
C35   H32   S    
C14   H10   S    
N3    N5    A    
C32   H20   S    
C31   H21   S    
C19   C28   A    
C9    C11   A    
C15   H11   S    
C10   C12   A    
C16   H12   S    
C14   N1    A    
C24   C35   S    
C4    N3    A    
C6    O7    A    
C33   H27   S    
O1    Zn1   S    
C7    C9    A    
C21   C25   A    
C18   C22   A    
C3    C26   S    
C15   N2    A    
C34   H23   S    
C36   H30   S    
C20   C27   A    
C8    H2    S    
C31   C32   S    
C33   C34   S    
C19   H7    S    
C29   C30   S    
C8    C11   A    
O5    Zn1   S    
C17   C21   A    
C9    H3    S    
C22   C31   S    
C36   H28   S    
C20   H8    S    
C10   H4    S    
C8    C10   A    
C32   H18   S    
C22   C26   A    
C13   C16   A    
C14   C15   A    
C5    O5    A    
C6    O6    A    
C16   N1    A    
O6    Zn2   S    
