data_mof_unit_256.cif
_audit_creation_date              2012-12-11T15:52:19-0500
_audit_creation_method            fapswitch 2.2
_symmetry_space_group_name_H-M    P1
_symmetry_Int_Tables_number       1
_space_group_crystal_system       triclinic
_cell_length_a                    11.017459
_cell_length_b                    10.981278
_cell_length_c                    18.815052
_cell_angle_alpha                 89.577548
_cell_angle_beta                  90.354568
_cell_angle_gamma                 119.859179
_cell_volume                      1974.10963412

loop_
_atom_site_label
_atom_site_type_symbol
_atom_type_description
_atom_site_fract_x
_atom_site_fract_y
_atom_site_fract_z
_atom_type_partial_charge
C1    C     C_R   0.520129 0.459365 0.147828 0.583785
C2    C     C_3   0.075771 0.768435 0.450115 0.293413
C3    C     C_3   0.676473 0.942542 0.450767 0.309294
C4    C     C_3   0.249279 0.368378 0.448610 0.296051
C5    C     C_R   0.522684 0.454450 0.355437 0.530798
C6    C     C_R   0.580193 0.127783 0.360827 0.530463
C7    C     C_R   0.937983 0.480104 0.353845 0.543778
C8    C     C_R   0.458001 0.517306 0.647201 0.602120
C9    C     C_R   0.057643 0.541678 0.647276 0.569846
C10   C     C_R   0.483302 0.942321 0.647332 0.602573
C11   C     C_R   0.485288 0.954647 0.931571 -0.018448
C12   C     C_R   0.541206 0.061240 0.147728 0.576201
C13   C     C_R   0.038631 0.528185 0.930523 -0.025668
C14   C     C_R   0.474900 0.498204 0.927621 0.026519
C15   C     C_R   0.003746 0.499406 0.078548 -0.008446
C16   C     C_R   0.492743 0.992833 0.079328 -0.008117
C17   C     C_R   0.506117 0.498517 0.076089 0.026779
C18   C     C_R   0.410741 0.011778 0.962218 0.058955
C19   C     C_R   0.984350 0.396921 0.962248 0.067122
C20   C     C_R   0.604362 0.535728 0.957319 -0.086470
C21   C     C_R   0.965902 0.382475 0.034973 0.055565
C22   C     C_R   0.413665 0.030039 0.034821 0.051864
C23   C     C_R   0.937838 0.479846 0.147427 0.570754
C24   C     C_R   0.619252 0.537982 0.029807 -0.083924
C25   C     C_R   0.546437 0.912138 0.050691 0.372841
C26   C     C_R   0.079560 0.633590 0.048496 0.368965
C27   C     C_R   0.372657 0.445223 0.046562 0.387589
C28   C     C_R   0.092624 0.647897 0.974876 0.355207
C29   C     C_R   0.542128 0.892841 0.977236 0.360683
C30   C     C_R   0.356847 0.442628 0.973139 0.384116
C31   C     C_3   0.413453 0.145898 0.946192 -0.278603
C32   C     C_3   0.849782 0.266254 0.947334 -0.286271
C33   C     C_3   0.749854 0.652810 0.945619 -0.214806
C34   C     C_R   0.454796 0.519435 0.853551 0.565738
C35   C     C_3   0.828735 0.249935 0.027075 -0.248749
C36   C     C_3   0.416671 0.166574 0.025947 -0.244570
C37   C     C_3   0.763623 0.661679 0.026426 -0.166625
C38   C     C_R   0.520436 0.020214 0.580457 0.047860
C39   C     C_R   0.007462 0.514612 0.574508 0.023272
C40   C     C_R   0.492238 0.488917 0.577284 0.064365
C41   C     C_R   0.993204 0.494979 0.424903 -0.003003
C42   C     C_R   0.562307 0.100178 0.436809 -0.034436
C43   C     C_R   0.513552 0.481202 0.429500 -0.013600
C44   C     C_R   0.624611 0.015855 0.540420 -0.027557
C45   C     C_R   0.068913 0.546914 0.854908 0.559658
C46   C     C_R   0.059930 0.631886 0.529850 0.084363
C47   C     C_R   0.379636 0.394053 0.535498 -0.010208
C48   C     C_R   0.061637 0.625198 0.457948 -0.006169
C49   C     C_R   0.646968 0.057001 0.470873 -0.021622
C50   C     C_R   0.390669 0.389203 0.463471 0.001784
C51   C     C_R   0.469687 0.123659 0.478171 -0.149087
C52   C     C_R   0.948370 0.373352 0.467834 -0.129489
C53   C     C_R   0.633316 0.566534 0.470936 -0.124725
C54   C     C_R   0.955206 0.382951 0.542427 -0.141502
C55   C     C_R   0.451617 0.087370 0.550925 -0.105374
C56   C     C_R   0.476723 0.927945 0.855595 0.564314
C57   C     C_R   0.622856 0.570955 0.545081 -0.120576
C58   C     C_3   0.647692 0.894694 0.527058 0.281970
C59   C     C_3   0.061489 0.767909 0.530553 0.282370
C60   C     C_3   0.239412 0.382771 0.527473 0.293631
Cr1   Cr    Cr6+3 0.769160 0.541570 0.250690 1.133700
Cr2   Cr    Cr6+3 0.458430 0.227590 0.250690 1.123153
Cr3   Cr    Cr6+3 0.772410 0.230840 0.250690 1.127303
Cr4   Cr    Cr6+3 0.541570 0.769160 0.749310 1.069435
Cr5   Cr    Cr6+3 0.227590 0.458430 0.749310 1.083481
Cr6   Cr    Cr6+3 0.230840 0.772410 0.749310 1.115656
F1    F     F_    0.612894 0.862351 0.092629 -0.601699
F2    F     F_    0.966676 0.771864 0.415718 -0.606460
F3    F     F_    0.815586 0.995311 0.432951 -0.578287
F4    F     F_    0.158817 0.233575 0.425064 -0.582331
F5    F     F_    0.125070 0.750282 0.089038 -0.579099
F6    F     F_    0.257396 0.392519 0.088560 -0.584103
F7    F     F_    0.149489 0.778938 0.947104 -0.597090
F8    F     F_    0.596540 0.816620 0.950875 -0.635162
F9    F     F_    0.225565 0.387876 0.946924 -0.602003
F10   F     F_    0.524169 0.768164 0.533597 -0.605160
F11   F     F_    0.178822 0.871254 0.563471 -0.639151
F12   F     F_    0.249886 0.510200 0.543574 -0.606489
H1    H     H_    0.314719 0.128578 0.920874 0.200809
H2    H     H_    0.832471 0.157486 0.048798 0.214583
H3    H     H_    0.320014 0.161472 0.046663 0.217555
H4    H     H_    0.770221 0.758332 0.048543 0.248181
H5    H     H_    0.406029 0.161354 0.453460 0.178842
H6    H     H_    0.902258 0.270688 0.443987 0.215945
H7    H     H_    0.732925 0.631085 0.446074 0.226660
H8    H     H_    0.922623 0.289391 0.574409 0.119251
H9    H     H_    0.377697 0.102233 0.581974 0.180721
H10   H     H_    0.712428 0.644567 0.575974 0.108302
H11   H     H_    0.738238 0.900563 0.556494 0.146569
H12   H     H_    0.866113 0.183490 0.923142 0.193824
H13   H     H_    0.961927 0.758741 0.549428 0.121797
H14   H     H_    0.153600 0.289718 0.554612 0.150257
H15   H     H_    0.180466 0.848695 0.430098 0.179213
H16   H     H_    0.601124 0.865882 0.411912 0.175907
H17   H     H_    0.248918 0.452701 0.415639 0.154982
H18   H     H_    0.757671 0.747215 0.919657 0.237396
H19   H     H_    0.739459 0.261692 0.045232 0.094233
H20   H     H_    0.516572 0.255832 0.045086 0.096641
H21   H     H_    0.842184 0.636155 0.047117 0.158237
H22   H     H_    0.511185 0.223981 0.919053 0.099002
H23   H     H_    0.772463 0.286883 0.919457 0.097689
H24   H     H_    0.816081 0.614846 0.920747 0.125523
O1    O     O_R   0.911480 0.572650 0.170990 -0.463116
O2    O     O_R   0.528970 0.640340 0.824320 -0.481882
O3    O     O_R   0.111370 0.471030 0.824320 -0.470935
O4    O     O_R   0.359660 0.888630 0.824320 -0.477351
O5    O     O_R   0.909980 0.572450 0.331530 -0.433920
O6    O     O_R   0.427550 0.337530 0.331530 -0.476731
O7    O     O_R   0.662470 0.090020 0.331530 -0.468164
O8    O     O_R   0.572450 0.909980 0.668470 -0.521725
O9    O     O_R   0.337530 0.427550 0.668470 -0.519634
O10   O     O_R   0.090020 0.662470 0.668470 -0.485374
O11   O     O_R   0.638950 0.528780 0.324500 -0.484790
O12   O     O_R   0.427350 0.338830 0.170990 -0.464834
O13   O     O_R   0.471220 0.110170 0.324500 -0.482828
O14   O     O_R   0.889830 0.361050 0.324500 -0.508276
O15   O     O_R   0.528780 0.638950 0.675500 -0.474981
O16   O     O_R   0.110170 0.471220 0.675500 -0.474587
O17   O     O_R   0.361050 0.889830 0.675500 -0.440774
O18   O     O_3   0.666667 0.333333 0.250560 -0.340477
O19   O     O_3   0.333333 0.666667 0.749440 -0.264065
O20   O     O_R   0.661170 0.088520 0.170990 -0.460701
O21   O     O_R   0.572650 0.911480 0.829010 -0.484423
O22   O     O_R   0.338830 0.427350 0.829010 -0.474861
O23   O     O_R   0.088520 0.661170 0.829010 -0.474417
O24   O     O_R   0.640340 0.528970 0.175680 -0.498589
O25   O     O_R   0.471030 0.111370 0.175680 -0.492082
O26   O     O_R   0.888630 0.359660 0.175680 -0.494859

loop_
_geom_bond_atom_site_label_1
_geom_bond_atom_site_label_2
_ccdc_geom_bond_type
C44   C49   A    
C40   C47   A    
C11   C18   A    
C26   F5    S    
C46   C59   S    
Cr1   O1    S    
C25   F1    S    
C59   F11   S    
C4    F4    S    
C3    C49   S    
C58   F10   S    
C12   O25   A    
C60   F12   S    
C3    F3    S    
Cr6   O4    S    
Cr2   O12   S    
C2    F2    S    
Cr2   O25   S    
C39   C54   A    
Cr2   O6    S    
C19   C32   S    
Cr4   O19   S    
C35   H2    S    
C9    C39   S    
Cr5   O22   S    
C52   H6    S    
Cr5   O9    S    
C10   O17   A    
C47   C60   S    
C43   C53   A    
C23   O1    A    
C38   C55   A    
C20   C24   A    
C44   C58   S    
C32   H23   S    
C16   C22   A    
Cr5   O16   S    
C13   C28   A    
Cr1   O24   S    
Cr5   O19   S    
C41   C52   A    
Cr2   O18   S    
Cr3   O26   S    
C42   C51   A    
C52   C54   A    
C9    O10   A    
C15   C23   S    
C5    C43   S    
C27   C30   A    
C9    O16   A    
C14   C30   A    
C12   C16   S    
C28   F7    S    
Cr5   O3    S    
C45   O3    A    
C8    O15   A    
C47   C50   A    
C60   H14   S    
C25   C29   A    
C46   C48   A    
C17   C24   A    
C13   C19   A    
C33   H24   S    
C17   C27   A    
C56   O21   A    
C14   C20   A    
C1    O24   A    
C8    O9    A    
C45   O23   A    
C54   H8    S    
C53   C57   A    
C2    C59   S    
C15   C26   A    
C29   F8    S    
C2    C48   S    
C33   C37   S    
Cr4   O15   S    
C4    C50   S    
C7    O14   A    
Cr3   O7    S    
C32   C35   S    
C38   C44   A    
C4    H17   S    
Cr4   O8    S    
C36   H3    S    
C4    C60   S    
Cr1   O18   S    
C24   C37   S    
Cr6   O19   S    
C12   O20   A    
C59   H13   S    
C31   H22   S    
C56   O4    A    
C39   C46   A    
C20   C33   S    
C32   H12   S    
Cr6   O17   S    
Cr1   O11   S    
C6    O7    A    
C7    O5    A    
C37   H4    S    
C1    O12   A    
Cr3   O14   S    
C33   H18   S    
C51   H5    S    
C37   H21   S    
Cr3   O20   S    
C16   C25   A    
Cr4   O2    S    
C34   O22   A    
C40   C57   A    
C5    O11   A    
C18   C22   A    
C1    C17   S    
C2    H15   S    
C14   C34   S    
C36   H20   S    
C57   H10   S    
C43   C50   A    
C31   H1    S    
C21   C35   S    
Cr4   O21   S    
C22   C36   S    
C26   C28   A    
Cr6   O23   S    
C10   C38   S    
Cr2   O13   S    
C13   C45   S    
Cr3   O18   S    
C41   C48   A    
C10   O8    A    
C3    H16   S    
C51   C55   A    
C7    C41   S    
C55   H9    S    
Cr1   O5    S    
C58   H11   S    
C34   O2    A    
C6    O13   A    
C27   F6    S    
C42   C49   A    
C3    C58   S    
C15   C21   A    
C30   F9    S    
C11   C29   A    
C6    C42   S    
C31   C36   S    
C53   H7    S    
C18   C31   S    
C8    C40   S    
Cr6   O10   S    
C35   H19   S    
C11   C56   S    
C23   O26   A    
C19   C21   A    
C5    O6    A    
