data_mof_unit_2610.cif
_audit_creation_date              2012-12-10T19:47:57-0500
_audit_creation_method            fapswitch 2.2
_symmetry_space_group_name_H-M    P1
_symmetry_Int_Tables_number       1
_space_group_crystal_system       triclinic
_cell_length_a                    14.97805
_cell_length_b                    14.14274
_cell_length_c                    10.802546
_cell_angle_alpha                 89.617101
_cell_angle_beta                  90.107454
_cell_angle_gamma                 89.852495
_cell_volume                      2288.24774306

loop_
_atom_site_label
_atom_site_type_symbol
_atom_type_description
_atom_site_fract_x
_atom_site_fract_y
_atom_site_fract_z
_atom_type_partial_charge
C1    C     C_R   0.327824 0.500157 0.501296 0.920196
C2    C     C_R   0.672180 0.499851 0.501348 0.921015
C3    C     C_R   0.048256 0.501892 0.520964 -0.199968
C4    C     C_R   0.951816 0.498649 0.520841 -0.198913
C5    C     C_R   0.446103 0.106088 0.416433 -0.264528
C6    C     C_R   0.577574 0.894317 0.530779 -0.245485
C7    C     C_R   0.556475 0.104687 0.578873 -0.241049
C8    C     C_R   0.423633 0.895422 0.466181 -0.258284
C9    C     C_R   0.446536 0.205384 0.419207 0.046164
C10   C     C_R   0.575588 0.795062 0.531713 0.096704
C11   C     C_R   0.554769 0.203964 0.578656 0.104954
C12   C     C_R   0.424819 0.796087 0.467100 0.041416
C13   C     C_R   0.501163 0.053511 0.497682 0.134201
C14   C     C_R   0.500827 0.946750 0.498015 0.131609
C15   C     C_R   0.500034 0.500306 0.260581 0.892858
C16   C     C_R   0.499498 0.499844 0.740986 0.862422
C17   C     C_R   0.395474 0.641295 0.114598 0.436071
C18   C     C_R   0.505755 0.319654 0.900416 0.428908
C19   C     C_R   0.485467 0.680056 0.893541 0.452842
C20   C     C_R   0.601043 0.358451 0.117487 0.441524
C21   C     C_R   0.381624 0.728193 0.053810 -0.134407
C22   C     C_R   0.555004 0.247499 0.959773 -0.149707
C23   C     C_R   0.429949 0.749191 0.945679 -0.147112
C24   C     C_R   0.607405 0.268690 0.064019 -0.139041
C25   C     C_R   0.482555 0.585800 0.941205 -0.100390
C26   C     C_R   0.541329 0.426132 0.064729 -0.098590
C27   C     C_R   0.457085 0.575068 0.063671 -0.091689
C28   C     C_R   0.514055 0.414543 0.943289 -0.095808
C29   C     C_R   0.498609 0.499978 0.875006 -0.168522
C30   C     C_R   0.499895 0.500891 0.129088 -0.155132
C31   C     C_R   0.092456 0.572238 0.449929 0.464592
C32   C     C_R   0.907554 0.428833 0.449974 0.462705
C33   C     C_R   0.902988 0.567547 0.587405 0.457661
C34   C     C_R   0.097136 0.432279 0.587654 0.455622
C35   C     C_R   0.184614 0.572040 0.447409 -0.181749
C36   C     C_R   0.815388 0.428762 0.447592 -0.177666
C37   C     C_R   0.811006 0.568337 0.577265 -0.197336
C38   C     C_R   0.189081 0.431291 0.577382 -0.189088
C39   C     C_R   0.232291 0.500760 0.507957 -0.234074
C40   C     C_R   0.767733 0.499329 0.508084 -0.233136
H1    H     H_    0.218964 0.626163 0.394550 0.219669
H2    H     H_    0.781000 0.375045 0.394843 0.227538
H3    H     H_    0.773037 0.621672 0.626198 0.179837
H4    H     H_    0.227082 0.377437 0.626429 0.192509
H5    H     H_    0.403813 0.071190 0.349633 0.148458
H6    H     H_    0.639486 0.929262 0.553908 0.146652
H7    H     H_    0.600108 0.068661 0.643628 0.152054
H8    H     H_    0.362071 0.931333 0.442222 0.156687
H9    H     H_    0.404260 0.244993 0.356139 0.131872
H10   H     H_    0.635022 0.756119 0.557565 0.138878
H11   H     H_    0.597268 0.242401 0.641761 0.127062
H12   H     H_    0.365187 0.757924 0.441563 0.161443
N1    N     N_R   0.500000 0.252470 0.500000 -0.090908
N2    N     N_R   0.500000 0.747530 0.500000 -0.096414
O1    O     O_R   0.369060 0.579480 0.500010 -0.612167
O2    O     O_R   0.630940 0.420520 0.499990 -0.602965
O3    O     O_R   0.630940 0.579480 0.499990 -0.641307
O4    O     O_R   0.369060 0.420520 0.500010 -0.626105
O5    O     O_R   0.499990 0.579480 0.316780 -0.590494
O6    O     O_R   0.500010 0.420520 0.683220 -0.597922
O7    O     O_R   0.500010 0.579480 0.683220 -0.588551
O8    O     O_R   0.499990 0.420520 0.316780 -0.603183
Zn1   Zn    Zn3+2 0.500000 0.606140 0.500000 0.988088
Zn2   Zn    Zn3+2 0.500000 0.393860 0.500000 0.991745
C41   C     C_1   0.663833 0.197516 0.121253 0.295252
N3    N     N_1   0.708882 0.140625 0.167168 -0.169166
C42   C     C_1   0.422622 0.840848 0.886299 0.293196
N4    N     N_1   0.416249 0.913845 0.838071 -0.164238
C43   C     C_1   0.549054 0.151361 0.916118 0.263848
N5    N     N_1   0.544558 0.074139 0.882200 -0.187532
C44   C     C_1   0.320696 0.796587 0.106277 0.281806
N6    N     N_1   0.272053 0.851266 0.148438 -0.180200
O9    O     O_3   0.343079 0.620480 0.216142 -0.767175
H13   H     H_    0.336530 0.550872 0.221803 0.316178
O10   O     O_3   0.439841 0.292743 0.818346 -0.732895
H14   H     H_    0.392772 0.342266 0.817904 0.340078
O11   O     O_3   0.551685 0.710517 0.813956 -0.744034
H15   H     H_    0.601553 0.664215 0.817843 0.334590
O12   O     O_3   0.656525 0.379256 0.215801 -0.753182
H16   H     H_    0.664099 0.448802 0.219141 0.316527
O13   O     O_3   0.049276 0.641397 0.381036 -0.724965
H17   H     H_    0.984504 0.628778 0.377329 0.351708
O14   O     O_3   0.950689 0.360429 0.381168 -0.723310
H18   H     H_    0.015372 0.373462 0.377028 0.351605
O15   O     O_3   0.941794 0.635770 0.661018 -0.732080
H19   H     H_    0.005812 0.621492 0.673744 0.350357
O16   O     O_3   0.058393 0.363524 0.661476 -0.728402
H20   H     H_    0.994503 0.378007 0.674456 0.349765

loop_
_geom_bond_atom_site_label_1
_geom_bond_atom_site_label_2
_ccdc_geom_bond_type
O16   H20   S    
C18   O10   S    
O9    H13   S    
C36   H2    S    
O13   H17   S    
C2    O3    A    
O11   H15   S    
C38   H4    S    
C21   C44   S    
C32   C36   A    
C28   C29   A    
C37   C40   A    
C38   C39   A    
N1    Zn2   S    
N2    Zn1   S    
C25   C29   A    
C19   O11   S    
C16   O6    A    
C23   C42   S    
O7    Zn1   S    
C33   O15   S    
O8    Zn2   S    
C20   C24   A    
O1    Zn1   S    
O2    Zn2   S    
C22   C43   S    
C5    C13   A    
C11   N1    A    
C34   C38   A    
C13   C14   S    
C27   C30   A    
C17   O9    S    
C15   O5    A    
C10   N2    A    
C12   H12   S    
O3    Zn1   S    
O4    Zn2   S    
C42   N4    T    
C17   C27   A    
C36   C40   A    
C9    H9    S    
C3    C34   A    
C16   C29   S    
O15   H19   S    
C5    H5    S    
C17   C21   A    
C7    H7    S    
C37   H3    S    
C19   C23   A    
O10   H14   S    
C8    H8    S    
C5    C9    A    
C6    C14   A    
C7    C11   A    
O14   H18   S    
C8    C12   A    
C18   C28   A    
C3    C31   A    
C4    C32   A    
C24   C41   S    
C26   C30   A    
C21   C23   A    
C22   C24   A    
C9    N1    A    
C16   O7    A    
C3    C4    S    
C10   H10   S    
C15   C30   S    
C32   O14   S    
C4    C33   A    
C8    C14   A    
C6    H6    S    
C20   O12   S    
C18   C22   A    
O5    Zn1   S    
C6    C10   A    
C25   C27   A    
C26   C28   A    
C31   O13   S    
O6    Zn2   S    
C1    O1    A    
C44   N6    T    
C2    O2    A    
C1    O4    A    
C20   C26   A    
C35   C39   A    
C15   O8    A    
C31   C35   A    
C34   O16   S    
C43   N5    T    
C35   H1    S    
C33   C37   A    
C11   H11   S    
C1    C39   S    
C19   C25   A    
O12   H16   S    
C2    C40   S    
C7    C13   A    
C41   N3    T    
C12   N2    A    
