data_mof_unit_4581.cif
_audit_creation_date              2013-03-05T16:48:19-0500
_audit_creation_method            fapswitch 2.2
_symmetry_space_group_name_H-M    P1
_symmetry_Int_Tables_number       1
_space_group_crystal_system       triclinic
_cell_length_a                    15.094054
_cell_length_b                    10.813385
_cell_length_c                    13.677979
_cell_angle_alpha                 89.846425
_cell_angle_beta                  89.420989
_cell_angle_gamma                 89.483547
_cell_volume                      2232.27770761

loop_
_atom_site_label
_atom_site_type_symbol
_atom_site_description
_atom_site_fract_x
_atom_site_fract_y
_atom_site_fract_z
_atom_type_partial_charge
O1    O     O_R   0.500000 0.319630 0.582270 -0.570398
O2    O     O_R   0.500000 0.680370 0.417730 -0.570403
O3    O     O_R   0.499990 0.319660 0.417730 -0.591614
O4    O     O_R   0.500010 0.680340 0.582270 -0.591612
C1    C     C_R   0.497777 0.262174 0.500018 0.806422
C2    C     C_R   0.502223 0.737826 0.499982 0.806416
O5    O     O_R   0.370260 0.499960 0.582280 -0.533396
O6    O     O_R   0.629740 0.500040 0.417720 -0.533401
O7    O     O_R   0.370250 0.499990 0.417740 -0.604360
O8    O     O_R   0.629750 0.500010 0.582260 -0.604359
C3    C     C_R   0.328674 0.496723 0.500524 0.842239
C4    C     C_R   0.671326 0.503275 0.499476 0.842229
Cu1   Cu    Cu3+1 0.500010 0.499980 0.597420 0.994776
Cu2   Cu    Cu3+1 0.499990 0.500020 0.402580 0.994773
C5    C     C_R   0.815275 0.561670 0.420512 0.318342
C6    C     C_R   0.184725 0.438320 0.579487 0.318337
C7    C     C_R   0.767973 0.507772 0.498764 -0.203466
C8    C     C_R   0.232027 0.492222 0.501235 -0.203463
C9    C     C_R   0.812789 0.454686 0.577388 -0.258452
C10   C     C_R   0.187211 0.545306 0.422611 -0.258456
C11   C     C_R   0.905133 0.453430 0.580450 0.008239
C12   C     C_R   0.094867 0.546560 0.419548 0.008238
C13   C     C_R   0.953374 0.502653 0.500211 0.002781
C14   C     C_R   0.046626 0.497336 0.499787 0.002783
C15   C     C_R   0.908437 0.557569 0.420469 -0.048694
C16   C     C_R   0.091563 0.442419 0.579529 -0.048696
C17   C     C_R   0.950311 0.400067 0.660295 0.324224
C18   C     C_R   0.049689 0.599920 0.339702 0.324221
C19   C     C_R   0.042572 0.392635 0.657792 -0.193155
C20   C     C_R   0.957428 0.607351 0.342205 -0.193152
H1    H     H_    0.774549 0.410716 0.634827 0.207865
H2    H     H_    0.225450 0.589279 0.365173 0.207865
H3    H     H_    0.075593 0.350040 0.719290 0.230720
H4    H     H_    0.924406 0.649943 0.280706 0.230720
H5    H     H_    0.296594 0.303752 0.128960 0.165572
H6    H     H_    0.703407 0.696248 0.871039 0.165570
C21   C     C_R   0.293327 0.260065 0.282656 -0.087648
C22   C     C_R   0.706673 0.739934 0.717343 -0.087648
H7    H     H_    0.235069 0.316311 0.297445 0.163711
H8    H     H_    0.764931 0.683688 0.702554 0.163709
C23   C     C_R   0.334379 0.195599 0.358797 -0.110964
C24   C     C_R   0.665621 0.804401 0.641202 -0.110961
H9    H     H_    0.307601 0.203142 0.432328 0.142849
H10   H     H_    0.692399 0.796857 0.567671 0.142848
C25   C     C_R   0.410887 0.123944 0.340296 0.116880
C26   C     C_R   0.589114 0.876056 0.659704 0.116880
C27   C     C_R   0.444442 0.115584 0.244348 -0.149974
C28   C     C_R   0.555558 0.884416 0.755652 -0.149974
H11   H     H_    0.503578 0.061345 0.228841 0.141306
H12   H     H_    0.496423 0.938655 0.771159 0.141306
C29   C     C_R   0.403167 0.180252 0.168435 -0.148437
C30   C     C_R   0.596834 0.819748 0.831565 -0.148435
H13   H     H_    0.430032 0.175078 0.094867 0.147021
H14   H     H_    0.569969 0.824922 0.905133 0.147021
C31   C     C_R   0.327954 0.252899 0.187654 -0.075826
C32   C     C_R   0.672046 0.747100 0.812346 -0.075828
C33   C     C_R   0.463930 0.934172 0.422366 -0.207950
C34   C     C_R   0.536070 0.065828 0.577634 -0.207949
H15   H     H_    0.433963 0.882885 0.363385 0.154049
H16   H     H_    0.566037 0.117115 0.636615 0.154049
C35   C     C_R   0.504304 0.871685 0.500051 -0.061541
C36   C     C_R   0.495696 0.128315 0.499948 -0.061539
C37   C     C_R   0.541809 0.937736 0.578197 0.002591
C38   C     C_R   0.458191 0.062264 0.421803 0.002591
C39   C     C_R   0.558709 0.426041 0.792758 0.040455
C40   C     C_R   0.441291 0.573958 0.207241 0.040454
N1    N     N_R   0.499960 0.499900 0.743810 -0.187179
N2    N     N_R   0.500040 0.500100 0.256190 -0.187181
C41   C     C_R   0.441448 0.574121 0.793726 0.096657
C42   C     C_R   0.558552 0.425879 0.206274 0.096661
C43   C     C_R   0.440058 0.575942 0.896840 -0.017136
C44   C     C_R   0.559942 0.424058 0.103160 -0.017136
C45   C     C_R   0.500049 0.500066 0.948157 0.078665
C46   C     C_R   0.499951 0.499934 0.051843 0.078664
C47   C     C_R   0.560123 0.424295 0.895845 -0.019552
C48   C     C_R   0.439877 0.575704 0.104155 -0.019551
C49   C     C_R   0.380383 0.651464 0.949615 -0.170479
C50   C     C_R   0.619617 0.348535 0.050384 -0.170478
C51   C     C_R   0.380230 0.651260 0.052371 -0.160167
C52   C     C_R   0.619770 0.348740 0.947628 -0.160168
H17   H     H_    0.604366 0.368245 0.751375 0.131397
H18   H     H_    0.395634 0.631754 0.248625 0.131397
H19   H     H_    0.395961 0.632112 0.753074 0.135993
H20   H     H_    0.604039 0.367888 0.246926 0.135995
H21   H     H_    0.333798 0.710606 0.911446 0.162234
H22   H     H_    0.666202 0.289394 0.088554 0.162235
H23   H     H_    0.333505 0.710221 0.091315 0.174897
H24   H     H_    0.666495 0.289779 0.908685 0.174898
N3    N     N_R   0.768865 0.622157 0.342453 0.118503
O9    O     O_R   0.767066 0.572063 0.256118 -0.351816
O10   O     O_R   0.722359 0.721743 0.359766 -0.369849
N4    N     N_R   0.231136 0.377833 0.657545 0.118502
O11   O     O_R   0.232925 0.427920 0.743884 -0.351813
O12   O     O_R   0.277662 0.278267 0.640227 -0.369852
N5    N     N_R   0.904065 0.355328 0.745532 0.116965
O13   O     O_R   0.848383 0.427306 0.791878 -0.375996
O14   O     O_R   0.929393 0.252637 0.786936 -0.327291
N6    N     N_R   0.095935 0.644658 0.254465 0.116966
O15   O     O_R   0.151618 0.572679 0.208121 -0.375999
O16   O     O_R   0.070606 0.747346 0.213057 -0.327289

loop_
_geom_bond_atom_site_label_1
_geom_bond_atom_site_label_2
_geom_bond_distance
_ccdc_geom_bond_type
C34   C36   1.399586 A    
C40   N2    1.367050 A    
C3    C8    1.459974 S    
C17   C19   1.394275 A    
C45   C47   1.407887 A    
C45   C46   1.418191 A    
C17   N5    1.437761 S    
N5    O13   1.301586 A    
C48   C51   1.405800 A    
C9    H1    1.081779 S    
C51   H23   1.083408 S    
C27   H11   1.083110 S    
O5    C3    1.288614 A    
C46   C48   1.407887 A    
O1    C1    1.287533 A    
C2    C35   1.448090 S    
C9    C11   1.394840 A    
C14   C16   1.416534 A    
C22   C24   1.398532 A    
C10   H2    1.081778 S    
C50   C52   1.405469 A    
C5    C15   1.406477 A    
C40   H18   1.082664 S    
C34   H16   1.085038 S    
C19   H3    1.081849 S    
C34   C37   1.387034 A    
C41   C43   1.410523 A    
C24   C26   1.406060 A    
C25   C27   1.404785 A    
O4    Cu1   1.960729 S    
C35   C37   1.413043 A    
N4    O11   1.301156 A    
C44   C50   1.405736 A    
C39   N1    1.367051 A    
C4    C7    1.459975 S    
C36   C38   1.413044 A    
C13   C14   1.408171 A    
N3    O10   1.301097 A    
C42   H20   1.082539 S    
C47   C52   1.405800 A    
C8    C10   1.395717 A    
C50   H22   1.083283 S    
C28   H12   1.083109 S    
C11   C17   1.412545 A    
C49   H21   1.083285 S    
C12   C18   1.412545 A    
Cu1   Cu2   2.665021 S    
C52   H24   1.083408 S    
C23   H9    1.083133 S    
O2    C2    1.287531 A    
C24   H10   1.083134 S    
C30   H14   1.082483 S    
C49   C51   1.405469 A    
C6    C16   1.406482 A    
C26   C28   1.404785 A    
C20   H4    1.081850 S    
H5    C31   1.082393 S    
C44   C46   1.407901 A    
C43   C45   1.407901 A    
C27   C29   1.398785 A    
N1    C41   1.366840 A    
O7    Cu2   1.967167 S    
C41   H19   1.082539 S    
C5    N3    1.435828 S    
C39   H17   1.082664 S    
C28   C30   1.398785 A    
O6    C4    1.288612 A    
C40   C48   1.410463 A    
N4    O12   1.301086 A    
O7    C3    1.289591 A    
O3    Cu2   1.960729 S    
O8    C4    1.289589 A    
O4    C2    1.284609 A    
C10   C12   1.394839 A    
C6    N4    1.435830 S    
N6    O16   1.301264 A    
C11   C13   1.416237 A    
C12   C14   1.416237 A    
O1    Cu1   1.961725 S    
C43   C49   1.405736 A    
C33   C38   1.387034 A    
Cu1   N1    2.002308 S    
C18   N6    1.437762 S    
C15   C20   1.403793 A    
C5    C7    1.408466 A    
O6    Cu2   1.971454 S    
O3    C1    1.284608 A    
O8    Cu1   1.967167 S    
N5    O14   1.301264 A    
C33   C35   1.399586 A    
C25   C38   1.483609 S    
C39   C47   1.410463 A    
C26   C37   1.483609 S    
C18   C20   1.394275 A    
C21   H7    1.082373 S    
C23   C25   1.406060 A    
C22   H8    1.082372 S    
H6    C32   1.082393 S    
C7    C9    1.395718 A    
C1    C36   1.448089 S    
C29   C31   1.397870 A    
C13   C15   1.416535 A    
C21   C23   1.398533 A    
O2    Cu2   1.961725 S    
C33   H15   1.085038 S    
C21   C31   1.397784 A    
O5    Cu1   1.971454 S    
C22   C32   1.397785 A    
C16   C19   1.403794 A    
C6    C8    1.408470 A    
N6    O15   1.301586 A    
N2    C42   1.366839 A    
Cu2   N2    2.002310 S    
C42   C44   1.410523 A    
C29   H13   1.082483 S    
N3    O9    1.301156 A    
C30   C32   1.397869 A    
