data_mof_unit_2847.cif
_audit_creation_date              2013-03-05T16:48:42-0500
_audit_creation_method            fapswitch 2.2
_symmetry_space_group_name_H-M    P1
_symmetry_Int_Tables_number       1
_space_group_crystal_system       triclinic
_cell_length_a                    27.742899
_cell_length_b                    8.944932
_cell_length_c                    8.088496
_cell_angle_alpha                 90.001298
_cell_angle_beta                  90.008952
_cell_angle_gamma                 89.97978
_cell_volume                      2007.2276312

loop_
_atom_site_label
_atom_site_type_symbol
_atom_site_description
_atom_site_fract_x
_atom_site_fract_y
_atom_site_fract_z
_atom_type_partial_charge
O1    O     O_R   0.500000 0.285350 0.636850 -0.616479
O2    O     O_R   0.500000 0.714650 0.363150 -0.616491
O3    O     O_R   0.500000 0.714650 0.636850 -0.616490
O4    O     O_R   0.500000 0.285350 0.363150 -0.616480
C1    C     C_R   0.500001 0.217904 0.499999 0.940995
C2    C     C_R   0.499999 0.782096 0.500001 0.940973
O5    O     O_R   0.428760 0.500000 0.636860 -0.626449
O6    O     O_R   0.571240 0.500000 0.363140 -0.626475
O7    O     O_R   0.571240 0.500000 0.636860 -0.626460
O8    O     O_R   0.428760 0.500000 0.363140 -0.626484
C3    C     C_R   0.405710 0.500060 0.499983 0.928388
C4    C     C_R   0.594290 0.499960 0.500014 0.928373
Zn1   Zn    Zn3+2 0.500000 0.500000 0.682780 0.983523
Zn2   Zn    Zn3+2 0.500000 0.500000 0.317220 0.983508
C5    C     C_R   0.177265 0.369365 0.524986 0.608734
C6    C     C_R   0.822702 0.631617 0.525525 0.610748
C7    C     C_R   0.177220 0.632414 0.473643 0.608693
C8    C     C_R   0.822819 0.368595 0.473997 0.607838
O9    O     O_2   0.202713 0.241757 0.542545 -0.497034
O10   O     O_2   0.797201 0.759065 0.543545 -0.495994
O11   O     O_2   0.202616 0.760093 0.456362 -0.496868
O12   O     O_2   0.797467 0.240811 0.456849 -0.496968
N1    N     N_R   0.201049 0.500929 0.499498 -0.328337
N2    N     N_R   0.798955 0.499986 0.499974 -0.328623
C9    C     C_R   0.277402 0.525096 0.350911 0.499006
C10   C     C_R   0.722624 0.475503 0.351221 0.498958
C11   C     C_R   0.277339 0.476560 0.648609 0.499189
C12   C     C_R   0.722635 0.524026 0.648926 0.499057
C13   C     C_R   0.327836 0.519641 0.351295 -0.346956
C14   C     C_R   0.672187 0.480695 0.351487 -0.346883
C15   C     C_R   0.327782 0.481417 0.648436 -0.347134
C16   C     C_R   0.672194 0.518894 0.648631 -0.347388
C17   C     C_R   0.252537 0.500948 0.499698 0.125930
C18   C     C_R   0.747465 0.499785 0.500068 0.125800
C19   C     C_R   0.101383 0.500782 0.498856 -0.201182
C20   C     C_R   0.898621 0.500468 0.499002 -0.201692
C21   C     C_R   0.126743 0.366760 0.530073 -0.146992
C22   C     C_R   0.873239 0.634439 0.530255 -0.145566
C23   C     C_R   0.126701 0.634856 0.467876 -0.147084
C24   C     C_R   0.873330 0.366335 0.468021 -0.147539
C25   C     C_R   0.100884 0.235099 0.566707 0.596507
C26   C     C_R   0.899070 0.766217 0.566646 0.596676
C27   C     C_R   0.100800 0.766393 0.430757 0.596058
C28   C     C_R   0.899253 0.234895 0.430688 0.595913
C29   C     C_R   0.353039 0.500347 0.499911 -0.146641
C30   C     C_R   0.646961 0.499850 0.500045 -0.146518
C31   C     C_R   0.974828 0.363955 0.487401 0.016027
C32   C     C_R   0.025180 0.637393 0.487275 0.016149
C33   C     C_R   0.974748 0.637353 0.509611 0.016974
C34   C     C_R   0.025247 0.364008 0.509718 0.016092
C35   C     C_R   0.949462 0.500602 0.498702 0.074791
C36   C     C_R   0.050542 0.500729 0.498621 0.074669
C37   C     C_R   0.949217 0.232678 0.449509 -0.335922
C38   C     C_R   0.050823 0.768655 0.449517 -0.334833
C39   C     C_R   0.949050 0.768640 0.547032 -0.335847
C40   C     C_R   0.050922 0.232742 0.547423 -0.334897
H1    H     H_    0.967599 0.128572 0.424374 0.155641
H2    H     H_    0.032471 0.872844 0.424596 0.155353
H3    H     H_    0.967374 0.873056 0.570710 0.154107
H4    H     H_    0.032586 0.128476 0.571901 0.154906
C41   C     C_1   0.500000 0.065150 0.499998 -0.191707
C42   C     C_1   0.499999 0.934850 0.500002 -0.191706
N3    N     N_1   0.500000 0.500000 0.073640 -0.040075
N4    N     N_1   0.500000 0.500000 0.926360 -0.040072
H5    H     H_    0.347216 0.470052 0.763772 0.177183
H6    H     H_    0.652743 0.530152 0.763923 0.177172
H7    H     H_    0.347305 0.530787 0.236028 0.177252
H8    H     H_    0.652735 0.469463 0.236176 0.177199
O13   O     O_3   0.251026 0.460175 0.793451 -0.612250
C43   C     C_3   0.265588 0.330447 0.879637 -0.194675
H9    H     H_    0.298386 0.352975 0.954305 0.157309
H10   H     H_    0.271547 0.233234 0.795893 0.173269
H11   H     H_    0.236462 0.298789 0.966825 0.208122
O14   O     O_3   0.748926 0.540553 0.793828 -0.612048
C44   C     C_3   0.734236 0.670079 0.880125 -0.191736
H12   H     H_    0.701476 0.647165 0.954801 0.156417
H13   H     H_    0.728158 0.767282 0.796464 0.172857
H14   H     H_    0.763342 0.701989 0.967315 0.209111
O15   O     O_3   0.251150 0.541702 0.205938 -0.612271
C45   C     C_3   0.265818 0.671336 0.119872 -0.195187
H15   H     H_    0.298633 0.648579 0.045394 0.157156
H16   H     H_    0.271792 0.768488 0.203677 0.173241
H17   H     H_    0.236745 0.703227 0.032521 0.208108
O16   O     O_3   0.748898 0.459019 0.206305 -0.612434
C46   C     C_3   0.734318 0.329274 0.120246 -0.195810
H18   H     H_    0.701484 0.351796 0.045741 0.157313
H19   H     H_    0.728414 0.232096 0.204061 0.173515
H20   H     H_    0.763410 0.297564 0.032918 0.207811
O17   O     O_3   0.124271 0.106177 0.615897 -0.501239
C47   C     C_3   0.120899 0.093930 0.789272 -0.256756
H21   H     H_    0.082866 0.078835 0.829652 0.124278
H22   H     H_    0.137276 0.192474 0.851993 0.153447
H23   H     H_    0.141306 0.993448 0.828883 0.191949
O18   O     O_3   0.875504 0.895160 0.614963 -0.499823
C48   C     C_3   0.881195 0.913450 0.787038 -0.257522
H24   H     H_    0.919434 0.936538 0.819883 0.126226
H25   H     H_    0.867615 0.814296 0.856377 0.149022
H26   H     H_    0.859571 0.011483 0.826561 0.192736
O19   O     O_3   0.124139 0.895296 0.381455 -0.501726
C49   C     C_3   0.121234 0.906434 0.207885 -0.256714
H27   H     H_    0.083277 0.920312 0.166050 0.124271
H28   H     H_    0.138071 0.807929 0.146484 0.154258
H29   H     H_    0.141470 0.007188 0.168252 0.191768
O20   O     O_3   0.875985 0.106077 0.380734 -0.502298
C50   C     C_3   0.878273 0.096929 0.206907 -0.256640
H30   H     H_    0.916129 0.085346 0.163164 0.123599
H31   H     H_    0.860710 0.195297 0.147617 0.155435
H32   H     H_    0.858376 0.995655 0.166821 0.191793

loop_
_geom_bond_atom_site_label_1
_geom_bond_atom_site_label_2
_geom_bond_distance
_ccdc_geom_bond_type
C25   O17   1.381511 S    
C39   H3    1.080621 S    
C19   C23   1.412464 A    
C48   H24   1.112991 S    
O3    C2    1.260649 A    
C12   O14   1.388286 S    
C28   O20   1.381338 S    
C48   H26   1.109374 S    
O2    C2    1.260639 A    
C46   H18   1.110507 S    
C11   C17   1.404087 A    
C32   C38   1.406627 A    
C50   H31   1.114124 S    
C7    N1    1.365083 A    
C8    N2    1.365010 A    
C19   C21   1.412533 A    
C27   O19   1.381442 S    
C5    O9    1.349422 S    
C32   C36   1.413234 A    
O13   C43   1.412566 S    
C7    C23   1.402489 A    
O7    Zn1   2.011056 S    
C5    C21   1.402442 A    
C20   C24   1.412506 A    
C8    C24   1.402287 A    
C13   H7    1.082186 S    
C28   C37   1.394600 A    
C10   C18   1.404078 A    
N1    C17   1.428424 S    
C34   C36   1.413066 A    
C43   H9    1.110507 S    
O3    Zn1   1.955648 S    
C6    O10   1.349393 S    
C31   C37   1.406488 A    
C5    N1    1.365069 A    
C12   C18   1.404065 A    
C6    N2    1.365133 A    
C26   O18   1.382031 S    
C21   C25   1.410722 A    
C41   C42   1.165523 T    
C45   H17   1.109423 S    
O20   C50   1.409813 S    
C44   H14   1.109410 S    
C31   C34   1.410344 A    
C46   H19   1.114535 S    
C9    C13   1.400025 A    
C50   H32   1.109394 S    
O14   C44   1.412575 S    
C11   C15   1.400128 A    
C12   C16   1.400139 A    
O16   C46   1.412532 S    
C4    C30   1.461252 S    
O8    Zn2   2.011059 S    
C37   H1    1.080863 S    
C45   H15   1.110482 S    
C31   C35   1.413159 A    
C33   C35   1.413078 A    
C33   C39   1.406576 A    
C49   H29   1.109342 S    
C34   C40   1.406544 A    
C40   H4    1.080838 S    
C13   C29   1.401179 A    
O5    C3    1.278456 A    
C44   H12   1.110501 S    
C25   C40   1.394971 A    
C26   C39   1.395849 A    
C27   C38   1.394954 A    
C47   H22   1.113992 S    
O19   C49   1.409746 S    
O5    Zn1   2.010945 S    
O6    C4    1.278434 A    
C43   H11   1.109407 S    
C49   H28   1.113994 S    
C1    C41   1.366374 S    
C44   H13   1.114551 S    
C20   C35   1.410483 A    
C45   H16   1.114535 S    
C32   C33   1.410774 A    
C10   C14   1.400028 A    
O1    C1    1.260639 A    
O15   C45   1.412543 S    
C3    C29   1.461250 S    
O1    Zn1   1.955632 S    
C47   H23   1.109338 S    
C16   H6    1.082170 S    
C38   H2    1.080769 S    
C46   H20   1.109407 S    
C15   H5    1.082177 S    
O6    Zn2   2.010942 S    
C8    O12   1.349425 S    
C16   C30   1.401173 A    
C14   C30   1.401125 A    
O4    C1    1.260649 A    
C11   O13   1.388261 S    
C23   C27   1.410737 A    
C48   H25   1.115096 S    
C22   C26   1.410729 A    
C50   H30   1.113076 S    
C2    C42   1.366373 S    
C20   C22   1.412533 A    
C10   O16   1.388228 S    
C47   H21   1.112844 S    
Zn1   N4    1.970196 S    
Zn2   N3    1.970196 S    
C49   H27   1.112914 S    
O4    Zn2   1.955649 S    
O18   C48   1.410247 S    
O2    Zn2   1.955631 S    
O7    C4    1.278416 A    
N2    C18   1.428473 S    
C9    O15   1.388233 S    
O8    C3    1.278391 A    
N3    N4    1.191273 T    
C24   C28   1.410732 A    
C15   C29   1.401148 A    
C9    C17   1.404003 A    
C19   C36   1.410500 A    
C43   H10   1.114538 S    
O17   C47   1.409745 S    
C14   H8    1.082194 S    
C6    C22   1.402797 A    
C7    O11   1.349411 S    
