data_mof_unit_2400.cif
_audit_creation_date              2012-12-10T19:16:14-0500
_audit_creation_method            fapswitch 2.2
_symmetry_space_group_name_H-M    P1
_symmetry_Int_Tables_number       1
_space_group_crystal_system       triclinic
_cell_length_a                    10.634482
_cell_length_b                    9.676159
_cell_length_c                    27.63344
_cell_angle_alpha                 89.992955
_cell_angle_beta                  89.289001
_cell_angle_gamma                 89.460726
_cell_volume                      2843.16204344

loop_
_atom_site_label
_atom_site_type_symbol
_atom_type_description
_atom_site_fract_x
_atom_site_fract_y
_atom_site_fract_z
_atom_type_partial_charge
C1    C     C_R   0.257520 0.500467 0.498568 0.827905
C2    C     C_R   0.484030 0.629768 0.278271 -0.107120
C3    C     C_R   0.498770 0.506614 0.252283 0.322870
C4    C     C_R   0.524038 0.533925 0.100850 -0.053089
C5    C     C_R   0.410462 0.567072 0.125114 -0.017141
C6    C     C_R   0.306851 0.612338 0.098787 -0.141688
C7    C     C_R   0.628302 0.488725 0.127682 -0.020156
C8    C     C_R   0.496549 0.501329 0.353099 -0.038189
C9    C     C_R   0.510740 0.501948 0.646234 -0.059918
C10   C     C_R   0.439488 0.612128 0.972766 0.044733
C11   C     C_R   0.650564 0.503527 0.974359 0.044655
C12   C     C_R   0.499055 0.500129 0.405869 0.863312
C13   C     C_R   0.547592 0.558941 0.948252 0.071533
C14   C     C_R   0.344831 0.677924 0.945368 -0.218566
C15   C     C_R   0.350812 0.679805 0.895251 -0.139331
C16   C     C_R   0.451482 0.616770 0.870739 -0.020237
C17   C     C_R   0.551445 0.558656 0.897013 -0.052991
C18   C     C_R   0.653939 0.497806 0.871949 -0.021195
C19   C     C_R   0.651269 0.489650 0.821365 0.507906
C20   C     C_R   0.453623 0.608451 0.820273 0.504034
C21   C     C_R   0.447826 0.438700 0.727503 -0.129542
C22   C     C_R   0.427882 0.430201 0.677654 0.070914
C23   C     C_R   0.742477 0.499186 0.500186 0.861460
C24   C     C_R   0.608199 0.581793 0.665081 -0.269969
C25   C     C_R   0.623835 0.592301 0.714672 -0.103251
C26   C     C_R   0.542945 0.521824 0.745887 0.287291
C27   C     C_R   0.428828 0.596768 0.023562 0.045842
C28   C     C_R   0.533150 0.545442 0.049837 0.071077
C29   C     C_R   0.646094 0.504450 0.025651 0.045018
C30   C     C_R   0.315634 0.627148 0.048972 -0.219289
C31   C     C_R   0.741323 0.456430 0.103876 -0.138060
C32   C     C_R   0.753198 0.445562 0.948049 -0.216707
C33   C     C_R   0.754432 0.442572 0.897828 -0.139069
C34   C     C_R   0.498430 0.500115 0.593952 0.874884
C35   C     C_R   0.750343 0.464146 0.053825 -0.218413
C36   C     C_3   0.070032 0.587877 0.540191 -0.430431
C37   C     C_3   0.072606 0.350693 0.505351 -0.431043
C38   C     C_3   0.926572 0.588401 0.540784 -0.414567
C39   C     C_3   0.930106 0.348526 0.504067 -0.412105
C40   C     C_3   0.070244 0.559159 0.445624 0.242619
C41   C     C_3   0.120676 0.501207 0.496441 0.115727
C42   C     C_3   0.878463 0.498109 0.498815 0.134566
C43   C     C_3   0.923273 0.558995 0.449759 -0.396566
C44   C     C_3   0.377424 0.082613 0.482924 -0.235503
C45   C     C_3   0.377676 0.919992 0.482827 -0.243609
C46   C     C_3   0.598327 0.080458 0.465934 -0.233529
C47   C     C_3   0.598525 0.917586 0.466008 -0.234790
C48   C     C_3   0.523713 0.081025 0.547872 -0.226277
C49   C     C_3   0.523566 0.918466 0.547882 -0.223856
C50   C     C_R   0.403072 0.553556 0.175453 0.498131
C51   C     C_R   0.617445 0.478889 0.178073 0.502667
C52   C     C_R   0.510155 0.380344 0.276596 -0.110361
C53   C     C_R   0.509137 0.377564 0.326909 -0.251059
C54   C     C_R   0.482579 0.627293 0.328455 -0.242331
H1    H     H_    0.471615 0.724005 0.347867 0.149008
H2    H     H_    0.521039 0.284898 0.256458 0.143406
H3    H     H_    0.823624 0.424311 0.123850 0.190659
H4    H     H_    0.832416 0.396609 0.965136 0.143064
H5    H     H_    0.671713 0.637333 0.641214 0.146437
H6    H     H_    0.834081 0.394738 0.879361 0.188980
H7    H     H_    0.697082 0.657221 0.728894 0.150345
H8    H     H_    0.841424 0.440089 0.038391 0.142014
H9    H     H_    0.104705 0.695545 0.540489 0.164092
H10   H     H_    0.111960 0.275013 0.478867 0.166563
H11   H     H_    0.103873 0.541663 0.574573 0.177312
H12   H     H_    0.104048 0.312748 0.541246 0.176295
H13   H     H_    0.891290 0.548080 0.576140 0.166509
H14   H     H_    0.893486 0.300310 0.537974 0.178820
H15   H     H_    0.475454 0.727544 0.259466 0.139866
H16   H     H_    0.891929 0.696846 0.537172 0.175006
H17   H     H_    0.899803 0.283730 0.473082 0.170740
H18   H     H_    0.882356 0.664131 0.446821 0.157246
H19   H     H_    0.881114 0.498787 0.419827 0.142877
H20   H     H_    0.355622 0.122129 0.446128 0.143800
H21   H     H_    0.357156 0.881733 0.445883 0.150636
H22   H     H_    0.300626 0.120448 0.507320 0.145275
H23   H     H_    0.300918 0.883215 0.507099 0.142706
H24   H     H_    0.583357 0.118897 0.428497 0.146259
H25   H     H_    0.584046 0.879116 0.428582 0.146717
H26   H     H_    0.615521 0.118760 0.561210 0.148218
H27   H     H_    0.615223 0.878624 0.561308 0.143559
H28   H     H_    0.450722 0.119703 0.573824 0.148596
H29   H     H_    0.450378 0.881478 0.573781 0.154969
H30   H     H_    0.692376 0.117807 0.476862 0.142306
H31   H     H_    0.692627 0.878759 0.477084 0.141502
H32   H     H_    0.217983 0.636525 0.116586 0.189462
H33   H     H_    0.386115 0.384893 0.752518 0.139958
H34   H     H_    0.274691 0.728890 0.875774 0.189439
H35   H     H_    0.265194 0.730540 0.961629 0.143976
H36   H     H_    0.230350 0.658492 0.031242 0.142489
H37   H     H_    0.519365 0.279175 0.345205 0.152787
N1    N     N_R   0.506011 0.511086 0.200733 -0.355246
N2    N     N_R   0.550724 0.542057 0.796889 -0.350206
N3    N     N_3   0.499750 0.138610 0.498940 -0.032645
N4    N     N_3   0.499750 0.861390 0.498940 -0.032708
O1    O     O_R   0.314910 0.616040 0.499990 -0.640227
O2    O     O_R   0.314910 0.383960 0.499990 -0.636242
O3    O     O_R   0.500140 0.616020 0.428740 -0.631061
O4    O     O_R   0.500140 0.383980 0.428740 -0.628014
O5    O     O_R   0.685320 0.616040 0.499970 -0.636838
O6    O     O_R   0.685320 0.383960 0.499970 -0.630660
O7    O     O_R   0.500090 0.616050 0.571230 -0.620381
O8    O     O_R   0.500090 0.383950 0.571230 -0.630230
O9    O     O_2   0.294061 0.582484 0.199066 -0.575131
O10   O     O_2   0.358730 0.664699 0.794637 -0.573180
O11   O     O_2   0.717694 0.439147 0.204342 -0.565934
O12   O     O_2   0.746673 0.427327 0.796894 -0.568902
Zn1   Zn    Zn3+2 0.500150 0.654960 0.499980 0.898694
Zn2   Zn    Zn3+2 0.500150 0.345040 0.499980 0.900055
C55   C     C_3   0.122831 0.708971 0.434814 -0.374899
C56   C     C_3   0.044292 0.806343 0.402175 -0.380263
C57   C     C_3   0.125634 0.917913 0.378845 -0.908902
H38   H     H_    0.168667 0.983008 0.407152 0.247422
H39   H     H_    0.200919 0.870299 0.355946 0.263579
H40   H     H_    0.066451 0.985301 0.355680 0.259037
H41   H     H_    0.995307 0.749899 0.373328 0.229966
H42   H     H_    0.971057 0.860019 0.424470 0.206769
H43   H     H_    0.134725 0.767431 0.468629 0.183127
H44   H     H_    0.218997 0.697232 0.418973 0.210606
C58   C     C_3   0.114983 0.457293 0.403905 -0.447071
C59   C     C_3   0.093301 0.504935 0.351493 -0.353923
C60   C     C_3   0.133058 0.392655 0.315437 -0.807172
H45   H     H_    0.233992 0.365799 0.319824 0.263334
H46   H     H_    0.075722 0.298442 0.320953 0.249107
H47   H     H_    0.118932 0.430622 0.277953 0.284864
H48   H     H_    0.992201 0.528609 0.345892 0.226224
H49   H     H_    0.150220 0.597826 0.343335 0.249234
H50   H     H_    0.217220 0.435494 0.407433 0.188800
H51   H     H_    0.065877 0.357180 0.407876 0.205823
C61   C     C_3   0.314013 0.351503 0.660484 -0.465180
C62   C     C_3   0.191592 0.426126 0.675757 -0.319427
C63   C     C_3   0.076121 0.341362 0.663314 -0.879914
H52   H     H_    0.073922 0.319538 0.623998 0.245145
H53   H     H_    0.077119 0.242052 0.683475 0.271244
H54   H     H_    0.989536 0.400003 0.673536 0.264883
H55   H     H_    0.189858 0.445208 0.715408 0.249200
H56   H     H_    0.186002 0.527795 0.657151 0.217221
H57   H     H_    0.313631 0.338603 0.620665 0.210423
H58   H     H_    0.316622 0.246006 0.676431 0.210510

loop_
_geom_bond_atom_site_label_1
_geom_bond_atom_site_label_2
_ccdc_geom_bond_type
C10   C27   A    
C43   H19   S    
C20   N2    A    
C21   H33   S    
C50   O9    S    
C43   H18   S    
C39   H14   S    
C56   C57   S    
C32   H4    S    
C30   H36   S    
C55   H43   S    
C57   H39   S    
C44   C45   S    
C34   O7    A    
C23   C42   S    
C48   N3    S    
C47   H31   S    
C28   C29   A    
C38   C42   S    
C24   H5    S    
C5    C6    A    
C9    C22   A    
C56   H42   S    
O6    Zn2   S    
C15   C16   A    
O4    Zn2   S    
C45   N4    S    
O3    Zn1   S    
C18   C19   A    
C49   H27   S    
C44   H22   S    
C55   C56   S    
C12   O4    A    
C54   H1    S    
C40   C43   S    
C63   H52   S    
C53   H37   S    
O7    Zn1   S    
C56   H41   S    
C47   H25   S    
C2    H15   S    
C12   O3    A    
C19   N2    A    
C8    C12   S    
C26   N2    S    
C23   O5    A    
O1    Zn1   S    
C21   C22   A    
C22   C61   S    
C27   C30   A    
C36   C41   S    
C4    C7    A    
C61   H58   S    
C57   H38   S    
C4    C28   A    
C21   C26   A    
C39   C42   S    
O5    Zn1   S    
C7    C31   A    
C58   H51   S    
C63   H54   S    
C24   C25   A    
C62   H55   S    
C10   C14   A    
C1    O2    A    
C46   H24   S    
C36   H11   S    
C16   C17   A    
C40   C55   S    
C25   C26   A    
C3    N1    S    
C8    C53   A    
C14   H35   S    
C62   H56   S    
C51   N1    A    
O2    Zn2   S    
C8    C54   A    
C46   N3    S    
C16   C20   A    
C37   H12   S    
C17   C18   A    
C25   H7    S    
C52   C53   A    
C49   N4    S    
C44   H20   S    
C59   C60   S    
C46   H30   S    
C1    C41   S    
C38   H16   S    
C6    C30   A    
C11   C32   A    
C33   H6    S    
C2    C54   A    
C9    C34   S    
C31   C35   A    
C5    C50   A    
C42   C43   S    
C60   H46   S    
C62   C63   S    
C36   H9    S    
C37   H10   S    
C58   C59   S    
C20   O10   S    
C50   N1    A    
C46   C47   S    
C48   C49   S    
C47   N4    S    
C40   C58   S    
C4    C5    A    
C10   C13   A    
C55   H44   S    
C45   H23   S    
C3    C52   A    
C58   H50   S    
C9    C24   A    
C59   H49   S    
C13   C17   A    
C29   C35   A    
N3    Zn2   S    
C34   O8    A    
C6    H32   S    
C45   H21   S    
O8    Zn2   S    
C32   C33   A    
C31   H3    S    
C60   H47   S    
C36   C38   S    
C61   C62   S    
C7    C51   A    
C59   H48   S    
C37   C39   S    
C48   H26   S    
C11   C13   A    
C49   H29   S    
C23   O6    A    
C51   O11   S    
C48   H28   S    
C2    C3    A    
C35   H8    S    
C37   C41   S    
C18   C33   A    
C44   N3    S    
N4    Zn1   S    
C38   H13   S    
C11   C29   A    
C63   H53   S    
C27   C28   A    
C39   H17   S    
C14   C15   A    
C40   C41   S    
C1    O1    A    
C60   H45   S    
C57   H40   S    
C52   H2    S    
C19   O12   S    
C15   H34   S    
C61   H57   S    
