data_mof_unit_1491.cif
_audit_creation_date              2012-12-11T16:04:08-0500
_audit_creation_method            fapswitch 2.2
_symmetry_space_group_name_H-M    P1
_symmetry_Int_Tables_number       1
_space_group_crystal_system       triclinic
_cell_length_a                    8.429485
_cell_length_b                    16.452486
_cell_length_c                    17.449752
_cell_angle_alpha                 95.110995
_cell_angle_beta                  95.861791
_cell_angle_gamma                 92.683809
_cell_volume                      2393.98800149

loop_
_atom_site_label
_atom_site_type_symbol
_atom_type_description
_atom_site_fract_x
_atom_site_fract_y
_atom_site_fract_z
_atom_type_partial_charge
Ba1   Ba    Ba6+2 0.150890 0.539190 0.463180 1.769561
Ba2   Ba    Ba6+2 0.659280 0.460800 0.536750 1.716054
C1    C     C_3   0.405114 0.850044 0.204085 -0.220456
C2    C     C_R   0.834249 0.765561 0.518124 -0.062225
C3    C     C_R   0.886794 0.849027 0.523807 -0.003086
C4    C     C_3   0.930700 0.762860 0.294029 0.328244
C5    C     C_R   0.786810 0.907542 0.490482 0.299486
C6    C     C_R   0.634496 0.879886 0.452889 -0.077779
C7    C     C_R   0.581678 0.797345 0.449769 -0.064491
C8    C     C_R   0.916992 0.158640 0.491068 -0.161784
C9    C     C_R   0.969875 0.241922 0.494796 0.048633
C10   C     C_R   0.016829 0.100501 0.523956 0.295202
C11   C     C_R   0.119703 0.267356 0.533339 -0.290919
C12   C     C_3   0.426252 0.780764 0.258473 0.259843
C13   C     C_R   0.223592 0.210517 0.561255 -0.058131
C14   C     C_R   0.171950 0.127661 0.557131 -0.050499
C15   C     C_R   0.603695 0.513248 0.272548 -0.285006
C16   C     C_3   0.984707 0.848344 0.269996 -0.252431
C17   C     C_R   0.450769 0.479373 0.251145 0.069640
C18   C     C_R   0.394163 0.467332 0.172064 -0.150587
C19   C     C_R   0.486799 0.497289 0.116608 0.021833
C20   C     C_R   0.634832 0.540670 0.141787 -0.018214
C21   C     C_R   0.691031 0.550342 0.221154 -0.009736
C22   C     C_R   0.419479 0.496779 0.831454 -0.101128
C23   C     C_3   0.529116 0.715418 0.682538 0.224616
C24   C     C_R   0.364925 0.492262 0.752423 0.041632
C25   C     C_R   0.118357 0.421801 0.776911 -0.032835
C26   C     C_R   0.172508 0.426484 0.856425 -0.129845
C27   C     C_R   0.324742 0.463371 0.883930 -0.000061
C28   C     C_3   0.760407 0.348877 0.300483 0.231423
C29   C     C_1   0.379744 0.473866 0.966294 0.033307
C30   C     C_1   0.428452 0.484380 0.034723 0.061391
C31   C     C_R   0.217702 0.452154 0.725360 -0.276486
C32   C     C_3   0.714728 0.317426 0.214827 -0.275638
C33   C     C_3   0.024588 0.626437 0.692585 0.325677
C34   C     C_3   0.566026 0.798337 0.731133 -0.210160
C35   C     C_3   0.043511 0.641571 0.780421 -0.343245
C36   C     C_3   0.277142 0.293739 0.373012 0.228009
C37   C     C_3   0.256812 0.199703 0.355201 -0.238486
C38   C     C_2   0.384041 0.699373 0.213268 0.790552
C39   C     C_2   0.848818 0.314854 0.163050 0.943799
C40   C     C_2   0.141596 0.174095 0.283558 0.931979
C41   C     C_2   0.414284 0.161038 0.348134 0.916589
C42   C     C_2   0.514826 0.852799 0.141081 0.937762
C43   C     C_2   0.633663 0.861102 0.683620 0.795515
C44   C     C_2   0.421039 0.831821 0.764540 0.932089
C45   C     C_3   0.944301 0.238641 0.752917 0.237426
C46   C     C_2   0.851481 0.898996 0.242362 0.879634
C47   C     C_2   0.988376 0.091064 0.769424 0.882329
C48   C     C_2   0.431899 0.140528 0.831247 0.917047
C49   C     C_2   0.624452 0.658992 0.480682 0.930365
C50   C     C_2   0.082210 0.903110 0.333681 0.908433
C51   C     C_3   0.867224 0.154756 0.762881 -0.158594
C52   C     C_3   0.398212 0.251227 0.741327 0.297753
C53   C     C_3   0.454832 0.230341 0.822957 -0.196341
C54   C     C_R   0.680320 0.743167 0.484632 -0.369867
H1    H     H_    0.653939 0.255371 0.210760 0.193450
H2    H     H_    0.656665 0.788325 0.780257 0.071595
H3    H     H_    0.420038 0.909676 0.239639 0.103044
H4    H     H_    0.986049 0.236909 0.694287 0.001890
H5    H     H_    0.046721 0.252824 0.798286 -0.014370
H6    H     H_    0.777679 0.135564 0.712553 0.125245
H7    H     H_    0.273092 0.226893 0.725609 -0.062345
H8    H     H_    0.386075 0.264853 0.864877 0.041956
H9    H     H_    0.582828 0.250208 0.837560 0.108085
H10   H     H_    0.023496 0.745656 0.338498 0.103090
H11   H     H_    0.800947 0.139501 0.461049 0.125075
H12   H     H_    0.137273 0.605200 0.672756 -0.001490
H13   H     H_    0.556995 0.922779 0.426770 0.133105
H14   H     H_    0.004080 0.867618 0.553023 0.146173
H15   H     H_    0.253191 0.084016 0.579124 0.129548
H16   H     H_    0.161100 0.330898 0.535868 0.063767
H17   H     H_    0.531598 0.530139 0.852556 0.090455
H18   H     H_    0.705651 0.565970 0.100288 0.099302
H19   H     H_    0.094507 0.404537 0.896661 0.100357
H20   H     H_    0.279358 0.435275 0.154060 0.137289
H21   H     H_    0.660737 0.504534 0.328664 0.111062
H22   H     H_    0.173804 0.451648 0.664818 0.043346
H23   H     H_    0.928035 0.578298 0.675987 0.069456
H24   H     H_    0.059778 0.836530 0.222506 0.079047
H25   H     H_    0.838841 0.405730 0.305143 -0.001833
H26   H     H_    0.258013 0.595295 0.203780 0.324373
H27   H     H_    0.625860 0.358099 0.189653 0.013419
H28   H     H_    0.031449 0.335193 0.248495 0.296162
H29   H     H_    0.936057 0.671397 0.800122 0.129581
H30   H     H_    0.366023 0.308373 0.424522 0.045332
H31   H     H_    0.984295 0.113341 0.341793 0.281912
H32   H     H_    0.565274 0.077300 0.384298 0.311262
H33   H     H_    0.551951 0.783509 0.284881 -0.046964
H34   H     H_    0.153074 0.681849 0.800692 0.160198
H35   H     H_    0.573420 0.908522 0.048607 0.356666
H36   H     H_    0.645075 0.693417 0.666417 0.032114
H37   H     H_    0.586673 0.941695 0.604526 0.322769
H38   H     H_    0.180053 0.832908 0.759379 0.335440
H39   H     H_    0.674147 0.969132 0.272646 0.320458
H40   H     H_    0.157057 0.028567 0.719757 0.342403
H41   H     H_    0.804330 0.159284 0.815935 0.122613
H42   H     H_    0.403915 0.318765 0.742447 0.011369
H43   H     H_    0.333881 0.052808 0.888064 0.367611
H44   H     H_    0.658801 0.641916 0.370678 0.190364
H45   H     H_    0.055001 0.582390 0.806805 0.061121
H46   H     H_    0.816498 0.766254 0.320308 -0.069680
H47   H     H_    0.175693 0.974418 0.259137 0.289843
H48   H     H_    0.647796 0.361531 0.325841 0.046994
H49   H     H_    0.161107 0.317243 0.386111 -0.028898
H50   H     H_    0.282446 0.844866 0.174218 0.067434
H51   H     H_    0.206986 0.175083 0.405134 -0.064073
H52   H     H_    0.446360 0.723700 0.630225 0.099876
N1    N     N_2   0.832330 0.993391 0.492511 -0.213036
N2    N     N_2   0.970914 0.014824 0.522700 -0.164294
O1    O     O_2   0.124170 0.696240 0.537320 -0.433181
O2    O     O_2   0.798243 0.453756 0.773966 -0.478182
O3    O     O_3   0.829928 0.297214 0.761577 -0.563682
O4    O     O_3   0.874280 0.596090 0.538840 -0.475491
O5    O     O_3   0.430090 0.459160 0.409230 -0.449836
O6    O     O_2   0.641040 0.538740 0.685130 -0.448793
O7    O     O_3   0.455989 0.660641 0.727235 -0.644681
O8    O     O_2   0.549522 0.208445 0.543548 -0.441679
O9    O     O_3   0.497803 0.217793 0.688328 -0.549492
O10   O     O_3   0.350640 0.647210 0.399890 -0.417920
O11   O     O_2   0.261006 0.790037 0.457621 -0.416668
O12   O     O_3   0.327286 0.329868 0.309198 -0.603984
O13   O     O_3   0.986738 0.699611 0.661304 -0.596264
O14   O     O_3   0.317639 0.792660 0.314683 -0.623194
O15   O     O_2   0.169260 0.461210 0.314850 -0.457684
O16   O     O_3   0.932460 0.606800 0.361650 -0.480653
O17   O     O_2   0.009963 0.551653 0.224254 -0.459874
O18   O     O_2   0.437477 0.681142 0.151658 -0.611751
O19   O     O_R   0.277796 0.645098 0.240780 -0.700306
O20   O     O_2   0.813833 0.297962 0.093432 -0.532711
O21   O     O_R   0.010066 0.331268 0.190368 -0.681116
O22   O     O_2   0.175387 0.191035 0.220192 -0.468763
O23   O     O_3   0.915904 0.702731 0.229608 -0.561466
O24   O     O_R   0.997831 0.129162 0.287936 -0.685412
O25   O     O_2   0.497408 0.179252 0.297987 -0.576042
O26   O     O_R   0.462197 0.102060 0.397482 -0.718011
O27   O     O_2   0.619476 0.804296 0.134755 -0.548349
O28   O     O_R   0.494672 0.912265 0.088881 -0.688268
O29   O     O_2   0.774183 0.885660 0.696913 -0.572694
O30   O     O_R   0.533097 0.893663 0.626474 -0.747415
O31   O     O_2   0.439712 0.885642 0.818340 -0.563435
O32   O     O_R   0.266378 0.804122 0.732673 -0.724964
O33   O     O_2   0.850116 0.925222 0.178906 -0.527669
O34   O     O_2   0.686120 0.303710 0.462660 -0.454751
O35   O     O_R   0.741783 0.924819 0.292958 -0.792749
O36   O     O_2   0.003922 0.054228 0.827328 -0.518753
O37   O     O_R   0.080680 0.072944 0.708824 -0.776147
O38   O     O_2   0.496192 0.090764 0.790137 -0.560535
O39   O     O_R   0.339069 0.114390 0.887246 -0.696136
O40   O     O_2   0.566498 0.632734 0.534526 -0.572595
O41   O     O_R   0.637186 0.608640 0.414910 -0.705029
O42   O     O_2   0.068682 0.894305 0.401124 -0.564068
O43   O     O_R   0.181032 0.968157 0.316399 -0.708429
O44   O     O_3   0.936010 0.403900 0.461090 -0.491963
O45   O     O_3   0.459650 0.352790 0.600040 -0.482354
O46   O     O_3   0.837769 0.288986 0.339575 -0.620557
O47   O     O_3   0.380200 0.540830 0.590710 -0.420258
O48   O     O_3   0.877840 0.393190 0.638290 -0.470812
P1    P     P_3+3 0.954010 0.683680 0.560080 1.043410
P2    P     P_3+3 0.343360 0.437010 0.326580 1.051112
P3    P     P_3+3 0.884451 0.603757 0.260255 1.002244
P4    P     P_3+3 0.856290 0.316310 0.439860 1.013619
P5    P     P_3+3 0.908772 0.391260 0.739059 0.973286
P6    P     P_3+3 0.381418 0.756017 0.403824 1.022668
P7    P     P_3+3 0.460381 0.558331 0.688658 1.010918
P8    P     P_3+3 0.431217 0.246330 0.596827 1.011056

loop_
_geom_bond_atom_site_label_1
_geom_bond_atom_site_label_2
_ccdc_geom_bond_type
C38   O19   S    
C24   P7    S    
C42   O27   D    
Ba2   O34   S    
C17   C18   A    
H39   O35   S    
Ba2   P4    S    
C10   N2    S    
O15   P2    D    
C16   C50   S    
C5    C6    A    
C44   O32   S    
C8    H11   S    
C25   C31   A    
C37   H51   S    
C14   H15   S    
C18   H20   S    
C6    H13   S    
Ba2   O45   S    
C35   H34   S    
C36   H30   S    
C17   P2    S    
C35   H29   S    
C26   C27   A    
C33   C35   S    
Ba1   O15   S    
Ba1   Ba2   S    
C4    O23   S    
C34   H2    S    
C36   C37   S    
C22   H17   S    
C2    P1    S    
C52   H7    S    
O45   P8    S    
C13   C14   A    
C38   O18   D    
C43   O29   D    
C47   O37   S    
C49   C54   S    
C51   H6    S    
C33   H23   S    
H40   O37   S    
O1    P1    D    
C22   C27   A    
C25   P5    S    
C45   H4    S    
Ba2   O6    S    
H47   O43   S    
C10   C14   A    
C49   O40   D    
O7    P7    S    
C6    C7    A    
C32   H1    S    
C13   P8    S    
C34   C44   S    
C44   O31   D    
O16   P3    S    
C50   O42   D    
C45   C51   S    
C28   O46   S    
O46   P4    S    
O17   P3    D    
C52   O9    S    
C46   O35   S    
C4    H46   S    
H31   O24   S    
C41   O26   S    
C32   C39   S    
C53   H9    S    
C37   C40   S    
H44   O41   S    
C4    C16   S    
C19   C30   S    
C1    C42   S    
C12   O14   S    
C28   C32   S    
H38   O32   S    
Ba1   P1    S    
Ba1   O16   S    
H32   O26   S    
O47   P7    S    
C3    C5    A    
C37   C41   S    
C51   H41   S    
C50   O43   S    
O11   P6    D    
C12   C38   S    
O8    P8    D    
C9    P4    S    
C5    N1    S    
C46   O33   D    
O23   P3    S    
Ba1   O10   S    
C7    P6    S    
C12   H33   S    
C3    H14   S    
O3    P5    S    
H35   O28   S    
H43   O39   S    
Ba2   O5    S    
C24   C31   A    
C29   C30   T    
Ba2   O48   S    
C53   H8    S    
C15   H21   S    
C34   C43   S    
C7    C54   A    
C15   C21   A    
H26   O19   S    
C41   O25   D    
O9    P8    S    
C36   O12   S    
C1    C12   S    
C8    C10   A    
O48   P5    S    
C16   H24   S    
C11   C13   A    
C9    C11   A    
O6    P7    D    
Ba1   O4    S    
C20   H18   S    
C28   H48   S    
C39   O21   S    
C48   O38   D    
C45   O3    S    
O2    P5    D    
C52   C53   S    
C23   H36   S    
C42   O28   S    
O34   P4    D    
O44   P4    S    
Ba1   P2    S    
C22   C24   A    
C2    C3    A    
C16   C46   S    
C45   H5    S    
C11   H16   S    
H28   O21   S    
C48   C53   S    
O5    P2    S    
C40   O24   S    
C28   H25   S    
C33   O13   S    
C1    H50   S    
C27   C29   S    
H37   O30   S    
N1    N2    D    
Ba1   O1    S    
C35   H45   S    
Ba2   O4    S    
C48   O39   S    
C39   O20   D    
O13   P1    S    
C33   H12   S    
C36   H49   S    
Ba2   O47   S    
C47   C51   S    
Ba1   O47   S    
C15   C17   A    
C47   O36   D    
C43   O30   S    
Ba1   O44   S    
C31   H22   S    
O4    P1    S    
C8    C9    A    
O10   P6    S    
C23   C34   S    
C49   O41   S    
C4    H10   S    
C18   C19   A    
Ba2   O44   S    
C32   H27   S    
C23   O7    S    
C25   C26   A    
O12   P2    S    
C20   C21   A    
C52   H42   S    
C40   O22   D    
Ba1   O5    S    
C21   P3    S    
C19   C20   A    
C26   H19   S    
C2    C54   A    
C23   H52   S    
O14   P6    S    
C1    H3    S    
