data_mof_unit_2378.cif
_audit_creation_date              2012-12-11T17:34:16-0500
_audit_creation_method            fapswitch 2.2
_symmetry_space_group_name_H-M    P1
_symmetry_Int_Tables_number       1
_space_group_crystal_system       triclinic
_cell_length_a                    23.826731
_cell_length_b                    7.218446
_cell_length_c                    20.645686
_cell_angle_alpha                 89.626693
_cell_angle_beta                  105.348086
_cell_angle_gamma                 89.788882
_cell_volume                      3424.12531048

loop_
_atom_site_label
_atom_site_type_symbol
_atom_type_description
_atom_site_fract_x
_atom_site_fract_y
_atom_site_fract_z
_atom_type_partial_charge
O1    O     O_R   0.449110 0.494310 0.552140 -0.539601
O2    O     O_R   0.550890 0.994310 0.447860 -0.540645
O3    O     O_R   0.440010 0.824420 0.415850 -0.539856
O4    O     O_R   0.559990 0.324420 0.584150 -0.536527
C1    C     C_R   0.425326 0.656690 0.390930 0.791799
C2    C     C_R   0.574559 0.154857 0.608967 0.797802
O5    O     O_R   0.442260 0.824040 0.549660 -0.516337
O6    O     O_R   0.557740 0.324040 0.450340 -0.517030
O7    O     O_R   0.553160 0.993960 0.582620 -0.532643
O8    O     O_R   0.446840 0.493960 0.417380 -0.524512
C3    C     C_R   0.428115 0.655594 0.567067 0.739570
C4    C     C_R   0.571941 0.155776 0.433065 0.744371
O9    O     O_3   0.536380 0.660670 0.510660 -0.366490
O10   O     O_3   0.463620 0.160670 0.489340 -0.362341
V1    V     V_3+5 0.493250 0.935680 0.498020 1.604591
V2    V     V_3+5 0.506750 0.435680 0.501980 1.613077
C5    C     C_R   0.849376 0.933336 0.202102 0.409743
C6    C     C_R   0.206021 0.456642 0.868626 0.394658
C7    C     C_R   0.889344 0.924517 0.162366 0.295527
C8    C     C_R   0.166023 0.447765 0.908410 0.342434
C9    C     C_R   0.886704 0.056610 0.110223 -0.264523
C10   C     C_R   0.114493 0.557269 0.891597 -0.254852
C11   C     C_R   0.843472 0.197417 0.099799 0.427103
C12   C     C_R   0.104327 0.674407 0.834394 0.353601
C13   C     C_R   0.804608 0.205337 0.140143 -0.158055
C14   C     C_R   0.144428 0.682479 0.795642 -0.161721
H1    H     H_    0.771935 0.314184 0.131393 0.196776
H2    H     H_    0.135611 0.772535 0.751843 0.197672
C15   C     C_R   0.807122 0.074807 0.191126 -0.117202
C16   C     C_R   0.195139 0.574715 0.812111 -0.113227
C17   C     C_1   0.766404 0.089136 0.232340 0.148789
C18   C     C_1   0.235346 0.586885 0.770138 0.140320
C19   C     C_1   0.732778 0.101177 0.267131 0.052007
C20   C     C_1   0.268564 0.598360 0.734783 0.047205
C21   C     C_R   0.654034 0.972902 0.311331 -0.067211
C22   C     C_R   0.346447 0.469029 0.689168 -0.061177
H3    H     H_    0.653367 0.849610 0.281486 0.147070
H4    H     H_    0.347053 0.344047 0.718705 0.156417
C23   C     C_R   0.615505 0.987517 0.351897 -0.154093
C24   C     C_R   0.384651 0.484397 0.648192 -0.152593
H5    H     H_    0.585688 0.874470 0.351650 0.155257
H6    H     H_    0.414134 0.370089 0.647826 0.157841
C25   C     C_R   0.614771 0.145944 0.391431 -0.127830
C26   C     C_R   0.385526 0.645085 0.609074 -0.126496
C27   C     C_R   0.654937 0.289876 0.389499 0.395980
C28   C     C_R   0.345813 0.790569 0.611888 0.394786
C29   C     C_R   0.693185 0.273639 0.348376 -0.119008
C30   C     C_R   0.307873 0.773498 0.653392 -0.125579
H7    H     H_    0.723625 0.384207 0.347423 0.180136
H8    H     H_    0.277814 0.885357 0.655029 0.166956
C31   C     C_R   0.692869 0.116112 0.309128 0.029675
C32   C     C_R   0.308046 0.613691 0.692208 0.031785
C33   C     C_R   0.639095 0.153327 0.795911 0.778058
C34   C     C_R   0.355591 0.753092 0.208278 0.779989
H9    H     H_    0.554332 0.198148 0.729379 0.170215
H10   H     H_    0.439876 0.790586 0.275821 0.167545
C35   C     C_R   0.618100 0.145509 0.674804 -0.272148
C36   C     C_R   0.381584 0.656740 0.324937 -0.267714
C37   C     C_R   0.903395 0.091862 0.769386 -0.329527
C38   C     C_R   0.099555 0.511615 0.231079 -0.336237
C39   C     C_R   0.866679 0.138136 0.707196 0.644901
C40   C     C_R   0.136389 0.527299 0.295244 0.646956
C41   C     C_R   0.806838 0.153603 0.698478 0.681162
C42   C     C_R   0.194651 0.574770 0.304687 0.678867
C43   C     C_R   0.781481 0.109637 0.751636 -0.170725
C44   C     C_R   0.218715 0.596291 0.249078 -0.174151
C45   C     C_R   0.820053 0.074452 0.816957 -0.225148
C46   C     C_R   0.179038 0.599184 0.183102 -0.224209
C47   C     C_R   0.719620 0.115256 0.743517 -0.143736
C48   C     C_R   0.279777 0.628694 0.256781 -0.137542
C49   C     C_R   0.698761 0.121200 0.802027 -0.334981
C50   C     C_R   0.297572 0.696547 0.200411 -0.334860
C51   C     C_R   0.737451 0.091217 0.865562 0.692615
C52   C     C_R   0.257446 0.706074 0.136937 0.701632
C53   C     C_R   0.796404 0.059987 0.872558 0.555738
C54   C     C_R   0.199962 0.652447 0.127988 0.560660
C55   C     C_R   0.677273 0.110484 0.679875 0.728937
C56   C     C_R   0.324356 0.593545 0.317532 0.723205
C57   C     C_R   0.599828 0.171250 0.732882 -0.366150
C58   C     C_R   0.396162 0.739557 0.270458 -0.354902
C59   C     C_R   0.881492 0.063885 0.825055 -0.135984
C60   C     C_R   0.119171 0.553219 0.174679 -0.139812
H11   H     H_    0.949889 0.089429 0.775076 0.221074
H12   H     H_    0.054388 0.475672 0.225435 0.213580
O11   O     O_R   0.053190 0.709680 0.082610 -0.520997
O12   O     O_R   0.946810 0.209680 0.917390 -0.546350
O13   O     O_R   0.057740 0.380240 0.950340 -0.533269
O14   O     O_R   0.942260 0.880240 0.049660 -0.505042
C61   C     C_R   0.071460 0.548696 0.932702 0.867884
C62   C     C_R   0.928929 0.048549 0.067892 0.868607
O15   O     O_R   0.060000 0.379940 0.084150 -0.546046
O16   O     O_R   0.940000 0.879940 0.915850 -0.520822
O17   O     O_R   0.949110 0.210100 0.052140 -0.527670
O18   O     O_R   0.050890 0.710100 0.947860 -0.506204
C63   C     C_R   0.075090 0.547716 0.108774 0.868852
C64   C     C_R   0.925153 0.049505 0.891112 0.867735
O19   O     O_3   0.963630 0.543720 0.989330 -0.371141
O20   O     O_3   0.036370 0.043720 0.010670 -0.376846
V3    V     V_3+5 0.006750 0.268680 0.001980 1.645561
V4    V     V_3+5 0.993250 0.768680 0.998020 1.716999
Cl1   Cl    Cl    0.852552 0.767156 0.266302 -0.470251
Cl2   Cl    Cl    0.270004 0.319665 0.889728 -0.447553
F1    F     F_    0.718131 0.085983 0.921840 -0.541768
F2    F     F_    0.273920 0.764093 0.082004 -0.520023
F3    F     F_    0.618285 0.168857 0.850850 -0.571349
F4    F     F_    0.373277 0.826341 0.156263 -0.564274
F5    F     F_    0.691222 0.052875 0.623628 -0.600390
F6    F     F_    0.314667 0.486704 0.367725 -0.602874
F7    F     F_    0.775978 0.235530 0.640683 -0.548710
F8    F     F_    0.224344 0.621643 0.367893 -0.550798
F9    F     F_    0.889839 0.179967 0.655562 -0.556094
F10   F     F_    0.114697 0.503548 0.349199 -0.554506
F11   F     F_    0.830214 0.020621 0.935085 -0.660932
F12   F     F_    0.164570 0.661595 0.064684 -0.656122
Cl3   Cl    Cl    0.944458 0.752282 0.181596 -0.544434
Cl4   Cl    Cl    0.182416 0.303385 0.980624 -0.434088
Cl5   Cl    Cl    0.834425 0.364829 0.035190 -0.486375
Cl6   Cl    Cl    0.040156 0.807055 0.806851 -0.617613
Cl7   Cl    Cl    0.661630 0.490290 0.439285 -0.532709
Cl8   Cl    Cl    0.339373 0.994400 0.562877 -0.551094

loop_
_geom_bond_atom_site_label_1
_geom_bond_atom_site_label_2
_ccdc_geom_bond_type
C44   C46   A    
C41   C43   A    
O4    V2    S    
C48   C56   A    
C5    C15   A    
C35   C57   A    
C47   C55   A    
O1    C3    A    
O2    C4    A    
C2    O7    A    
C45   C53   A    
C29   H7    S    
O5    C3    A    
C52   C54   A    
C1    C36   S    
C38   C40   A    
C33   C57   A    
C37   H11   S    
C4    C25   S    
C38   H12   S    
O16   C64   A    
C56   F6    S    
C6    Cl2   S    
C61   O18   A    
C47   C49   A    
C5    Cl1   S    
C22   C24   A    
C40   C42   A    
C20   C32   S    
C38   C60   A    
C43   C45   A    
C51   F1    S    
C54   F12   S    
C17   C19   T    
C6    C16   A    
C7    Cl3   S    
O17   V3    S    
C34   C58   A    
C22   C32   A    
C36   C58   A    
C27   Cl7   S    
C30   H8    S    
O6    V2    S    
C51   C53   A    
C2    C35   S    
C26   C28   A    
O13   V3    S    
C9    C62   S    
C27   C29   A    
C13   C15   A    
C28   C30   A    
C37   C39   A    
C34   F4    S    
C35   C55   A    
C55   F5    S    
C50   C52   A    
C8    Cl4   S    
C59   C64   S    
C23   C25   A    
O5    V1    S    
C34   C50   A    
C42   C44   A    
C41   F7    S    
C21   C23   A    
O12   V3    S    
H9    C57   S    
C42   F8    S    
O18   V4    S    
O6    C4    A    
C39   C41   A    
C28   Cl8   S    
C3    C26   S    
O1    V2    S    
C46   C54   A    
O2    V1    S    
C25   C27   A    
O14   V4    S    
O12   C64   A    
C53   F11   S    
O4    C2    A    
C8    C10   A    
C14   C16   A    
C9    C11   A    
C21   C31   A    
C10   C12   A    
C13   H1    S    
C33   C49   A    
O19   V4    S    
O3    V1    S    
O16   V4    S    
C62   O17   A    
C52   F2    S    
C21   H3    S    
C60   C63   S    
C7    C9    A    
C12   Cl6   S    
C37   C59   A    
O14   C62   A    
O3    C1    A    
C11   Cl5   S    
C29   C31   A    
C45   C59   A    
C19   C31   S    
C14   H2    S    
H10   C58   S    
C46   C60   A    
C22   H4    S    
O7    V1    S    
C1    O8    A    
C15   C17   S    
O11   V4    S    
O8    V2    S    
C16   C18   S    
O11   C63   A    
C12   C14   A    
C44   C48   A    
C43   C47   A    
C24   H6    S    
C5    C7    A    
C10   C61   S    
C6    C8    A    
C11   C13   A    
C36   C56   A    
O15   C63   A    
C33   F3    S    
C24   C26   A    
C40   F10   S    
C23   H5    S    
O20   V3    S    
O9    V2    S    
C49   C51   A    
O13   C61   A    
O10   V1    S    
C48   C50   A    
O15   V3    S    
C30   C32   A    
C18   C20   T    
C39   F9    S    
