data_mof_unit_342.cif
_audit_creation_date              2012-10-26T18:49:08-0400
_audit_creation_method            fapswitch 2.2
_symmetry_space_group_name_H-M    P1
_symmetry_Int_Tables_number       1
_space_group_crystal_system       triclinic
_cell_length_a                    10.77345
_cell_length_b                    10.928166
_cell_length_c                    9.672733
_cell_angle_alpha                 89.968763
_cell_angle_beta                  90.044238
_cell_angle_gamma                 90.118416
_cell_volume                      1138.8070907

loop_
_atom_site_label
_atom_site_type_symbol
_atom_type_description
_atom_site_fract_x
_atom_site_fract_y
_atom_site_fract_z
_atom_type_partial_charge
C1    C     C_R   0.498621 0.265303 0.500068 0.540627
C2    C     C_2   0.425918 0.431740 0.077904 0.037565
C3    C     C_R   0.260107 0.508766 0.500287 0.558828
C4    C     C_R   0.501692 0.734705 0.500089 0.548746
C5    C     C_R   0.739914 0.501068 0.500292 0.535528
C6    C     C_3   0.068843 0.516227 0.655136 -0.132748
C7    C     C_3   0.926476 0.524050 0.650513 -0.230686
C8    C     C_3   0.065658 0.621378 0.414174 0.115846
C9    C     C_3   0.075167 0.388463 0.439301 -0.222626
C10   C     C_3   0.121895 0.512031 0.501412 0.033201
C11   C     C_3   0.122035 0.606955 0.766030 -0.254353
C12   C     C_3   0.877538 0.502399 0.501497 -0.008955
C13   C     C_3   0.140176 0.739634 0.721500 -0.417779
C14   C     C_3   0.884764 0.264622 0.518069 -0.289319
C15   C     C_3   0.909299 0.147651 0.435880 -0.444957
C16   C     C_3   0.922594 0.610318 0.410587 -0.205169
C17   C     C_3   0.931071 0.380807 0.440837 -0.107959
C18   C     C_2   0.500428 0.933121 0.386389 -0.167257
C19   C     C_2   0.508143 0.866660 0.502464 -0.131785
C20   C     C_2   0.505855 0.067104 0.386691 -0.164137
C21   C     C_2   0.492891 0.133329 0.502298 -0.125581
C22   C     C_2   0.425884 0.431791 0.922009 -0.015543
Cu1   Cu    Cu3+1 0.500030 0.500020 0.638630 0.916617
Cu2   Cu    Cu3+1 0.499970 0.499980 0.361370 0.994910
H1    H     H_    0.898616 0.373646 0.331694 0.160861
H2    H     H_    0.089903 0.424969 0.701186 0.129906
H3    H     H_    0.560735 0.556278 0.106100 0.203475
H4    H     H_    0.887221 0.455518 0.723681 0.135526
H5    H     H_    0.894231 0.615403 0.686441 0.137971
H6    H     H_    0.087693 0.708004 0.466565 0.092272
H7    H     H_    0.880641 0.697613 0.447020 0.091246
H8    H     H_    0.108962 0.375052 0.332297 0.175714
H9    H     H_    0.116709 0.311717 0.499217 0.099691
H10   H     H_    0.215196 0.746768 0.643347 0.151172
H11   H     H_    0.052004 0.778832 0.682144 0.131712
H12   H     H_    0.888993 0.595924 0.303029 0.187937
H13   H     H_    0.169306 0.794587 0.812506 0.173179
H14   H     H_    0.058551 0.606994 0.856729 0.190573
H15   H     H_    0.210673 0.573032 0.809601 0.203063
H16   H     H_    0.255127 0.788391 0.296154 0.321450
H17   H     H_    0.860575 0.151298 0.334717 0.159875
H18   H     H_    0.010168 0.134738 0.417971 0.153730
H19   H     H_    0.873773 0.067534 0.494511 0.147402
H20   H     H_    0.930120 0.257099 0.620910 0.146818
H21   H     H_    0.783134 0.269450 0.535818 0.169102
H22   H     H_    0.491586 0.888486 0.286524 0.166405
H23   H     H_    0.522236 0.907548 0.603067 0.104825
H24   H     H_    0.518954 0.111992 0.287501 0.150364
H25   H     H_    0.475196 0.092287 0.602135 0.101374
H26   H     H_    0.360326 0.371737 0.870344 0.131556
H27   H     H_    0.561155 0.556013 0.893914 0.208221
H28   H     H_    0.360577 0.371512 0.129531 0.147443
N1    N     N_2   0.498630 0.498660 0.846910 -0.350894
N2    N     N_2   0.498590 0.498630 0.153040 -0.323394
O1    O     O_R   0.500020 0.321960 0.617040 -0.500411
O2    O     O_2   0.040010 0.734329 0.166039 -0.318140
O3    O     O_3   0.266476 0.709971 0.246569 -0.472224
O4    O     O_R   0.499980 0.321920 0.382900 -0.506072
O5    O     O_R   0.317710 0.500000 0.617070 -0.523946
O6    O     O_R   0.317670 0.499960 0.382930 -0.418969
O7    O     O_R   0.500020 0.678080 0.617100 -0.501779
O8    O     O_R   0.499980 0.678040 0.382960 -0.463652
O9    O     O_R   0.682330 0.500040 0.617070 -0.507136
O10   O     O_R   0.682290 0.500000 0.382930 -0.512797
O11   O     O_2   0.129821 0.530015 0.158874 -0.305626
S1    S     S_3+6 0.124279 0.646712 0.240476 -0.030834

loop_
_geom_bond_atom_site_label_1
_geom_bond_atom_site_label_2
_ccdc_geom_bond_type
C12   C17   S    
C6    C10   S    
C11   H14   S    
C9    H9    S    
Cu1   Cu2   S    
C8    C10   S    
Cu1   O1    S    
C6    C7    S    
C7    H5    S    
C14   H21   S    
C9    C10   S    
C1    C21   S    
C13   H13   S    
Cu2   O6    S    
O3    S1    S    
C22   H26   S    
C8    H6    S    
C3    O6    A    
C21   H25   S    
C1    O1    A    
H3    N2    S    
C17   H1    S    
C13   H10   S    
C8    C16   S    
C3    C10   S    
C6    H2    S    
C2    C22   S    
C16   H12   S    
C16   H7    S    
Cu1   O5    S    
C11   C13   S    
C14   C17   S    
C15   H17   S    
C20   H24   S    
C12   C16   S    
C2    H28   S    
O2    S1    D    
C18   H22   S    
C9    C17   S    
Cu1   N1    S    
C22   N1    D    
C18   C20   S    
C7    C12   S    
C11   H15   S    
C19   H23   S    
Cu1   O9    S    
C15   H19   S    
C15   H18   S    
Cu2   O4    S    
C4    O8    A    
Cu1   O7    S    
C20   C21   D    
C5    O9    A    
C5    C12   S    
C14   H20   S    
O11   S1    D    
C2    N2    D    
C6    C11   S    
C14   C15   S    
C18   C19   D    
Cu2   O8    S    
H16   O3    S    
C9    H8    S    
C1    O4    A    
C4    C19   S    
Cu2   N2    S    
C4    O7    A    
C8    S1    S    
C13   H11   S    
C7    H4    S    
Cu2   O10   S    
C5    O10   A    
H27   N1    S    
C3    O5    A    
