data_mof_unit_672.cif
_audit_creation_date              2013-03-05T16:18:22-0500
_audit_creation_method            fapswitch 2.2
_symmetry_space_group_name_H-M    P1
_symmetry_Int_Tables_number       1
_space_group_crystal_system       triclinic
_cell_length_a                    10.734588
_cell_length_b                    9.99898
_cell_length_c                    10.599474
_cell_angle_alpha                 91.699229
_cell_angle_beta                  90.437199
_cell_angle_gamma                 91.520521
_cell_volume                      1136.75275839

loop_
_atom_site_label
_atom_site_type_symbol
_atom_site_description
_atom_site_fract_x
_atom_site_fract_y
_atom_site_fract_z
_atom_type_partial_charge
O1    O     O_R   0.314910 0.616040 0.499970 -0.633216
O2    O     O_R   0.314910 0.383960 0.499970 -0.649060
C1    C     C_R   0.258748 0.498511 0.494983 0.844344
O3    O     O_R   0.500080 0.616020 0.313900 -0.619001
O4    O     O_R   0.500080 0.383980 0.313900 -0.607796
C2    C     C_R   0.494126 0.498317 0.258786 0.860998
Zn1   Zn    Zn3+2 0.500150 0.654960 0.499940 0.957714
Zn2   Zn    Zn3+2 0.500150 0.345040 0.499940 0.939541
O5    O     O_R   0.685320 0.616040 0.499930 -0.605728
O6    O     O_R   0.685320 0.383960 0.499930 -0.642576
O7    O     O_R   0.500150 0.616060 0.686000 -0.591394
O8    O     O_R   0.500150 0.383940 0.686000 -0.611849
C3    C     C_R   0.741828 0.501670 0.502283 0.932648
C4    C     C_R   0.492706 0.501874 0.742356 0.926550
C5    C     C_3   0.413130 0.599268 0.051390 -0.251307
C6    C     C_3   0.436273 0.381773 0.038007 -0.296344
C7    C     C_3   0.368761 0.485329 0.961209 0.332124
H1    H     H_    0.354606 0.678637 0.093482 0.146168
H2    H     H_    0.387913 0.288376 0.066430 0.153108
C8    C     C_3   0.483225 0.506582 0.879228 -0.070568
C9    C     C_3   0.529703 0.621452 0.969328 -0.163520
C10   C     C_3   0.553513 0.403619 0.955974 -0.139116
C11   C     C_3   0.601012 0.518564 0.045607 -0.092059
C12   C     C_3   0.484754 0.496476 0.124703 -0.039719
H3    H     H_    0.557580 0.726836 0.958090 0.142710
H4    H     H_    0.614106 0.324345 0.919422 0.181499
H5    H     H_    0.698061 0.529459 0.082099 0.140284
C13   C     C_3   0.078298 0.643880 0.489165 -0.458573
C14   C     C_3   0.074735 0.435854 0.615912 -0.454898
H6    H     H_    0.109414 0.694502 0.402552 0.170371
H7    H     H_    0.116945 0.337717 0.633701 0.176823
H8    H     H_    0.123186 0.703705 0.567449 0.232648
H9    H     H_    0.104974 0.503659 0.695072 0.275205
C15   C     C_3   0.937888 0.649443 0.501724 0.201755
C16   C     C_3   0.931984 0.419980 0.614957 0.180623
H10   H     H_    0.902037 0.695385 0.415206 0.097055
H11   H     H_    0.909843 0.312247 0.593649 0.087119
H12   H     H_    0.875823 0.474609 0.296895 0.178448
H13   H     H_    0.877989 0.325431 0.376485 0.183782
C17   C     C_3   0.065824 0.420189 0.370924 0.451967
C18   C     C_3   0.121795 0.497090 0.491325 -0.060096
C19   C     C_3   0.879134 0.503161 0.504035 -0.128278
C20   C     C_3   0.919714 0.428500 0.379186 -0.560233
C21   C     C_3   0.395608 0.073418 0.419374 -0.347243
C22   C     C_3   0.406087 0.914479 0.406991 -0.332374
H14   H     H_    0.386995 0.118854 0.326656 0.200981
H15   H     H_    0.426280 0.883464 0.309736 0.167702
H16   H     H_    0.303111 0.096584 0.458881 0.162558
H17   H     H_    0.313563 0.864521 0.417521 0.165924
C23   C     C_3   0.616385 0.083967 0.440603 0.125678
C24   C     C_3   0.622627 0.928092 0.459503 0.101475
C25   C     C_3   0.477868 0.084220 0.631392 0.342282
C26   C     C_3   0.464145 0.919345 0.628108 0.388031
N1    N     N_3   0.499750 0.138610 0.497240 -0.110079
N2    N     N_3   0.499750 0.861390 0.497240 -0.095775
H18   H     H_    0.692973 0.131195 0.494413 0.108857
H19   H     H_    0.681142 0.931567 0.542874 0.109648
N3    N     N_R   0.239372 0.471373 0.919766 0.173540
O9    O     O_R   0.177694 0.360143 0.938054 -0.405684
O10   O     O_R   0.177508 0.578659 0.899847 -0.442829
N4    N     N_2   0.650014 0.131123 0.314638 -0.244061
H20   H     H_    0.745039 0.134456 0.299463 0.201611
C27   C     C_3   0.580173 0.110552 0.197771 -0.758028
H21   H     H_    0.517509 0.192764 0.185218 0.260863
H22   H     H_    0.525365 0.016876 0.192815 0.218372
H23   H     H_    0.644475 0.111310 0.115945 0.209976
N5    N     N_2   0.700724 0.851933 0.371507 -0.249841
H24   H     H_    0.793622 0.878223 0.383427 0.229166
C28   C     C_3   0.677283 0.822343 0.238887 -0.702586
H25   H     H_    0.721576 0.900015 0.180362 0.218567
H26   H     H_    0.578581 0.808482 0.214127 0.247882
H27   H     H_    0.723338 0.727492 0.213328 0.215100
N6    N     N_2   0.573059 0.129964 0.727439 -0.297057
H28   H     H_    0.549193 0.116421 0.820047 0.220467
C29   C     C_3   0.702982 0.171724 0.719110 -0.762861
H29   H     H_    0.744610 0.181309 0.815336 0.241226
H30   H     H_    0.710068 0.270922 0.680291 0.306163
H31   H     H_    0.762131 0.099447 0.669452 0.222901
N7    N     N_2   0.536753 0.865978 0.735093 -0.306189
H32   H     H_    0.510901 0.901765 0.822598 0.185646
C30   C     C_3   0.666210 0.828835 0.739717 -0.601335
H33   H     H_    0.729199 0.915703 0.755718 0.239419
H34   H     H_    0.689268 0.768128 0.657882 0.308307
H35   H     H_    0.685407 0.764064 0.818966 0.243484
N8    N     N_2   0.358517 0.137401 0.676694 -0.330245
H36   H     H_    0.330491 0.224148 0.639423 0.290060
C31   C     C_3   0.317858 0.128003 0.806239 -0.785959
H37   H     H_    0.214509 0.127024 0.808799 0.288469
H38   H     H_    0.354486 0.215772 0.860521 0.264765
H39   H     H_    0.350321 0.037745 0.851879 0.225345
N9    N     N_2   0.331288 0.880520 0.650085 -0.302638
H40   H     H_    0.261533 0.927847 0.602934 0.222480
C32   C     C_3   0.285170 0.794638 0.749014 -0.597030
H41   H     H_    0.185456 0.815040 0.766311 0.260320
H42   H     H_    0.332956 0.811232 0.840879 0.206754
H43   H     H_    0.290693 0.688612 0.719413 0.266266
N10   N     N_R   0.910868 0.739258 0.609789 0.201832
O11   O     O_R   0.903485 0.866114 0.587889 -0.508945
O12   O     O_R   0.944745 0.708180 0.723003 -0.343488
N11   N     N_R   0.881535 0.449159 0.741546 0.242419
O13   O     O_R   0.779401 0.514461 0.757535 -0.429447
O14   O     O_R   0.926886 0.387966 0.837573 -0.349265
N12   N     N_2   0.118786 0.481057 0.257669 -0.301636
H44   H     H_    0.212025 0.467694 0.239703 0.218143
C33   C     C_3   0.053061 0.567912 0.174178 -0.655707
H45   H     H_    0.121549 0.630322 0.123034 0.260530
H46   H     H_    0.993495 0.638660 0.226333 0.186430
H47   H     H_    0.996153 0.506660 0.105042 0.301819
N13   N     N_2   0.100826 0.279197 0.371793 -0.314226
H48   H     H_    0.069881 0.227202 0.448515 0.215825
C34   C     C_3   0.086505 0.200352 0.255142 -0.751493
H49   H     H_    0.109991 0.094827 0.272172 0.216032
H50   H     H_    0.151296 0.237976 0.182407 0.278772
H51   H     H_    0.989096 0.202520 0.219415 0.245775

loop_
_geom_bond_atom_site_label_1
_geom_bond_atom_site_label_2
_geom_bond_distance
_ccdc_geom_bond_type
C5    H1    1.110531 S    
C31   H37   1.109730 S    
C27   H22   1.092516 S    
C32   H41   1.110550 S    
N6    H28   1.028295 S    
C34   H49   1.110939 S    
C15   C19   1.578350 S    
Zn1   N2    2.065255 S    
C15   N10   1.469882 S    
C30   H33   1.094878 S    
C34   H50   1.109555 S    
N8    H36   1.015527 S    
C21   C22   1.597767 S    
Zn1   O7    2.021414 S    
C33   H46   1.105031 S    
C23   N1    1.501601 S    
C25   N8    1.478237 S    
C26   N7    1.490853 S    
N13   C34   1.451491 S    
O4    C2    1.302039 A    
O7    C4    1.305034 A    
N3    O10   1.298263 A    
C14   H9    1.104294 S    
C13   C18   1.552752 S    
C7    C8    1.524270 S    
N4    C27   1.449607 S    
C28   H26   1.093832 S    
C16   C19   1.571231 S    
O5    C3    1.309440 A    
N10   O12   1.300103 A    
C5    C12   1.526959 S    
C17   C20   1.575798 S    
C25   N1    1.554683 S    
C6    C7    1.529975 S    
C26   N9    1.489958 S    
C11   C12   1.523630 S    
C24   H19   1.079449 S    
C11   H5    1.110008 S    
C24   N2    1.523769 S    
C7    N3    1.455450 S    
C22   H15   1.092624 S    
C27   H23   1.112654 S    
C13   C15   1.516470 S    
C6    C12   1.526175 S    
N6    C29   1.449272 S    
N4    H20   1.033683 S    
O3    Zn1   1.998630 S    
C3    C19   1.473565 S    
C30   H34   1.078033 S    
C21   H14   1.099135 S    
N10   O11   1.300615 A    
C26   N2    1.542137 S    
C33   H47   1.109941 S    
N8    C31   1.448920 S    
N5    H24   1.030394 S    
C4    C8    1.454571 S    
C13   H8    1.108018 S    
O3    C2    1.298122 A    
C25   N6    1.490468 S    
Zn2   N1    2.063330 S    
N9    H40   1.030292 S    
N7    C30   1.448771 S    
H13   C20   1.112242 S    
N3    O9    1.299447 A    
C23   H18   1.086508 S    
C27   H21   1.086463 S    
N5    C28   1.446662 S    
C28   H27   1.108601 S    
C29   H29   1.110911 S    
N9    C32   1.456310 S    
C22   H17   1.107757 S    
Zn2   O8    1.998782 S    
C2    C12   1.423534 S    
N11   O14   1.300982 A    
C23   C24   1.580408 S    
N12   C33   1.450421 S    
C24   N5    1.468450 S    
C29   H30   1.086084 S    
Zn2   O6    2.015301 S    
C17   C18   1.576854 S    
O8    C4    1.310619 A    
C32   H43   1.099894 S    
C9    C11   1.542633 S    
C19   C20   1.570274 S    
C16   N11   1.474792 S    
C30   H35   1.097367 S    
C25   C26   1.650559 S    
C16   H11   1.113134 S    
Zn1   O5    2.035568 S    
C9    H3    1.097884 S    
C1    C18   1.470026 S    
C6    C10   1.549527 S    
C14   C18   1.554255 S    
O1    Zn1   2.016043 S    
C23   N4    1.473416 S    
O2    Zn2   2.036307 S    
C8    C10   1.540275 S    
O6    C3    1.309199 A    
O4    Zn2   2.021292 S    
C5    C7    1.529095 S    
C17   N13   1.468859 S    
C33   H45   1.107070 S    
C14   C16   1.536302 S    
C13   H6    1.110795 S    
O2    C1    1.310700 A    
H12   C20   1.106545 S    
C14   H7    1.112217 S    
N13   H48   1.030526 S    
C17   N12   1.473129 S    
C6    H2    1.107114 S    
N11   O13   1.300516 A    
C34   H51   1.110356 S    
C15   H10   1.108633 S    
C28   H25   1.107943 S    
C29   H31   1.099722 S    
N7    H32   1.027053 S    
C21   N1    1.507045 S    
C5    C9    1.544350 S    
C8    C9    1.541902 S    
C22   N2    1.500503 S    
C32   H42   1.103211 S    
C10   H4    1.102030 S    
C31   H39   1.099982 S    
N12   H44   1.031688 S    
C31   H38   1.097320 S    
C10   C11   1.542826 S    
O1    C1    1.305951 A    
C21   H16   1.108015 S    
