data_mof_unit_4473.cif
_audit_creation_date              2012-12-11T16:31:29-0500
_audit_creation_method            fapswitch 2.2
_symmetry_space_group_name_H-M    P1
_symmetry_Int_Tables_number       1
_space_group_crystal_system       triclinic
_cell_length_a                    7.022472
_cell_length_b                    18.504175
_cell_length_c                    20.086943
_cell_angle_alpha                 68.490363
_cell_angle_beta                  91.357211
_cell_angle_gamma                 91.908854
_cell_volume                      2426.88159486

loop_
_atom_site_label
_atom_site_type_symbol
_atom_type_description
_atom_site_fract_x
_atom_site_fract_y
_atom_site_fract_z
_atom_type_partial_charge
O1    O     O_R   0.488990 0.443920 0.942160 -0.531150
O2    O     O_R   0.823840 0.406530 0.087600 -0.546011
O3    O     O_R   0.999650 0.556080 0.057840 -0.539289
C1    C     C_R   0.653871 0.383164 0.114897 0.904480
O4    O     O_R   0.818390 0.434590 0.944530 -0.538500
O5    O     O_R   0.994160 0.584350 0.913750 -0.537947
C2    C     C_R   0.647240 0.421857 0.923345 0.763008
O6    O     O_R   0.494480 0.415650 0.086250 -0.509855
O7    O     O_3   0.662600 0.549100 0.990070 -0.379513
V1    V     V_3+5 0.935320 0.490890 0.001840 1.484349
O8    O     O_R   0.324240 0.593470 0.912400 -0.536390
C3    C     C_R   0.155394 0.617464 0.885783 0.862569
O9    O     O_R   0.329690 0.565410 0.055470 -0.523489
C4    C     C_R   0.164151 0.578629 0.076755 0.761393
V2    V     V_3+5 0.435990 0.509110 0.998160 1.517352
O10   O     O_3   0.158840 0.450900 0.009930 -0.369752
C5    C     C_3   0.932998 0.715025 0.225181 0.403266
C6    C     C_3   0.292435 0.694281 0.261547 0.405292
C7    C     C_3   0.256956 0.736869 0.315915 0.512147
C8    C     C_1   0.102343 0.884845 0.370347 -0.169346
C9    C     C_3   0.143380 0.721979 0.196473 -0.024244
C10   C     C_3   0.912547 0.769299 0.271589 0.488806
C11   C     C_3   0.115064 0.805075 0.280783 -0.055461
C12   C     C_3   0.198614 0.856761 0.205654 0.021893
C13   C     C_3   0.190863 0.811847 0.151562 0.428447
C14   C     C_1   0.104858 0.850654 0.328942 0.149265
C15   C     C_1   0.157988 0.672126 0.151808 0.082309
C16   C     C_1   0.162491 0.629366 0.117875 -0.187213
H1    H     H_    0.351416 0.869375 0.214926 0.205382
C17   C     C_R   0.128174 0.778200 0.879153 0.161985
C18   C     C_R   0.090977 0.851880 0.877612 -0.254387
C19   C     C_R   0.063254 0.913005 0.814064 0.138022
C20   C     C_R   0.082690 0.902817 0.748570 0.351850
C21   C     C_R   0.110342 0.826079 0.747643 -0.056865
C22   C     C_R   0.129359 0.762063 0.814633 -0.002735
C23   C     C_R   0.117706 0.812409 0.681896 -0.116101
C24   C     C_R   0.128335 0.734101 0.682910 -0.060193
C25   C     C_R   0.136828 0.669879 0.750422 -0.041828
C26   C     C_R   0.144895 0.684479 0.815821 -0.107789
C27   C     C_R   0.128596 0.716333 0.618675 0.090106
C28   C     C_R   0.121331 0.639709 0.621344 0.148353
C29   C     C_R   0.117166 0.577987 0.686692 0.340682
C30   C     C_R   0.134015 0.591869 0.750377 0.086148
H2    H     H_    0.082135 0.861717 0.927418 0.135273
C31   C     C_R   0.583767 0.223605 0.116932 0.304857
C32   C     C_R   0.577438 0.147739 0.115915 0.063785
C33   C     C_R   0.586645 0.083100 0.180358 0.305646
C34   C     C_R   0.600750 0.094038 0.245778 0.113088
C35   C     C_R   0.613311 0.170534 0.248557 -0.069653
C36   C     C_R   0.613687 0.236517 0.182549 -0.067371
C37   C     C_R   0.629419 0.182493 0.315114 -0.071145
C38   C     C_R   0.661076 0.258773 0.315638 -0.094402
C39   C     C_R   0.645094 0.324658 0.250657 -0.091779
C40   C     C_R   0.636935 0.313720 0.183582 -0.093784
C41   C     C_R   0.710080 0.271017 0.380249 0.281228
C42   C     C_R   0.695122 0.344626 0.383977 0.244898
C43   C     C_R   0.643547 0.407598 0.322480 0.064135
C44   C     C_R   0.633444 0.399838 0.255178 0.312914
O11   O     O_R   0.770890 0.084490 0.414040 -0.511762
O12   O     O_R   0.445980 0.065450 0.555510 -0.536764
O13   O     O_R   0.270670 0.915620 0.586180 -0.538973
C45   C     C_R   0.617267 0.078989 0.576324 0.779179
O14   O     O_R   0.441480 0.093500 0.412450 -0.548425
O15   O     O_R   0.266140 0.943870 0.442100 -0.544605
C46   C     C_R   0.611402 0.115653 0.384835 0.868633
O16   O     O_R   0.775410 0.056240 0.558120 -0.512116
O17   O     O_3   0.602660 0.950990 0.510100 -0.383874
V3    V     V_3+5 0.329740 0.009100 0.498130 1.482114
O18   O     O_R   0.936120 0.934420 0.444240 -0.544780
C47   C     C_R   0.101461 0.925448 0.420007 0.688969
O19   O     O_R   0.940610 0.906370 0.587310 -0.530737
C48   C     C_R   0.109341 0.880869 0.612832 0.801075
V4    V     V_3+5 0.829110 0.990690 0.501470 1.512082
O20   O     O_3   0.106080 0.049010 0.489880 -0.357217
C49   C     C_3   0.842942 0.214439 0.740397 0.579681
C50   C     C_3   0.575316 0.296780 0.660429 0.410579
C51   C     C_3   0.558026 0.344644 0.712487 0.445716
C52   C     C_1   0.632019 0.376306 0.878165 -0.212877
C53   C     C_3   0.640021 0.210584 0.706235 -0.025548
C54   C     C_3   0.831861 0.263258 0.790589 -0.085294
C55   C     C_3   0.625702 0.293358 0.791435 -0.014912
C56   C     C_3   0.499958 0.216790 0.823063 -0.041554
C57   C     C_3   0.492193 0.171643 0.769484 0.467612
C58   C     C_1   0.624732 0.338639 0.839768 0.031836
C59   C     C_1   0.641566 0.163094 0.659534 0.071714
C60   C     C_1   0.633127 0.124804 0.621537 -0.169556
H3    H     H_    0.570282 0.180123 0.874107 0.091890
H4    H     H_    0.865231 0.223671 0.846333 0.131973
O21   O     O_3   0.843288 0.726741 0.340699 -0.619443
H5    H     H_    0.717648 0.703503 0.335508 0.356638
O22   O     O_3   0.806946 0.741170 0.165666 -0.604847
H6    H     H_    0.803125 0.703422 0.140990 0.301407
N1    N     N_3   0.774718 0.831131 0.237264 -0.513185
H7    H     H_    0.807952 0.864038 0.184282 0.308348
H8    H     H_    0.768561 0.868532 0.265464 0.260830
O23   O     O_3   0.100625 0.501772 0.691074 -0.651301
H9    H     H_    0.063385 0.499621 0.644002 0.328380
N2    N     N_3   0.161056 0.720428 0.948146 -0.687901
H10   H     H_    0.278162 0.738577 0.971791 0.235483
H11   H     H_    0.040979 0.717331 0.979012 0.216561
N3    N     N_3   0.009908 0.985971 0.816269 -0.639413
H12   H     H_    0.879462 0.977518 0.842476 0.260680
H13   H     H_    0.110799 0.002559 0.847331 0.221156
O24   O     O_3   0.069301 0.966910 0.685579 -0.644259
H14   H     H_    0.079889 0.015948 0.694719 0.320818
N4    N     N_3   0.134858 0.773606 0.548211 -0.686004
H15   H     H_    0.008028 0.803599 0.537295 0.236359
H16   H     H_    0.259192 0.807724 0.541842 0.240894
N5    N     N_3   0.122206 0.624153 0.556345 -0.660324
H17   H     H_    0.247082 0.648721 0.528883 0.265084
H18   H     H_    0.005065 0.650537 0.524683 0.287776
N6    N     N_3   0.884649 0.632238 0.265781 -0.694433
H19   H     H_    0.742468 0.620034 0.257178 0.258447
H20   H     H_    0.900856 0.616113 0.320863 0.243510
N7    N     N_3   0.145508 0.524425 0.814989 -0.648165
H21   H     H_    0.022332 0.489794 0.819072 0.246447
H22   H     H_    0.263438 0.492570 0.812282 0.255950
N8    N     N_3   0.588098 0.478574 0.328371 -0.681448
H23   H     H_    0.479606 0.465318 0.366114 0.253399
H24   H     H_    0.704522 0.502549 0.346870 0.221124
O25   O     O_3   0.557248 0.285933 0.053754 -0.657705
H25   H     H_    0.490404 0.269070 0.017775 0.314265
N9    N     N_3   0.564778 0.137960 0.048174 -0.707417
H26   H     H_    0.684082 0.108637 0.042221 0.236634
H27   H     H_    0.440537 0.105898 0.046465 0.217212
O26   O     O_3   0.581204 0.007243 0.182737 -0.655123
H28   H     H_    0.572191 0.005578 0.134222 0.285594
N10   N     N_3   0.608474 0.025363 0.309433 -0.655354
H29   H     H_    0.484917 0.991409 0.311733 0.253514
H30   H     H_    0.726356 0.993471 0.306785 0.252515
O27   O     O_3   0.778066 0.210661 0.439056 -0.647321
H31   H     H_    0.836509 0.229889 0.474965 0.331321
O28   O     O_3   0.720420 0.351401 0.449954 -0.644455
H32   H     H_    0.742798 0.406264 0.444235 0.297697
O29   O     O_3   0.597082 0.464261 0.194409 -0.646965
H33   H     H_    0.625530 0.512701 0.203361 0.321510
N11   N     N_3   0.979404 0.324755 0.774580 -0.583456
H34   H     H_    0.977841 0.353530 0.810600 0.255453
H35   H     H_    0.965931 0.364679 0.722677 0.312889
O30   O     O_3   0.474908 0.716610 0.233362 -0.582456
H36   H     H_    0.495155 0.688573 0.200534 0.345616
O31   O     O_3   0.980014 0.247693 0.686994 -0.605732
H37   H     H_    0.994062 0.212339 0.660431 0.334840
O32   O     O_3   0.395949 0.292868 0.627915 -0.627277
H38   H     H_    0.413671 0.274005 0.588184 0.325103
N12   N     N_3   0.708702 0.336425 0.601394 -0.614660
H39   H     H_    0.831122 0.358691 0.617992 0.281993
H40   H     H_    0.641832 0.385314 0.565352 0.263926
O33   O     O_3   0.670049 0.413942 0.686458 -0.670770
H41   H     H_    0.637093 0.447873 0.712778 0.316739
N13   N     N_3   0.360992 0.367812 0.713847 -0.591290
H42   H     H_    0.270918 0.320287 0.720490 0.353949
H43   H     H_    0.327265 0.408963 0.663517 0.272031
N14   N     N_3   0.530564 0.088412 0.808635 -0.657857
H44   H     H_    0.634657 0.080224 0.848469 0.230875
H45   H     H_    0.408335 0.061322 0.836573 0.218893
O34   O     O_3   0.307776 0.176158 0.739776 -0.600504
H46   H     H_    0.295798 0.138889 0.714650 0.316956
O35   O     O_3   0.898496 0.138450 0.780748 -0.653453
H47   H     H_    0.016191 0.141608 0.807562 0.328722
N15   N     N_3   0.294445 0.608919 0.297499 -0.653271
H48   H     H_    0.182645 0.585390 0.332170 0.250592
H49   H     H_    0.415543 0.596161 0.330542 0.238503
N16   N     N_3   0.308735 0.230012 0.843624 -0.571605
H50   H     H_    0.245613 0.175676 0.871753 0.217973
H51   H     H_    0.319675 0.257108 0.880990 0.240899
O36   O     O_3   0.181265 0.684422 0.380884 -0.646229
H52   H     H_    0.286715 0.651951 0.408732 0.287935
O37   O     O_3   0.431568 0.768729 0.330718 -0.636665
H53   H     H_    0.420527 0.777496 0.376362 0.301636
N17   N     N_3   0.047525 0.845074 0.094580 -0.609537
H54   H     H_    0.048143 0.814710 0.059758 0.231506
H55   H     H_    0.086409 0.902427 0.063509 0.219399
O38   O     O_3   0.369256 0.819459 0.118265 -0.621010
H56   H     H_    0.401274 0.875740 0.094925 0.285532
O39   O     O_3   0.107973 0.928657 0.177752 -0.645281
H57   H     H_    0.196370 0.965755 0.142924 0.293809

loop_
_geom_bond_atom_site_label_1
_geom_bond_atom_site_label_2
_ccdc_geom_bond_type
N17   H54   S    
O14   C46   A    
N3    H12   S    
C20   O24   S    
C28   C29   A    
C7    C11   S    
O30   H36   S    
C5    O22   S    
C50   C53   S    
C53   C59   S    
C1    O6    A    
N10   H29   S    
C51   N13   S    
N8    H24   S    
N6    H20   S    
N15   H48   S    
N9    H26   S    
C57   N14   S    
C59   C60   T    
C45   C60   S    
O34   H46   S    
C8    C14   T    
C17   C22   A    
C29   O23   S    
O15   V3    S    
C27   N4    S    
C23   C24   A    
C21   C22   A    
C24   C27   A    
C17   N2    S    
N5    H18   S    
O35   H47   S    
O5    C3    A    
C17   C18   A    
O38   H56   S    
C6    N15   S    
N9    H27   S    
N4    H15   S    
V3    O20   S    
V2    O10   S    
C6    C9    S    
C42   C43   A    
O12   C45   A    
C6    C7    S    
V4    O20   S    
C11   C14   S    
C35   C36   A    
N8    H23   S    
O24   H14   S    
C30   N7    S    
C12   H1    S    
O8    V2    S    
C13   O38   S    
C23   C48   S    
C33   C34   A    
N7    H22   S    
C11   C12   S    
O18   V4    S    
O17   V4    S    
O15   C47   A    
C49   C54   S    
O11   V4    S    
N14   H45   S    
C38   C41   A    
C13   N17   S    
C9    C15   S    
C50   N12   S    
N1    H8    S    
C28   N5    S    
O9    C4    A    
C8    C47   S    
C7    O36   S    
N6    H19   S    
N15   H49   S    
C42   O28   S    
N12   H40   S    
C37   C46   S    
C18   H2    S    
C45   O16   A    
O17   V3    S    
O37   H53   S    
O29   H33   S    
C12   C13   S    
C51   O33   S    
O36   H52   S    
O4    C2    A    
O32   H38   S    
C35   C37   A    
C39   C40   A    
O16   V4    S    
C55   C56   S    
C37   C38   A    
C22   C26   A    
C24   C25   A    
C49   O31   S    
C34   N10   S    
N11   H35   S    
C18   C19   A    
C57   O34   S    
C51   C55   S    
N13   H42   S    
O23   H9    S    
C41   C42   A    
C20   C21   A    
N14   H44   S    
N1    H7    S    
C36   C40   A    
C50   C51   S    
C6    O30   S    
O25   H25   S    
O3    C4    A    
C2    C52   S    
O1    V2    S    
C50   O32   S    
O13   C48   A    
C27   C28   A    
N2    H10   S    
O6    V2    S    
N2    H11   S    
O9    V2    S    
O28   H32   S    
C10   N1    S    
C56   H3    S    
C32   N9    S    
C31   C32   A    
C29   C30   A    
O27   H31   S    
O2    V1    S    
C5    N6    S    
O22   H6    S    
C55   C58   S    
C38   C39   A    
C33   O26   S    
O19   V4    S    
N12   H39   S    
O7    V1    S    
C49   O35   S    
C9    C13   S    
C32   C33   A    
N16   H50   S    
C1    C40   S    
C10   C11   S    
C7    O37   S    
N7    H21   S    
C54   C55   S    
N10   H30   S    
O5    V1    S    
C39   C44   A    
C44   O29   S    
N17   H55   S    
N11   H34   S    
O14   V3    S    
C41   O27   S    
C5    C10   S    
C31   O25   S    
C19   C20   A    
C3    C26   S    
O39   H57   S    
O7    V2    S    
C25   C30   A    
C54   H4    S    
O3    V1    S    
V1    O10   S    
N5    H17   S    
O11   C46   A    
C53   C57   S    
O13   V3    S    
C43   C44   A    
C25   C26   A    
C56   N16   S    
C31   C36   A    
O26   H28   S    
C34   C35   A    
O2    C1    A    
N16   H51   S    
C10   O21   S    
C21   C23   A    
N13   H43   S    
O18   C47   A    
N4    H16   S    
C5    C9    S    
C52   C58   T    
O4    V1    S    
O19   C48   A    
O12   V3    S    
N3    H13   S    
C56   C57   S    
C15   C16   T    
O31   H37   S    
C19   N3    S    
O1    C2    A    
C4    C16   S    
O21   H5    S    
O33   H41   S    
C49   C53   S    
C54   N11   S    
O8    C3    A    
C43   N8    S    
C12   O39   S    
