data_mof_unit_1552.cif
_audit_creation_date              2013-03-05T16:48:30-0500
_audit_creation_method            fapswitch 2.2
_symmetry_space_group_name_H-M    P1
_symmetry_Int_Tables_number       1
_space_group_crystal_system       triclinic
_cell_length_a                    10.855995
_cell_length_b                    14.669507
_cell_length_c                    14.864529
_cell_angle_alpha                 64.72943
_cell_angle_beta                  103.233384
_cell_angle_gamma                 102.737633
_cell_volume                      2063.46304128

loop_
_atom_site_label
_atom_site_type_symbol
_atom_site_description
_atom_site_fract_x
_atom_site_fract_y
_atom_site_fract_z
_atom_type_partial_charge
O1    O     O_R   0.455540 0.022090 0.338120 -0.598855
O2    O     O_R   0.544460 0.977910 0.661880 -0.598777
O3    O     O_R   0.512510 0.160150 0.379180 -0.586053
O4    O     O_R   0.487490 0.839850 0.620820 -0.584505
C1    C     C_R   0.481196 0.120097 0.312749 0.823170
C2    C     C_R   0.524048 0.879966 0.687362 0.822079
O5    O     O_R   0.291160 0.930970 0.479480 -0.576240
O6    O     O_R   0.708840 0.069030 0.520520 -0.577507
O7    O     O_R   0.348130 0.069020 0.520540 -0.576333
O8    O     O_R   0.651870 0.930980 0.479460 -0.581289
C3    C     C_R   0.262803 0.999930 0.501453 0.800423
C4    C     C_R   0.737069 0.000133 0.498286 0.797770
Cu1   Cu    Cu3+1 0.466270 0.918260 0.475690 0.957245
Cu2   Cu    Cu3+1 0.533730 0.081740 0.524310 0.959207
H1    H     H_    0.433418 0.240782 0.762610 0.187366
H2    H     H_    0.573034 0.755221 0.236170 0.150862
C5    C     C_R   0.355500 0.097655 0.750197 -0.042425
C6    C     C_R   0.649919 0.898925 0.247342 -0.030131
H3    H     H_    0.420663 0.054503 0.813387 0.199950
H4    H     H_    0.589002 0.941529 0.180485 0.184501
C7    C     C_R   0.264529 0.048368 0.696718 -0.167640
C8    C     C_R   0.737722 0.949101 0.301773 -0.150429
H5    H     H_    0.259338 0.966987 0.720165 0.135233
H6    H     H_    0.743895 0.030839 0.276183 0.138702
C9    C     C_R   0.183885 0.104341 0.611068 0.057642
C10   C     C_R   0.815638 0.893795 0.389822 0.053867
C11   C     C_R   0.192466 0.210418 0.582015 0.277725
C12   C     C_R   0.806374 0.787329 0.421099 0.273454
C13   C     C_R   0.280898 0.258314 0.638436 -0.190843
C14   C     C_R   0.720074 0.738373 0.364537 -0.158820
H7    H     H_    0.288178 0.339570 0.616504 0.177615
H8    H     H_    0.712702 0.656881 0.388053 0.171229
C15   C     C_R   0.362988 0.202367 0.721516 -0.125908
C16   C     C_R   0.641136 0.793810 0.278591 -0.095187
C17   C     C_R   0.962856 0.049024 0.549401 -0.161245
C18   C     C_R   0.036724 0.950427 0.450482 -0.156976
H9    H     H_    0.934746 0.085763 0.589805 0.172999
H10   H     H_    0.064882 0.913366 0.410409 0.175989
C19   C     C_R   0.870303 0.999098 0.497049 -0.086490
C20   C     C_R   0.129309 0.000631 0.502641 -0.090455
C21   C     C_R   0.907435 0.948174 0.447427 0.041909
C22   C     C_R   0.092037 0.051166 0.552522 0.041869
C23   C     C_R   0.486899 0.187985 0.206819 -0.116635
C24   C     C_R   0.549725 0.812551 0.794277 -0.121594
C25   C     C_R   0.505624 0.213087 0.037921 0.357240
C26   C     C_R   0.624975 0.789202 0.968817 0.341753
C27   C     C_R   0.484413 0.148626 0.135948 -0.253445
C28   C     C_R   0.595609 0.852875 0.867444 -0.247170
C29   C     C_R   0.508396 0.293110 0.179215 -0.227872
C30   C     C_R   0.535954 0.707605 0.822203 -0.235108
C31   C     C_R   0.531287 0.360764 0.081768 0.049701
C32   C     C_R   0.566225 0.640973 0.923004 0.050032
C33   C     C_R   0.523874 0.320057 0.009004 0.035447
C34   C     C_R   0.603979 0.682173 0.997734 0.033908
C35   C     C_R   0.558381 0.467927 0.054518 0.096917
C36   C     C_R   0.555223 0.534047 0.951451 0.099787
C37   C     C_R   0.544206 0.491443 0.880301 -0.220230
C38   C     C_R   0.591342 0.510948 0.127183 -0.223315
C39   C     C_R   0.531091 0.386952 0.908850 -0.165910
C40   C     C_R   0.615703 0.615582 0.099301 -0.163300
H11   H     H_    0.522367 0.359375 0.850538 0.176057
H12   H     H_    0.639256 0.643392 0.158695 0.183428
H13   H     H_    0.496992 0.678944 0.764255 0.162383
H14   H     H_    0.503604 0.320666 0.234737 0.155235
H15   H     H_    0.611478 0.934588 0.845510 0.193935
H16   H     H_    0.470623 0.067104 0.157918 0.179743
H17   H     H_    0.550856 0.537467 0.801979 0.138172
H18   H     H_    0.604565 0.465476 0.207038 0.150821
N1    N     N_R   0.584450 0.204570 0.560790 -0.186041
N2    N     N_R   0.415550 0.795430 0.439210 -0.185564
C41   C     C_R   0.705581 0.279974 0.673001 -0.246037
C42   C     C_R   0.293080 0.719321 0.327987 -0.282439
C43   C     C_R   0.675293 0.199938 0.641651 0.100617
C44   C     C_R   0.323938 0.799664 0.358897 0.098875
C45   C     C_R   0.521930 0.286987 0.507237 0.030117
C46   C     C_R   0.478189 0.713058 0.492751 0.028371
C47   C     C_R   0.548882 0.371597 0.534709 -0.023498
C48   C     C_R   0.450615 0.628117 0.465751 -0.020047
C49   C     C_R   0.641929 0.365546 0.620487 0.132164
C50   C     C_R   0.356971 0.633864 0.380378 0.136331
C51   C     C_R   0.485012 0.459828 0.482350 0.052703
C52   C     C_R   0.514303 0.539788 0.518231 0.054352
C53   C     C_R   0.606317 0.528838 0.605117 -0.210563
C54   C     C_R   0.392741 0.470658 0.395611 -0.200953
C55   C     C_R   0.669210 0.443815 0.654512 -0.148569
C56   C     C_R   0.329322 0.555412 0.346594 -0.152048
H19   H     H_    0.739269 0.438897 0.720836 0.171306
H20   H     H_    0.258684 0.560065 0.280637 0.163645
H21   H     H_    0.551257 0.717395 0.553858 0.131889
H22   H     H_    0.449388 0.282897 0.445767 0.131433
H23   H     H_    0.276207 0.866469 0.317779 0.136418
H24   H     H_    0.722748 0.133001 0.682931 0.132730
H25   H     H_    0.776989 0.274398 0.738703 0.172258
H26   H     H_    0.221004 0.724556 0.262726 0.162034
H27   H     H_    0.632185 0.584790 0.637491 0.151002
H28   H     H_    0.366971 0.414822 0.363073 0.153121
N3    N     N_R   0.514353 0.168083 0.971106 0.093803
O9    O     O_R   0.442973 0.082637 0.976451 -0.381210
O10   O     O_R   0.612122 0.198181 0.923450 -0.391098
N4    N     N_R   0.680317 0.835001 0.039919 0.095199
O11   O     O_R   0.648010 0.920891 0.026079 -0.342723
O12   O     O_R   0.781729 0.804220 0.103903 -0.367216
Br1   Br    Br    0.090476 0.293661 0.463605 -0.542694
Br2   Br    Br    0.905717 0.705337 0.542115 -0.542341

loop_
_geom_bond_atom_site_label_1
_geom_bond_atom_site_label_2
_geom_bond_distance
_ccdc_geom_bond_type
C35   C36   1.418103 A    
C11   C13   1.398466 A    
C41   C49   1.400550 A    
C51   C52   1.432993 A    
C33   C39   1.399149 A    
C19   C21   1.415634 A    
C34   C40   1.399095 A    
O5    C3    1.300112 A    
O1    C1    1.302084 A    
C17   H9    1.084929 S    
C46   C48   1.418022 A    
C48   C50   1.416619 A    
C37   C39   1.387799 A    
Cu1   N2    2.025812 S    
C38   C40   1.387717 A    
C13   C15   1.395048 A    
C56   H20   1.084271 S    
C36   C37   1.413121 A    
C40   H12   1.081402 S    
C54   H28   1.076252 S    
C11   Br1   1.919368 S    
O4    Cu1   1.949550 S    
C17   C22   1.386311 A    
C12   Br2   1.918888 S    
C50   C56   1.392436 A    
C45   H22   1.074797 S    
H2    C16   1.082329 S    
C29   C31   1.404834 A    
N2    C44   1.355915 A    
C30   C32   1.405093 A    
N1    C43   1.356109 A    
C28   H15   1.083425 S    
C27   H16   1.081296 S    
C6    H4    1.080117 S    
C46   H21   1.074958 S    
C42   H26   1.083778 S    
C25   C27   1.396993 A    
C1    C23   1.467517 S    
C25   C33   1.418602 A    
C29   H14   1.077506 S    
C2    C24   1.469104 S    
Cu1   Cu2   2.696823 S    
C30   H13   1.077780 S    
C18   C21   1.387352 A    
O2    C2    1.300123 A    
C5    C15   1.396261 A    
C37   H17   1.078120 S    
N3    O10   1.301480 A    
C32   C34   1.422221 A    
N3    O9    1.301068 A    
C47   C49   1.416761 A    
C26   C28   1.398001 A    
C39   H11   1.081128 S    
C14   C16   1.395307 A    
C55   H19   1.084328 S    
C18   C20   1.399300 A    
C42   C44   1.389304 A    
C41   C43   1.389419 A    
C23   C29   1.394940 A    
C5    C7    1.395134 A    
C31   C33   1.422439 A    
C44   H23   1.081652 S    
C17   C19   1.398445 A    
O7    Cu2   1.972083 S    
C45   C47   1.418037 A    
C48   C52   1.432008 A    
C26   N4    1.437665 S    
C47   C51   1.431897 A    
O6    C4    1.301069 A    
C53   H27   1.076034 S    
C26   C34   1.418685 A    
N4    O12   1.301412 A    
O7    C3    1.294962 A    
O3    Cu2   1.949550 S    
O8    C4    1.293441 A    
O4    C2    1.302466 A    
C53   C55   1.387451 A    
C7    H5    1.083480 S    
N2    C46   1.359933 A    
Cu2   N1    2.025812 S    
C8    H6    1.083395 S    
O1    Cu1   1.955782 S    
C49   C55   1.392509 A    
C51   C54   1.412445 A    
C24   C30   1.395005 A    
C7    C9    1.405599 A    
O6    Cu2   1.966219 S    
C6    C8    1.396759 A    
C43   H24   1.081677 S    
C54   C56   1.387455 A    
O3    C1    1.299786 A    
O8    Cu1   1.972083 S    
C9    C22   1.483030 S    
C41   H25   1.083773 S    
C9    C11   1.413277 A    
C10   C12   1.413396 A    
C4    C19   1.454202 S    
C18   H10   1.084895 S    
C12   C14   1.399487 A    
C13   H7    1.082507 S    
C25   N3    1.435850 S    
C14   H8    1.082365 S    
C38   H18   1.078295 S    
C6    C16   1.395168 A    
C20   C22   1.414904 A    
N4    O11   1.301293 A    
C5    H3    1.081203 S    
N1    C45   1.359714 A    
C31   C35   1.424382 A    
C3    C20   1.455702 S    
O2    Cu2   1.955783 S    
C32   C36   1.423957 A    
O5    Cu1   1.966218 S    
C42   C50   1.400600 A    
C52   C53   1.412313 A    
C8    C10   1.405653 A    
C35   C38   1.413668 A    
C23   C27   1.394031 A    
H1    C15   1.079526 S    
C24   C28   1.397215 A    
C10   C21   1.484788 S    
