data_mof_unit_2769.cif
_audit_creation_date              2012-12-10T17:32:15-0500
_audit_creation_method            fapswitch 2.2
_symmetry_space_group_name_H-M    P1
_symmetry_Int_Tables_number       1
_space_group_crystal_system       triclinic
_cell_length_a                    12.344195
_cell_length_b                    13.244909
_cell_length_c                    15.061632
_cell_angle_alpha                 76.217894
_cell_angle_beta                  102.212033
_cell_angle_gamma                 116.900327
_cell_volume                      2117.49915466

loop_
_atom_site_label
_atom_site_type_symbol
_atom_type_description
_atom_site_fract_x
_atom_site_fract_y
_atom_site_fract_z
_atom_type_partial_charge
C1    C     C_R   0.854863 0.286863 0.505930 0.761126
C2    C     C_R   0.979407 0.584322 0.072394 0.012334
C3    C     C_R   0.047381 0.332326 0.086447 -0.016463
C4    C     C_R   0.041671 0.333386 0.992391 -0.223674
C5    C     C_R   0.019088 0.417726 0.925867 0.115737
C6    C     C_R   0.997766 0.501743 0.952105 0.018196
C7    C     C_R   0.974180 0.587357 0.884540 -0.083741
C8    C     C_R   0.935996 0.660415 0.912700 0.420833
C9    C     C_R   0.946862 0.662589 0.006227 -0.207610
C10   C     C_R   0.017661 0.418792 0.833121 -0.209742
C11   C     C_R   0.004038 0.507100 0.766718 -0.128422
C12   C     C_R   0.002503 0.503368 0.670618 0.825259
C13   C     C_R   0.990619 0.596580 0.792300 -0.035877
C14   C     C_R   0.269827 0.025796 0.391251 -0.188422
C15   C     C_R   0.228283 0.836010 0.477882 -0.158150
C16   C     C_R   0.819381 0.082092 0.541447 -0.173450
C17   C     C_R   0.742615 0.965816 0.545501 -0.104477
C18   C     C_R   0.617489 0.930400 0.519464 -0.090066
C19   C     C_R   0.567067 0.011079 0.488957 0.116452
C20   C     C_R   0.647989 0.127849 0.466721 0.074058
C21   C     C_R   0.438931 0.978636 0.473202 -0.034230
C22   C     C_R   0.395245 0.057343 0.414742 0.107908
C23   C     C_R   0.145301 0.713514 0.490247 0.892867
C24   C     C_R   0.477205 0.166949 0.379913 -0.187003
C25   C     C_R   0.601717 0.202307 0.406117 -0.191358
C26   C     C_R   0.352394 0.872575 0.514810 0.319642
C27   C     C_R   0.187127 0.914942 0.420571 -0.196166
C28   C     C_R   0.773290 0.164652 0.502931 -0.102638
C29   C     C_R   0.341853 0.319327 0.644027 -0.265638
C30   C     C_R   0.755529 0.653949 0.379982 0.620909
C31   C     C_R   0.674152 0.701871 0.375776 -0.263005
C32   C     C_R   0.577325 0.647258 0.426576 -0.268569
C33   C     C_R   0.559779 0.543227 0.484302 0.022711
C34   C     C_R   0.999984 0.500118 0.328750 0.814998
C35   C     C_R   0.656132 0.505884 0.500264 0.218567
C36   C     C_R   0.451511 0.478263 0.529249 0.000578
C37   C     C_R   0.445870 0.383109 0.597642 0.154240
C38   C     C_R   0.544130 0.352795 0.619234 -0.229080
C39   C     C_R   0.646509 0.412329 0.571519 -0.123594
C40   C     C_R   0.346512 0.502287 0.507228 0.104795
C41   C     C_R   0.243099 0.348850 0.621009 0.095416
C42   C     C_R   0.985227 0.586203 0.164909 -0.122127
C43   C     C_R   0.001227 0.500097 0.232058 -0.080210
C44   C     C_R   0.021371 0.415266 0.207096 -0.208297
C45   C     C_R   0.024717 0.415589 0.114118 0.049720
C46   C     C_R   0.000312 0.500174 0.046156 0.063450
Cu1   Cu    Cu3+1 0.098270 0.475420 0.521130 0.998625
Cu2   Cu    Cu3+1 0.901730 0.524580 0.478870 1.031692
H1    H     H_    0.978127 0.655801 0.183997 0.221353
H2    H     H_    0.444839 0.226364 0.333191 0.171977
H3    H     H_    0.235889 0.085498 0.347004 0.178741
H4    H     H_    0.915182 0.107279 0.567532 0.169099
H5    H     H_    0.561326 0.840007 0.520583 0.174645
H6    H     H_    0.779676 0.902768 0.570981 0.193175
H7    H     H_    0.660589 0.286467 0.373875 0.189081
H8    H     H_    0.162907 0.299517 0.656812 0.126614
H9    H     H_    0.541237 0.280983 0.672960 0.167554
H10   H     H_    0.336653 0.246701 0.697465 0.158146
H11   H     H_    0.031358 0.348503 0.260836 0.182567
H12   H     H_    0.341174 0.569700 0.452528 0.118056
H13   H     H_    0.516365 0.687789 0.418136 0.155548
H14   H     H_    0.679267 0.778343 0.327469 0.215690
H15   H     H_    0.716524 0.382739 0.594110 0.198141
H16   H     H_    0.058848 0.269917 0.970847 0.181594
H17   H     H_    0.029643 0.351792 0.812335 0.149123
H18   H     H_    0.922573 0.721401 0.027852 0.205844
H19   H     H_    0.091057 0.890971 0.397268 0.223562
N1    N     N_R   0.246280 0.438190 0.553160 -0.182930
N2    N     N_R   0.754320 0.561190 0.447410 -0.260260
O1    O     O_R   0.972510 0.318130 0.526570 -0.595313
O2    O     O_R   0.806530 0.359650 0.490890 -0.621375
O3    O     O_R   0.082980 0.479210 0.647590 -0.557301
O4    O     O_R   0.917000 0.520730 0.611900 -0.574091
O5    O     O_R   0.193470 0.640350 0.509110 -0.553569
O6    O     O_R   0.027490 0.681870 0.473430 -0.534357
O7    O     O_R   0.083000 0.479270 0.388100 -0.601174
O8    O     O_R   0.917020 0.520790 0.352410 -0.505386
S1    S     S_3+6 0.387997 0.804725 0.627837 0.005232
O9    O     O_2   0.280508 0.758402 0.680916 -0.284748
O10   O     O_2   0.415071 0.706614 0.622560 -0.301806
O11   O     O_3   0.509202 0.899960 0.684829 -0.520335
H20   H     H_    0.529255 0.853771 0.742410 0.383397
S2    S     S_3+6 0.830933 0.701136 0.280372 -0.019600
O12   O     O_2   0.966266 0.739250 0.303058 -0.359865
O13   O     O_2   0.776178 0.603378 0.226835 -0.306559
O14   O     O_3   0.807370 0.812347 0.213020 -0.545565
H21   H     H_    0.845135 0.827172 0.156657 0.389308
C47   C     C_2   0.080449 0.244675 0.152341 0.838182
O15   O     O_2   0.152578 0.270340 0.221484 -0.614199
O16   O     O_R   0.033315 0.133470 0.132616 -0.739811
H22   H     H_    0.063391 0.081671 0.181747 0.343484
C48   C     C_2   0.025067 0.709664 0.730578 0.967289
O17   O     O_2   0.970595 0.718892 0.653432 -0.552829
O18   O     O_R   0.120791 0.806625 0.762360 -0.699441
H23   H     H_    0.137264 0.878778 0.714746 0.351687
S3    S     S_3+6 0.850436 0.731636 0.837926 0.015300
O19   O     O_2   0.935173 0.851758 0.800626 -0.287692
O20   O     O_2   0.777383 0.667202 0.759758 -0.275173
O21   O     O_3   0.753296 0.738594 0.897070 -0.512305
H24   H     H_    0.709073 0.778750 0.851557 0.383187

loop_
_geom_bond_atom_site_label_1
_geom_bond_atom_site_label_2
_ccdc_geom_bond_type
C16   C28   A    
C21   C26   A    
C40   H12   S    
C19   C20   A    
C8    S3    S    
Cu2   N2    S    
O11   H20   S    
C7    C8    A    
Cu1   O1    S    
C45   C46   A    
C2    C46   A    
C1    O2    A    
S2    O12   D    
C5    C6    A    
C36   C37   A    
C19   C21   A    
Cu1   O7    S    
C34   O8    A    
C30   C31   A    
S1    O10   D    
C20   C25   A    
C44   H11   S    
S3    O21   S    
C33   C36   A    
Cu2   O6    S    
C18   C19   A    
C30   S2    S    
C9    H18   S    
C18   H5    S    
C31   C32   A    
C8    C9    A    
S3    O20   D    
C1    C28   S    
C14   C27   A    
C15   C23   S    
C12   O3    A    
C21   C22   A    
C31   H14   S    
C41   N1    A    
C24   H2    S    
Cu1   Cu2   S    
C16   H4    S    
C36   C40   A    
C24   C25   A    
S1    O9    D    
C16   C17   A    
C15   C26   A    
C20   C28   A    
C3    C45   A    
Cu2   O8    S    
C35   C39   A    
C43   C44   A    
C41   H8    S    
C37   C38   A    
C38   H9    S    
C15   C27   A    
O21   H24   S    
S3    O19   D    
C48   O18   S    
C17   C18   A    
C26   S1    S    
C29   H10   S    
S2    O13   D    
C47   O16   S    
C13   C48   S    
C22   C24   A    
C42   C43   A    
C23   O5    A    
C3    C4    A    
Cu1   N1    S    
C30   N2    A    
C44   C45   A    
C10   H17   S    
C6    C46   A    
C29   C41   A    
C3    C47   S    
O14   H21   S    
Cu2   O4    S    
C34   C43   S    
C25   H7    S    
Cu1   O5    S    
C23   O6    A    
C4    C5    A    
C32   H13   S    
C11   C12   S    
C6    C7    A    
C39   H15   S    
C4    H16   S    
C1    O1    A    
C32   C33   A    
C14   C22   A    
C5    C10   A    
C11   C13   A    
S1    O11   S    
O16   H22   S    
C38   C39   A    
C2    C42   A    
C48   O17   D    
C33   C35   A    
O18   H23   S    
Cu1   O3    S    
C27   H19   S    
C10   C11   A    
C42   H1    S    
C7    C13   A    
S2    O14   S    
C47   O15   D    
C35   N2    A    
C14   H3    S    
C40   N1    A    
C29   C37   A    
Cu2   O2    S    
C12   O4    A    
C2    C9    A    
C17   H6    S    
C34   O7    A    
