data_mof_unit_3544.cif
_audit_creation_date              2013-03-05T15:51:49-0500
_audit_creation_method            fapswitch 2.2
_symmetry_space_group_name_H-M    P1
_symmetry_Int_Tables_number       1
_space_group_crystal_system       triclinic
_cell_length_a                    10.965452
_cell_length_b                    10.927137
_cell_length_c                    18.824583
_cell_angle_alpha                 90.223099
_cell_angle_beta                  90.118184
_cell_angle_gamma                 60.165805
_cell_volume                      1956.63044144

loop_
_atom_site_label
_atom_site_type_symbol
_atom_site_description
_atom_site_fract_x
_atom_site_fract_y
_atom_site_fract_z
_atom_type_partial_charge
O1    O     O_R   0.507380 0.255700 0.581440 -0.529402
O2    O     O_R   0.280320 0.527350 0.578930 -0.497995
C1    C     C_R   0.239548 0.644920 0.610405 0.540752
O3    O     O_R   0.260510 0.739590 0.584590 -0.534247
O4    O     O_R   0.532300 0.695080 0.573820 -0.510180
C2    C     C_R   0.652944 0.621156 0.601810 0.539197
O5    O     O_R   0.744840 0.503500 0.576370 -0.527960
O6    O     O_R   0.699120 0.276560 0.571960 -0.501332
C3    C     C_R   0.630024 0.225756 0.601789 0.540726
O7    O     O_R   0.498940 0.256500 0.419860 -0.519807
O8    O     O_R   0.272500 0.528080 0.429150 -0.505869
C4    C     C_R   0.220438 0.650737 0.401970 0.547593
O9    O     O_R   0.252060 0.740380 0.423010 -0.521763
O10   O     O_R   0.524480 0.695810 0.424040 -0.512166
C5    C     C_R   0.644964 0.625217 0.393701 0.537093
O11   O     O_R   0.736390 0.504290 0.414790 -0.519015
O12   O     O_R   0.691300 0.277290 0.422170 -0.509600
C6    C     C_R   0.615322 0.231063 0.394472 0.543722
Cr1   Cr    Cr6+3 0.392960 0.397920 0.502240 1.008912
Cr2   Cr    Cr6+3 0.398340 0.708480 0.501250 1.001995
Cr3   Cr    Cr6+3 0.708670 0.393570 0.496460 1.007720
O13   O     O_3   0.499990 0.499990 0.499980 -0.248199
C7    C     C_3   0.543510 0.774200 0.791022 -0.241678
H1    H     H_    0.511773 0.885568 0.803579 0.131320
H2    H     H_    0.472087 0.747777 0.820649 0.123499
C8    C     C_3   0.528083 0.760622 0.710630 -0.233422
H3    H     H_    0.449110 0.727984 0.701586 0.149519
H4    H     H_    0.490940 0.864459 0.684470 0.117851
H5    H     H_    0.766722 0.822635 0.779913 0.128418
H6    H     H_    0.746161 0.794495 0.660779 0.116361
C9    C     C_3   0.794374 0.711606 0.769011 -0.221233
C10   C     C_3   0.734241 0.520764 0.797113 -0.243385
C11   C     C_3   0.697798 0.673396 0.813407 0.055202
H7    H     H_    0.844887 0.444916 0.812192 0.132049
H8    H     H_    0.664938 0.493088 0.828055 0.123365
C12   C     C_3   0.669222 0.646738 0.677661 0.050311
C13   C     C_3   0.779277 0.693154 0.688742 -0.250439
C14   C     C_3   0.715832 0.505921 0.717869 -0.213895
H9    H     H_    0.635459 0.473167 0.710070 0.133341
H10   H     H_    0.817765 0.421244 0.696648 0.142148
H11   H     H_    0.905632 0.644650 0.784610 0.133630
H12   H     H_    0.881917 0.613382 0.666042 0.121618
C15   C     C_R   0.682720 0.147314 0.821268 0.017112
C16   C     C_R   0.773910 0.179376 0.784934 -0.007554
C17   C     C_R   0.768776 0.188999 0.710940 0.015446
C18   C     C_R   0.583826 0.131174 0.708017 -0.173233
C19   C     C_R   0.582053 0.131450 0.781060 -0.159015
C20   C     C_3   0.929455 0.102678 0.786573 -0.273901
C21   C     C_3   0.925395 0.109480 0.706229 -0.281494
C22   C     C_R   0.674490 0.163802 0.671735 0.015869
H13   H     H_    0.508086 0.112611 0.679985 0.123058
H14   H     H_    0.506600 0.108002 0.805208 0.135520
H15   H     H_    0.969201 0.995608 0.808005 0.171052
H16   H     H_    0.972182 0.165755 0.811633 0.130320
H17   H     H_    0.968757 0.174169 0.684314 0.129879
H18   H     H_    0.964340 0.005505 0.679860 0.143719
C23   C     C_R   0.187591 0.665998 0.837185 0.015528
C24   C     C_R   0.197224 0.553521 0.797479 0.019256
C25   C     C_R   0.203906 0.550523 0.725275 0.021646
C26   C     C_R   0.205327 0.767738 0.725375 -0.186830
C27   C     C_R   0.205145 0.767256 0.799630 -0.182150
C28   C     C_3   0.190087 0.420998 0.801539 -0.278766
C29   C     C_3   0.199929 0.416597 0.719817 -0.278031
C30   C     C_R   0.205147 0.657681 0.685896 0.012899
H19   H     H_    0.210363 0.853222 0.699285 0.135910
H20   H     H_    0.206373 0.853971 0.827043 0.136576
H21   H     H_    0.088290 0.437327 0.822103 0.147987
H22   H     H_    0.284269 0.334780 0.827849 0.140923
H23   H     H_    0.299465 0.328848 0.698825 0.159495
H24   H     H_    0.103525 0.430261 0.693328 0.120597
C31   C     C_R   0.710413 0.707674 0.181482 0.012910
C32   C     C_R   0.807157 0.586525 0.217267 0.000941
C33   C     C_R   0.793150 0.568658 0.288053 0.013543
C34   C     C_R   0.590698 0.801173 0.294820 -0.170180
C35   C     C_R   0.607290 0.819914 0.222031 -0.144802
C36   C     C_3   0.859503 0.434519 0.200163 -0.240710
C37   C     C_3   0.845229 0.414323 0.278307 -0.248572
C38   C     C_R   0.677956 0.669647 0.326776 0.010328
H25   H     H_    0.504289 0.884131 0.324191 0.119923
H26   H     H_    0.535383 0.917388 0.196739 0.160144
H27   H     H_    0.970366 0.378346 0.181569 0.171933
H28   H     H_    0.784907 0.418372 0.166667 0.161509
H29   H     H_    0.762049 0.387565 0.289651 0.164512
H30   H     H_    0.947751 0.347289 0.305161 0.155301
C39   C     C_R   0.654844 0.172153 0.172766 0.007728
C40   C     C_R   0.523323 0.243894 0.204738 -0.007127
C41   C     C_R   0.514712 0.250790 0.277403 0.032017
C42   C     C_R   0.765644 0.144309 0.288482 -0.176030
C43   C     C_R   0.775672 0.134822 0.214895 -0.151894
C44   C     C_3   0.392977 0.233574 0.197543 -0.252624
C45   C     C_3   0.389244 0.231344 0.278133 -0.249937
C46   C     C_R   0.634760 0.193835 0.320492 0.017785
H31   H     H_    0.859617 0.111175 0.320078 0.145473
H32   H     H_    0.879985 0.085292 0.192084 0.205408
H33   H     H_    0.407277 0.136199 0.172164 0.192508
H34   H     H_    0.305762 0.330976 0.174179 0.142392
H35   H     H_    0.295918 0.322085 0.301606 0.152115
H36   H     H_    0.413456 0.127437 0.299963 0.136669
C47   C     C_R   0.134021 0.679633 0.185757 -0.018353
C48   C     C_R   0.161479 0.776297 0.219439 0.053897
C49   C     C_R   0.173441 0.776280 0.291243 -0.003570
C50   C     C_R   0.111015 0.593889 0.300945 -0.162570
C51   C     C_R   0.101331 0.592658 0.226879 -0.169091
C52   C     C_3   0.280689 0.802636 0.206586 0.089529
C53   C     C_3   0.295769 0.801832 0.286355 -0.226645
C54   C     C_R   0.157428 0.679349 0.332784 0.012752
H37   H     H_    0.092051 0.522308 0.332437 0.124682
H38   H     H_    0.071308 0.522814 0.201752 0.138007
H39   H     H_    0.371583 0.714180 0.178817 0.108630
H40   H     H_    0.394954 0.709342 0.304763 0.127368
H41   H     H_    0.271679 0.904672 0.310249 0.168910
O14   O     O_R   0.089400 0.825690 0.930570 -0.520458
O15   O     O_R   0.818460 0.054440 0.929850 -0.499245
C55   C     C_R   0.702315 0.098770 0.894942 0.538090
O16   O     O_R   0.606060 0.077150 0.915510 -0.533415
O17   O     O_R   0.646550 0.806680 0.917570 -0.503720
C56   C     C_R   0.721751 0.686926 0.889077 0.549301
O18   O     O_R   0.837170 0.593410 0.915250 -0.528264
O19   O     O_R   0.065200 0.635530 0.931570 -0.504084
C57   C     C_R   0.120815 0.704589 0.906759 0.541328
O20   O     O_R   0.068260 0.828890 0.091840 -0.471338
O21   O     O_R   0.798870 0.057410 0.079340 -0.506692
C58   C     C_R   0.675623 0.108262 0.103447 0.536640
O22   O     O_R   0.584930 0.080350 0.076780 -0.521408
O23   O     O_R   0.626960 0.809650 0.067060 -0.468179
C59   C     C_R   0.731688 0.717023 0.105508 0.564663
O24   O     O_R   0.816040 0.596610 0.076510 -0.519453
O25   O     O_R   0.045610 0.638500 0.081060 -0.528241
C60   C     C_R   0.091677 0.709801 0.113031 0.539011
Cr4   Cr    Cr6+3 0.937650 0.938540 0.007610 1.058875
Cr5   Cr    Cr6+3 0.625330 0.937370 0.994520 1.043280
Cr6   Cr    Cr6+3 0.937940 0.625230 0.001190 1.011336
O26   O     O_3   0.833640 0.833710 0.001100 -0.283915
N1    N     N_R   0.235285 0.940751 0.174705 0.087074
O27   O     O_R   0.297088 0.949117 0.117542 -0.344963
O28   O     O_R   0.133372 0.055582 0.202301 -0.397603

loop_
_geom_bond_atom_site_label_1
_geom_bond_atom_site_label_2
_geom_bond_distance
_ccdc_geom_bond_type
C24   C28   1.490836 S    
C47   C51   1.405986 A    
C53   H40   1.109907 S    
C11   C56   1.468109 S    
O11   Cr3   2.074142 S    
C41   C45   1.493045 S    
O20   Cr4   2.073383 S    
C32   C36   1.496662 S    
O25   C60   1.269285 A    
C55   O16   1.253105 A    
C23   C24   1.394418 A    
C58   O22   1.277728 A    
O4    Cr2   1.955685 S    
O16   Cr5   2.070023 S    
C1    C30   1.459302 S    
C20   H16   1.111302 S    
O8    Cr1   1.949154 S    
C8    H3    1.101039 S    
C59   O24   1.292416 A    
C52   N1    1.464215 S    
C28   H21   1.109415 S    
C12   C13   1.537628 S    
C14   H10   1.111300 S    
C15   C55   1.463581 S    
C39   C40   1.389855 A    
O4    C2    1.271775 A    
C5    C38   1.461211 S    
C37   H29   1.108905 S    
C5    O11   1.262177 A    
C48   C52   1.492084 S    
O17   C56   1.265996 A    
C7    C8    1.537204 S    
C13   H12   1.109996 S    
O24   Cr6   2.078966 S    
C42   H31   1.083805 S    
C27   H20   1.083124 S    
C29   H23   1.106508 S    
O6    C3    1.272882 A    
C7    C11   1.549085 S    
C7    H1    1.111138 S    
C9    C11   1.562240 S    
C31   C59   1.461670 S    
C50   C54   1.399125 A    
C51   H38   1.077566 S    
C10   C14   1.523741 S    
C35   H26   1.072214 S    
C42   C43   1.389202 A    
C53   H41   1.111794 S    
C31   C35   1.407797 A    
C41   C46   1.400893 A    
O25   Cr6   1.958788 S    
C52   C53   1.509942 S    
O19   Cr6   1.960238 S    
C49   C53   1.503037 S    
C20   H15   1.103233 S    
O1    Cr1   2.069389 S    
O15   Cr4   1.953055 S    
C47   C60   1.430792 S    
C10   H8    1.113596 S    
O10   Cr2   1.964958 S    
C44   H33   1.102420 S    
Cr1   O13   1.981461 S    
O1    C3    1.274146 A    
C36   C37   1.508310 S    
C34   C35   1.411669 A    
C36   H28   1.112840 S    
O14   C57   1.270091 A    
C39   C43   1.418174 A    
C40   C41   1.370532 A    
Cr6   O26   1.976205 S    
N1    O28   1.302039 A    
C37   H30   1.112259 S    
C24   C25   1.360720 A    
C21   H17   1.110591 S    
C18   H13   1.083671 S    
O12   Cr3   1.957631 S    
C9    C13   1.543063 S    
H6    C13   1.113040 S    
C26   C27   1.397867 A    
C10   H7    1.113294 S    
C15   C16   1.394158 A    
C28   C29   1.541261 S    
O23   Cr5   1.950043 S    
C47   C48   1.385207 A    
C29   H24   1.108968 S    
C17   C21   1.492504 S    
O7    Cr1   2.084549 S    
C33   C38   1.398312 A    
O12   C6    1.279056 A    
C25   C30   1.394075 A    
C50   H37   1.082787 S    
C42   C46   1.394277 A    
C45   H35   1.102049 S    
C44   H34   1.109050 S    
C2    O5    1.267212 A    
C23   C57   1.456621 S    
C8    C12   1.552636 S    
C20   C21   1.514042 S    
Cr2   O13   1.976421 S    
C26   H19   1.082507 S    
C34   H25   1.081138 S    
C40   C44   1.494452 S    
O23   C59   1.308763 A    
Cr4   O26   1.981459 S    
C1    O3    1.264938 A    
C16   C17   1.396197 A    
O15   C55   1.293701 A    
C49   C54   1.398670 A    
C18   C19   1.375141 A    
C9    H11   1.105445 S    
O9    Cr2   2.074027 S    
O2    Cr1   1.965536 S    
O10   C5    1.285442 A    
C8    H4    1.113339 S    
C3    C22   1.451071 S    
O20   C60   1.260792 A    
C32   C33   1.367490 A    
Cr5   O26   1.985336 S    
O6    Cr3   1.952871 S    
C36   H27   1.111202 S    
C43   H32   1.081637 S    
O19   C57   1.273301 A    
C23   C27   1.407003 A    
C19   H14   1.081769 S    
C21   H18   1.110554 S    
C18   C22   1.392612 A    
N1    O27   1.300384 A    
C25   C29   1.488752 S    
C28   H22   1.110348 S    
C26   C30   1.412072 A    
C6    C46   1.435600 S    
C10   C11   1.539094 S    
C12   C14   1.557811 S    
O2    C1    1.274794 A    
C31   C32   1.392246 A    
H5    C9    1.112786 S    
O5    Cr3   2.078600 S    
C56   O18   1.266216 A    
C4    C54   1.433844 S    
C44   C45   1.518320 S    
C14   H9    1.113231 S    
O17   Cr5   1.961244 S    
C17   C22   1.402809 A    
O7    C6    1.258115 A    
C48   C49   1.357745 A    
C2    C12   1.481307 S    
C39   C58   1.441500 S    
C7    H2    1.111682 S    
C45   H36   1.109836 S    
C50   C51   1.398585 A    
O18   Cr6   2.080779 S    
O3    Cr2   2.086978 S    
C4    O9    1.253376 A    
O22   Cr5   2.080972 S    
C34   C38   1.406791 A    
C33   C37   1.497876 S    
C52   H39   1.113808 S    
O14   Cr4   2.084977 S    
O21   C58   1.262742 A    
Cr3   O13   1.986266 S    
C15   C19   1.416828 A    
O21   Cr4   1.963249 S    
C16   C20   1.479929 S    
O8    C4    1.275504 A    
