data_mof_unit_4708.cif
_audit_creation_date              2012-12-10T20:46:49-0500
_audit_creation_method            fapswitch 2.2
_symmetry_space_group_name_H-M    P1
_symmetry_Int_Tables_number       1
_space_group_crystal_system       triclinic
_cell_length_a                    12.878186
_cell_length_b                    8.933594
_cell_length_c                    8.098591
_cell_angle_alpha                 89.999403
_cell_angle_beta                  96.136613
_cell_angle_gamma                 89.998251
_cell_volume                      926.391657328

loop_
_atom_site_label
_atom_site_type_symbol
_atom_type_description
_atom_site_fract_x
_atom_site_fract_y
_atom_site_fract_z
_atom_type_partial_charge
C1    C     C_R   0.500000 0.217957 0.500001 0.920754
C2    C     C_R   0.869092 0.532005 0.702154 -0.207062
C3    C     C_R   0.136565 0.587062 0.594036 0.301583
C4    C     C_R   0.863429 0.586902 0.405808 0.302075
C5    C     C_R   0.028206 0.575364 0.579844 0.014106
C6    C     C_R   0.971786 0.575209 0.420035 0.014140
C7    C     C_1   0.500002 0.065166 0.500001 -0.141104
C8    C     C_1   0.500003 0.934804 0.499999 -0.101988
C9    C     C_R   0.500003 0.782048 0.500000 0.958438
C10   C     C_R   0.298125 0.513395 0.469928 0.907414
C11   C     C_R   0.701874 0.513425 0.530063 0.907302
C12   C     C_R   0.812541 0.545592 0.545553 -0.174911
C13   C     C_R   0.187452 0.545492 0.454388 -0.174775
C14   C     C_R   0.024487 0.554421 0.279333 -0.112441
C15   C     C_R   0.975505 0.554882 0.720597 -0.112435
C16   C     C_R   0.130902 0.531575 0.297826 -0.206874
H1    H     H_    0.831174 0.503512 0.810797 0.212279
H2    H     H_    0.168820 0.502840 0.189246 0.212056
H3    H     H_    0.983290 0.541627 0.156594 0.173085
H4    H     H_    0.016703 0.542342 0.843371 0.173437
H5    H     H_    0.794222 0.454238 0.107307 0.319277
H6    H     H_    0.206036 0.454639 0.892195 0.319227
N1    N     N_1   0.500020 0.500000 0.073640 0.052627
N2    N     N_1   0.499980 0.500000 0.926360 0.052543
O1    O     O_R   0.499990 0.285340 0.636850 -0.621753
O2    O     O_2   0.869480 0.767945 0.136502 -0.263387
O3    O     O_3   0.745037 0.539586 0.092730 -0.539506
O4    O     O_2   0.289758 0.770935 0.726146 -0.257370
O5    O     O_2   0.130513 0.768705 0.862827 -0.262989
O6    O     O_3   0.254906 0.540326 0.907287 -0.539362
O7    O     O_R   0.500010 0.714660 0.363150 -0.587363
O8    O     O_R   0.500010 0.285340 0.363150 -0.621751
O9    O     O_R   0.499990 0.714660 0.636850 -0.587276
O10   O     O_R   0.346350 0.500000 0.614250 -0.564329
O11   O     O_R   0.653650 0.500000 0.385750 -0.563954
O12   O     O_R   0.346360 0.500000 0.340500 -0.620413
O13   O     O_R   0.653640 0.500000 0.659500 -0.620397
O14   O     O_2   0.710266 0.770629 0.273245 -0.257189
S1    S     S_3+6 0.796524 0.672285 0.224241 0.045717
S2    S     S_3+6 0.203469 0.672776 0.775387 0.045909
Zn1   Zn    Zn3+2 0.499990 0.500000 0.682780 1.103275
Zn2   Zn    Zn3+2 0.500010 0.500000 0.317220 1.103387

loop_
_geom_bond_atom_site_label_1
_geom_bond_atom_site_label_2
_ccdc_geom_bond_type
C1    O1    A    
C11   C12   S    
N2    Zn1   S    
O7    Zn2   S    
C4    C12   A    
O12   Zn2   S    
C3    C13   A    
C4    S1    S    
N1    N2    T    
C2    C12   A    
C11   O11   A    
H5    O3    S    
O6    S2    S    
C7    C8    T    
C10   O10   A    
C2    H1    S    
C9    O9    A    
C2    C15   A    
O10   Zn1   S    
C5    C6    A    
N1    Zn2   S    
O5    S2    D    
C16   H2    S    
C10   O12   A    
C3    S2    S    
O13   Zn1   S    
O14   S1    D    
C14   C16   A    
O2    S1    D    
C5    C15   A    
C6    C14   A    
C9    O7    A    
O9    Zn1   S    
C4    C6    A    
C13   C16   A    
O1    Zn1   S    
C11   O13   A    
O11   Zn2   S    
O4    S2    D    
C8    C9    S    
O8    Zn2   S    
H6    O6    S    
C1    C7    S    
C14   H3    S    
C1    O8    A    
O3    S1    S    
C15   H4    S    
C3    C5    A    
C10   C13   S    
