data_mof_unit_1367.cif
_audit_creation_date              2012-12-10T20:28:44-0500
_audit_creation_method            fapswitch 2.2
_symmetry_space_group_name_H-M    P1
_symmetry_Int_Tables_number       1
_space_group_crystal_system       triclinic
_cell_length_a                    10.622244
_cell_length_b                    10.677748
_cell_length_c                    9.87023
_cell_angle_alpha                 90.104834
_cell_angle_beta                  87.661756
_cell_angle_gamma                 89.146354
_cell_volume                      1118.43813385

loop_
_atom_site_label
_atom_site_type_symbol
_atom_type_description
_atom_site_fract_x
_atom_site_fract_y
_atom_site_fract_z
_atom_type_partial_charge
C1    C     C_R   0.500675 0.260191 0.499690 0.872994
C2    C     C_R   0.459206 0.935859 0.386306 -0.207439
C3    C     C_R   0.508991 0.871412 0.495902 -0.075105
C4    C     C_R   0.260333 0.511694 0.503602 0.897012
C5    C     C_R   0.575744 0.935081 0.592233 0.095661
C6    C     C_3   0.572092 0.927912 0.743447 -0.446083
C7    C     C_3   0.570265 0.070171 0.743685 -0.469458
C8    C     C_R   0.391373 0.479712 0.075786 0.240355
C9    C     C_R   0.604497 0.531832 0.067505 -0.137480
C10   C     C_R   0.604462 0.532020 0.923669 -0.130138
C11   C     C_R   0.391321 0.479965 0.933413 0.265888
C12   C     C_R   0.055590 0.626561 0.534968 0.040453
C13   C     C_3   0.311523 0.366532 0.930516 -0.508753
C14   C     C_3   0.312083 0.365754 0.084473 -0.515395
C15   C     C_R   0.500694 0.739778 0.499741 0.880861
C16   C     C_R   0.739704 0.496953 0.496930 0.861744
C17   C     C_R   0.103238 0.741217 0.584293 0.112233
C18   C     C_R   0.034089 0.852728 0.570314 -0.143130
C19   C     C_R   0.913168 0.850768 0.522062 -0.179000
C20   C     C_R   0.857908 0.736640 0.495516 -0.177271
C21   C     C_R   0.927641 0.623607 0.505311 0.078132
C22   C     C_R   0.126781 0.513988 0.513839 -0.083330
C23   C     C_R   0.070025 0.400371 0.486174 -0.202849
C24   C     C_R   0.941598 0.395789 0.479478 -0.221012
C25   C     C_R   0.871853 0.506514 0.489312 -0.072972
C26   C     C_R   0.575306 0.062966 0.592403 0.102386
C27   C     C_R   0.508798 0.128260 0.495830 -0.086765
C28   C     C_R   0.459208 0.064853 0.386214 -0.223097
H1    H     H_    0.125513 0.314922 0.471505 0.140272
H2    H     H_    0.363048 0.283639 0.126108 0.209750
H3    H     H_    0.070309 0.940423 0.606443 0.158173
H4    H     H_    0.859195 0.937052 0.514007 0.148766
H5    H     H_    0.761283 0.737367 0.465490 0.132859
H6    H     H_    0.896531 0.306467 0.465528 0.137359
H7    H     H_    0.413675 0.114367 0.305461 0.161442
H8    H     H_    0.413598 0.887339 0.305618 0.173773
H9    H     H_    0.483856 0.887284 0.787050 0.241252
H10   H     H_    0.660428 0.886681 0.781938 0.202846
H11   H     H_    0.480141 0.111055 0.785730 0.211222
H12   H     H_    0.656968 0.111127 0.783589 0.203368
H13   H     H_    0.689441 0.555605 0.117932 0.159525
H14   H     H_    0.689503 0.556310 0.866469 0.164752
H15   H     H_    0.217093 0.387563 0.890815 0.219091
H16   H     H_    0.361607 0.284753 0.882682 0.206997
H17   H     H_    0.217813 0.385722 0.133472 0.215305
I1    I     I_    0.234075 0.752348 0.739317 -0.425703
N1    N     N_R   0.499160 0.499140 0.142800 -0.112427
N2    N     N_R   0.499160 0.499180 0.857150 -0.107562
O1    O     O_R   0.500020 0.316790 0.614690 -0.619008
O2    O     O_R   0.500000 0.316760 0.385350 -0.621455
O3    O     O_R   0.316770 0.500020 0.614690 -0.592210
O4    O     O_R   0.316760 0.499980 0.385350 -0.617821
O5    O     O_R   0.500000 0.683240 0.614650 -0.593500
O6    O     O_R   0.499980 0.683210 0.385310 -0.628379
O7    O     O_R   0.683240 0.500020 0.614650 -0.621371
O8    O     O_R   0.683230 0.499980 0.385310 -0.625842
Zn1   Zn    Zn3+2 0.500010 0.500020 0.653130 0.962734
Zn2   Zn    Zn3+2 0.499990 0.499980 0.346870 0.947352

loop_
_geom_bond_atom_site_label_1
_geom_bond_atom_site_label_2
_ccdc_geom_bond_type
C12   C17   A    
C2    C28   A    
C23   C24   A    
C16   O8    A    
C24   C25   A    
C6    C7    S    
O3    Zn1   S    
C1    O2    A    
C12   C22   A    
C10   H14   S    
C4    C22   S    
C9    C10   A    
C9    H13   S    
C19   C20   A    
C7    H12   S    
C6    H10   S    
C17   C18   A    
C26   C27   A    
C8    N1    A    
O1    Zn1   S    
N2    Zn1   S    
C13   C14   S    
C20   C21   A    
N1    Zn2   S    
C11   C13   S    
C11   N2    A    
C7    C26   S    
O4    Zn2   S    
C14   H2    S    
C8    C11   A    
C20   H5    S    
C23   H1    S    
O8    Zn2   S    
C9    N1    A    
C14   H17   S    
C2    C3    A    
C4    O4    A    
O7    Zn1   S    
C10   N2    A    
C5    C6    S    
C16   O7    A    
C19   H4    S    
C4    O3    A    
C5    C26   A    
O2    Zn2   S    
C15   O6    A    
C15   O5    A    
C13   H15   S    
C3    C15   S    
C17   I1    S    
C21   C25   A    
O6    Zn2   S    
C2    H8    S    
C27   C28   A    
C1    C27   S    
C7    H11   S    
C16   C25   S    
C18   C19   A    
C8    C14   S    
C18   H3    S    
C22   C23   A    
C1    O1    A    
C12   C21   A    
C13   H16   S    
C24   H6    S    
C28   H7    S    
C6    H9    S    
C3    C5    A    
O5    Zn1   S    
