data_mof_unit_985.cif
_audit_creation_date              2012-12-10T17:56:18-0500
_audit_creation_method            fapswitch 2.2
_symmetry_space_group_name_H-M    P1
_symmetry_Int_Tables_number       1
_space_group_crystal_system       triclinic
_cell_length_a                    13.032314
_cell_length_b                    10.847282
_cell_length_c                    9.676356
_cell_angle_alpha                 90.119179
_cell_angle_beta                  97.089528
_cell_angle_gamma                 93.899714
_cell_volume                      1354.22281272

loop_
_atom_site_label
_atom_site_type_symbol
_atom_type_description
_atom_site_fract_x
_atom_site_fract_y
_atom_site_fract_z
_atom_type_partial_charge
C1    C     C_R   0.498212 0.262736 0.499441 0.812702
C2    C     C_R   0.491279 0.736850 0.499121 0.827129
C3    C     C_R   0.477486 0.870963 0.500330 -0.143754
C4    C     C_R   0.488625 0.128176 0.498293 -0.136050
C5    C     C_R   0.419659 0.444374 0.059460 0.074402
C6    C     C_R   0.577501 0.564049 0.938378 0.051113
C7    C     C_R   0.427202 0.428985 0.915196 0.183392
C8    C     C_R   0.574361 0.570653 0.085795 0.193517
C9    C     C_R   0.300521 0.499029 0.473378 0.786554
C10   C     C_R   0.698957 0.497563 0.527006 0.823757
C11   C     C_R   0.811388 0.490417 0.542786 -0.084757
C12   C     C_R   0.186980 0.499073 0.459050 -0.084730
C13   C     C_R   0.025191 0.545086 0.322814 0.155483
C14   C     C_R   0.971969 0.439373 0.679079 0.164539
C15   C     C_R   0.131908 0.535767 0.335574 -0.260738
C16   C     C_R   0.864506 0.447731 0.665453 -0.239474
C17   C     C_R   0.134076 0.467687 0.572481 -0.261873
C18   C     C_R   0.864732 0.521617 0.430326 -0.270498
C19   C     C_R   0.026430 0.472855 0.564394 0.111830
C20   C     C_R   0.971608 0.513497 0.438200 0.114397
C21   C     C_R   0.414395 0.061969 0.400925 0.086858
C22   C     C_R   0.517330 0.940799 0.621330 0.124456
C23   C     C_R   0.421025 0.932435 0.387996 0.092704
C24   C     C_R   0.547072 0.064990 0.603693 0.076634
Cu1   Cu    Cu3+1 0.500000 0.500020 0.640660 0.955342
Cu2   Cu    Cu3+1 0.500000 0.499980 0.359340 0.948623
H1    H     H_    0.821395 0.552361 0.336291 0.167162
H2    H     H_    0.178024 0.439863 0.667027 0.162983
H3    H     H_    0.821638 0.417845 0.749692 0.186201
H4    H     H_    0.172824 0.563068 0.250293 0.212392
N1    N     N_R   0.500030 0.500030 0.852080 -0.240054
N2    N     N_R   0.499970 0.499970 0.147920 -0.237635
O1    O     O_R   0.499990 0.319660 0.618740 -0.591657
O2    O     O_R   0.500010 0.680340 0.381260 -0.604264
O3    O     O_R   0.499990 0.319630 0.381170 -0.586385
O4    O     O_R   0.500010 0.680370 0.618830 -0.541618
O5    O     O_R   0.349000 0.499990 0.599490 -0.615627
O6    O     O_R   0.651000 0.500010 0.400510 -0.612138
O7    O     O_R   0.348990 0.499960 0.361920 -0.557153
O8    O     O_R   0.651010 0.500040 0.638080 -0.553704
C25   C     C_3   0.972730 0.590498 0.185358 -0.425717
C26   C     C_3   0.949459 0.726285 0.195260 -0.819203
H5    H     H_    0.909554 0.756041 0.094052 0.252224
H6    H     H_    0.899160 0.741462 0.277312 0.246302
H7    H     H_    0.022536 0.784964 0.219780 0.253825
H8    H     H_    0.023177 0.581886 0.101582 0.210582
H9    H     H_    0.901278 0.531621 0.150678 0.228565
C27   C     C_3   0.024338 0.393249 0.816283 -0.429793
C28   C     C_3   0.048611 0.258073 0.804716 -0.836344
H10   H     H_    0.975625 0.199135 0.778673 0.255909
H11   H     H_    0.099856 0.244936 0.723176 0.249254
H12   H     H_    0.088262 0.227703 0.905852 0.258922
H13   H     H_    0.095498 0.452217 0.852832 0.213198
H14   H     H_    0.973148 0.400197 0.899453 0.207875
C29   C     C_3   0.326244 0.128465 0.320840 -0.362605
C30   C     C_3   0.251758 0.171506 0.418558 -0.799891
H15   H     H_    0.218441 0.091231 0.473190 0.238250
H16   H     H_    0.291490 0.238182 0.497460 0.227963
H17   H     H_    0.187394 0.217273 0.357708 0.255384
H18   H     H_    0.357932 0.206742 0.263664 0.255131
H19   H     H_    0.278112 0.072010 0.239354 0.211815
C31   C     C_3   0.489568 0.903060 0.764440 -0.343508
C32   C     C_3   0.372984 0.872370 0.762778 -0.818225
H20   H     H_    0.347267 0.786411 0.702323 0.268011
H21   H     H_    0.354716 0.858634 0.871059 0.239712
H22   H     H_    0.328913 0.949144 0.715705 0.247563
H23   H     H_    0.532129 0.824986 0.806886 0.255898
H24   H     H_    0.510537 0.979108 0.840953 0.196232
C33   C     C_3   0.357994 0.862207 0.265874 -0.382405
C34   C     C_3   0.251478 0.817328 0.302192 -0.798395
H25   H     H_    0.206473 0.771109 0.209458 0.257922
H26   H     H_    0.259937 0.751655 0.389800 0.244820
H27   H     H_    0.207942 0.894890 0.333469 0.246033
H28   H     H_    0.350603 0.919798 0.171120 0.176956
H29   H     H_    0.395824 0.783209 0.228990 0.249836
C35   C     C_3   0.655138 0.115649 0.665538 -0.386806
C36   C     C_3   0.663254 0.166777 0.814062 -0.797373
H30   H     H_    0.604750 0.234334 0.824276 0.278222
H31   H     H_    0.656403 0.091495 0.890201 0.231783
H32   H     H_    0.740949 0.215358 0.841196 0.236691
H33   H     H_    0.709840 0.041447 0.664145 0.205184
H34   H     H_    0.684186 0.189859 0.598289 0.187077
C37   C     C_2   0.313049 0.452477 0.090588 0.857880
O9    O     O_2   0.272998 0.550296 0.068494 -0.657142
O10   O     O_R   0.254075 0.347844 0.126241 -0.807021
H35   H     H_    0.179055 0.364214 0.131642 0.320376
C38   C     C_2   0.673018 0.614124 0.883900 0.878301
O11   O     O_2   0.671047 0.698396 0.800586 -0.614696
O12   O     O_R   0.767251 0.565774 0.932283 -0.827581
H36   H     H_    0.828033 0.609979 0.892711 0.324171
C39   C     C_3   0.350997 0.332415 0.837015 -0.359173
C40   C     C_3   0.366047 0.202421 0.893066 -0.873430
H37   H     H_    0.304713 0.137012 0.839324 0.246091
H38   H     H_    0.442396 0.172735 0.873232 0.260701
H39   H     H_    0.360988 0.197706 0.006380 0.267482
H40   H     H_    0.270641 0.354706 0.846751 0.190513
H41   H     H_    0.355735 0.326615 0.725997 0.255913
C41   C     C_3   0.646086 0.671040 0.166002 -0.360385
C42   C     C_3   0.620117 0.801431 0.118986 -0.906263
H42   H     H_    0.655310 0.827105 0.023699 0.258095
H43   H     H_    0.535103 0.808345 0.098375 0.255462
H44   H     H_    0.652041 0.869916 0.201409 0.247337
H45   H     H_    0.644236 0.670895 0.277473 0.265289
H46   H     H_    0.727840 0.657734 0.153788 0.201144

loop_
_geom_bond_atom_site_label_1
_geom_bond_atom_site_label_2
_ccdc_geom_bond_type
Cu1   N1    S    
C29   C30   S    
C32   H21   S    
C11   C18   A    
Cu2   N2    S    
C25   C26   S    
C23   C33   S    
C3    C23   A    
C19   C20   A    
C38   O11   D    
C13   C25   S    
C1    O1    A    
C36   H30   S    
C27   H14   S    
C31   H23   S    
Cu1   O8    S    
C4    C24   A    
Cu2   O7    S    
C41   H45   S    
C9    O7    A    
C30   H15   S    
C10   O8    A    
C8    C41   S    
Cu1   O5    S    
C39   H40   S    
Cu2   O2    S    
C37   O9    D    
C28   H11   S    
C12   C17   A    
C25   H8    S    
C34   H25   S    
C18   C20   A    
C5    N2    A    
C2    O2    A    
C6    N1    A    
C32   H22   S    
C29   H18   S    
C26   H6    S    
C9    O5    A    
C36   H31   S    
C27   H13   S    
C7    N1    A    
C8    N2    A    
C35   C36   S    
C35   H34   S    
C39   C40   S    
C5    C7    A    
C24   C35   S    
C6    C8    A    
C16   H3    S    
O10   H35   S    
C40   H39   S    
C6    C38   S    
C26   H7    S    
C31   C32   S    
C22   C31   S    
C11   C16   A    
C42   H42   S    
C12   C15   A    
C28   H12   S    
C7    C39   S    
C34   H27   S    
C40   H38   S    
C25   H9    S    
C33   H28   S    
C39   H41   S    
C27   C28   S    
C37   O10   S    
C41   C42   S    
C13   C15   A    
C14   C16   A    
C26   H5    S    
C1    O3    A    
C15   H4    S    
C21   C29   S    
C36   H32   S    
C2    O4    A    
C13   C20   A    
C42   H43   S    
C17   H2    S    
C14   C19   A    
Cu2   O6    S    
C18   H1    S    
C35   H33   S    
C14   C27   S    
C5    C37   S    
C30   H17   S    
C31   H24   S    
C10   O6    A    
C1    C4    S    
C21   C23   A    
C2    C3    S    
Cu1   Cu2   S    
C4    C21   A    
C41   H46   S    
C29   H19   S    
C40   H37   S    
C17   C19   A    
C30   H16   S    
C33   H29   S    
C22   C24   A    
C33   C34   S    
C9    C12   S    
C10   C11   S    
Cu1   O4    S    
C32   H20   S    
Cu2   O3    S    
C42   H44   S    
C28   H10   S    
C38   O12   S    
C3    C22   A    
C34   H26   S    
O12   H36   S    
Cu1   O1    S    
