data_mof_unit_4531.cif
_audit_creation_date              2012-12-11T15:34:33-0500
_audit_creation_method            fapswitch 2.2
_symmetry_space_group_name_H-M    P1
_symmetry_Int_Tables_number       1
_space_group_crystal_system       triclinic
_cell_length_a                    15.028999
_cell_length_b                    15.046777
_cell_length_c                    34.940625
_cell_angle_alpha                 90.240933
_cell_angle_beta                  89.849337
_cell_angle_gamma                 60.129566
_cell_volume                      6851.56984922

loop_
_atom_site_label
_atom_site_type_symbol
_atom_type_description
_atom_site_fract_x
_atom_site_fract_y
_atom_site_fract_z
_atom_type_partial_charge
C1    C     C_R   0.302635 0.607710 0.555920 0.540532
C2    C     C_R   0.243584 0.709959 0.387003 -0.152201
C3    C     C_R   0.767353 0.109014 0.269425 -0.103801
C4    C     C_R   0.771771 0.102109 0.229394 0.321546
C5    C     C_R   0.684017 0.167636 0.207869 0.057209
C6    C     C_R   0.732414 0.210115 0.349812 -0.110359
C7    C     C_R   0.713226 0.238771 0.388368 0.234982
C8    C     C_R   0.568248 0.207874 0.387293 0.087133
C9    C     C_R   0.750256 0.573527 0.646537 0.253226
C10   C     C_R   0.590656 0.177422 0.348978 -0.127590
C11   C     C_R   0.668602 0.184030 0.329730 -0.040579
C12   C     C_R   0.625730 0.245330 0.406865 0.042766
C13   C     C_R   0.219230 0.716425 0.348678 -0.139306
C14   C     C_R   0.082888 0.708981 0.094094 0.020216
C15   C     C_R   0.095753 0.618870 0.111069 -0.132397
C16   C     C_R   0.129895 0.595701 0.148640 -0.130207
C17   C     C_R   0.151722 0.662154 0.169548 0.060527
C18   C     C_R   0.144919 0.748705 0.151847 -0.084502
C19   C     C_R   0.111671 0.771474 0.114269 -0.133305
C20   C     C_R   0.251576 0.653890 0.227823 0.281275
C21   C     C_3   0.938540 0.081964 0.906814 -0.117593
C22   C     C_3   0.838220 0.279090 0.657073 -0.102385
C23   C     C_3   0.442620 0.310462 0.847768 -0.311490
C24   C     C_R   0.193156 0.647550 0.332523 0.004320
C25   C     C_3   0.391030 0.818633 0.601020 -0.281803
C26   C     C_3   0.398780 0.422039 0.726181 -0.123182
C27   C     C_3   0.931819 0.853483 0.700758 -0.249082
C28   C     C_3   0.905340 0.704628 0.790457 -0.273968
C29   C     C_3   0.212191 0.850216 0.672238 -0.122154
C30   C     C_3   0.573237 0.488305 0.219878 -0.104827
C31   C     C_3   0.616412 0.922756 0.283368 -0.110476
C32   C     C_3   0.913387 0.530331 0.661238 -0.122330
C33   C     C_3   0.385970 0.905462 0.358865 -0.323574
C34   C     C_3   0.944914 0.073329 0.088243 -0.244403
C35   C     C_R   0.593767 0.738481 0.645454 -0.161570
C36   C     C_3   0.777445 0.301444 0.150025 -0.107662
C37   C     C_3   0.870007 0.935319 0.211837 -0.131710
C38   C     C_3   0.862817 0.186607 0.419538 -0.117086
C39   C     C_3   0.385090 0.282148 0.393600 -0.266376
C40   C     C_3   0.339082 0.740323 0.215486 -0.121047
C41   C     C_3   0.114953 0.472218 0.408287 -0.332752
C42   C     C_3   0.479844 0.839296 0.924316 -0.098909
C43   C     C_3   0.549461 0.939259 0.826856 -0.066833
C44   C     C_R   0.241465 0.635002 0.410240 0.023591
C45   C     C_R   0.736070 0.025712 0.943315 0.556558
C46   C     C_R   0.745618 0.723209 0.944959 0.557808
C47   C     C_R   0.037896 0.734361 0.948151 0.549908
C48   C     C_R   0.722836 0.039194 0.052759 0.539838
C49   C     C_R   0.733460 0.734336 0.054789 0.538659
C50   C     C_R   0.677122 0.662640 0.666033 0.009607
C51   C     C_R   0.027436 0.744740 0.057876 0.544462
C52   C     C_R   0.574497 0.719835 0.607765 0.107828
C53   C     C_R   0.680947 0.683698 0.785717 0.344442
C54   C     C_R   0.682053 0.672006 0.708046 0.345386
C55   C     C_R   0.767014 0.608584 0.847440 -0.205064
C56   C     C_R   0.782096 0.616395 0.886266 -0.202076
C57   C     C_R   0.624697 0.780695 0.888929 0.267815
C58   C     C_R   0.613797 0.776803 0.849008 0.283110
C59   C     C_R   0.685528 0.689761 0.827967 -0.009126
C60   C     C_R   0.611759 0.588727 0.554996 0.562204
C61   C     C_R   0.261153 0.647618 0.267774 -0.108074
C62   C     C_R   0.714159 0.704221 0.907092 -0.018993
C63   C     C_R   0.721581 0.077134 0.906115 -0.009731
C64   C     C_R   0.623101 0.127946 0.889889 -0.146649
C65   C     C_R   0.609275 0.157981 0.851540 0.127933
C66   C     C_R   0.696107 0.135768 0.829091 -0.016680
C67   C     C_R   0.793042 0.092457 0.845812 -0.127004
C68   C     C_R   0.806566 0.064595 0.884353 0.257904
C69   C     C_R   0.693510 0.231566 0.771176 -0.120412
C70   C     C_R   0.688916 0.242424 0.731557 -0.081156
C71   C     C_R   0.680911 0.170502 0.708192 0.053062
C72   C     C_R   0.186412 0.643434 0.290681 -0.011898
C73   C     C_R   0.590284 0.300294 0.553525 0.542655
C74   C     C_R   0.676732 0.088166 0.724890 -0.136365
C75   C     C_R   0.682104 0.076957 0.764451 -0.131476
C76   C     C_R   0.689406 0.149189 0.787633 0.020224
C77   C     C_R   0.584126 0.189837 0.648838 -0.183308
C78   C     C_R   0.562031 0.220017 0.610911 -0.143266
C79   C     C_R   0.716276 0.232790 0.606712 -0.116053
C80   C     C_R   0.737570 0.205669 0.645459 0.281112
C81   C     C_R   0.669532 0.185818 0.666621 0.039957
C82   C     C_R   0.625760 0.245599 0.590003 -0.018291
C83   C     C_R   0.105417 0.637850 0.273496 -0.136740
C84   C     C_R   0.090730 0.698074 0.910861 0.019100
C85   C     C_R   0.298099 0.611562 0.446614 0.533501
C86   C     C_R   0.113907 0.762343 0.889008 -0.104141
C87   C     C_R   0.137927 0.742170 0.850222 -0.091985
C88   C     C_R   0.140805 0.656732 0.832937 0.057285
C89   C     C_R   0.126489 0.587619 0.855146 -0.121124
C90   C     C_R   0.101339 0.608218 0.893917 -0.132772
C91   C     C_R   0.244785 0.586590 0.774131 -0.153079
C92   C     C_R   0.255379 0.579767 0.734190 0.254982
C93   C     C_R   0.168333 0.636487 0.711112 0.047750
C94   C     C_R   0.097504 0.639585 0.233850 -0.176916
C95   C     C_R   0.070035 0.694849 0.727974 0.134168
C96   C     C_R   0.060346 0.699183 0.768295 0.162790
C97   C     C_R   0.608193 0.590182 0.445364 0.544593
C98   C     C_R   0.148528 0.645911 0.791092 -0.029652
C99   C     C_R   0.179287 0.723502 0.651887 0.299936
C100  C     C_R   0.209925 0.716670 0.613230 -0.130129
C101  C     C_R   0.246337 0.540749 0.610400 -0.144403
C102  C     C_R   0.214122 0.547632 0.648205 -0.155772
C103  C     C_R   0.183143 0.637509 0.669349 0.084080
C104  C     C_R   0.248344 0.623795 0.592931 -0.025095
C105  C     C_R   0.169527 0.648451 0.210897 0.039120
C106  C     C_R   0.692344 0.718516 0.090940 0.018626
C107  C     C_R   0.611891 0.802407 0.110198 -0.132598
C108  C     C_R   0.588085 0.792694 0.148021 -0.134241
C109  C     C_R   0.588588 0.301928 0.443788 0.570755
C110  C     C_R   0.643528 0.698830 0.167019 0.075157
C111  C     C_R   0.718381 0.613050 0.146906 -0.078974
C112  C     C_R   0.742624 0.622777 0.109151 -0.139700
C113  C     C_R   0.617817 0.617871 0.225737 0.268507
C114  C     C_R   0.621345 0.610478 0.266139 -0.187027
C115  C     C_R   0.636063 0.679053 0.288851 -0.003254
C116  C     C_R   0.178892 0.580444 0.356160 -0.085219
C117  C     C_R   0.647428 0.757335 0.272070 0.285854
C118  C     C_R   0.648560 0.762315 0.231884 -0.174755
C119  C     C_R   0.633805 0.693861 0.208916 -0.004593
C120  C     C_R   0.552204 0.740464 0.353390 0.185149
C121  C     C_R   0.638976 0.623417 0.590650 0.001915
C122  C     C_R   0.549048 0.717816 0.392365 -0.106784
C123  C     C_R   0.711102 0.559478 0.385767 -0.133810
C124  C     C_R   0.715745 0.580933 0.347399 -0.145862
C125  C     C_R   0.635702 0.668879 0.330752 0.081655
C126  C     C_R   0.625710 0.625448 0.408185 -0.016028
C127  C     C_R   0.199440 0.575579 0.395758 0.132575
C128  C     C_R   0.699947 0.097590 0.088974 -0.014748
C129  C     C_R   0.764301 0.133680 0.103607 0.138486
C130  C     C_R   0.754448 0.164500 0.142321 0.344143
C131  C     C_R   0.683424 0.155997 0.166128 0.022483
C132  C     C_R   0.614149 0.129774 0.150471 -0.205931
C133  C     C_R   0.729314 0.553617 0.609706 -0.147096
C134  C     C_R   0.621698 0.101738 0.112303 -0.174241
C135  C     C_R   0.592505 0.236188 0.226619 -0.197729
C136  C     C_R   0.587837 0.240125 0.266329 -0.148676
C137  C     C_R   0.674927 0.176286 0.287901 -0.021108
Cr1   Cr    Cr6+3 0.421670 0.426920 0.499620 1.019929
Cr2   Cr    Cr6+3 0.427030 0.651190 0.500980 1.017512
Cr3   Cr    Cr6+3 0.651280 0.421870 0.499380 1.030965
Cr4   Cr    Cr6+3 0.910810 0.908010 0.001130 1.019133
Cr5   Cr    Cr6+3 0.682800 0.909890 0.998370 1.038217
Cr6   Cr    Cr6+3 0.908370 0.682300 0.002180 1.006148
H1    H     H_    0.783002 0.480615 0.596749 0.142689
H2    H     H_    0.106759 0.831936 0.901159 0.152850
H3    H     H_    0.844379 0.141850 0.440206 0.111818
H4    H     H_    0.909492 0.213701 0.434876 0.131725
H5    H     H_    0.493508 0.131272 0.403792 0.243945
H6    H     H_    0.370768 0.269741 0.363390 0.106298
H7    H     H_    0.377791 0.359067 0.396448 0.205176
H8    H     H_    0.326183 0.279718 0.412084 0.153085
H9    H     H_    0.389464 0.720666 0.240898 0.111932
H10   H     H_    0.264963 0.812054 0.220933 0.093853
H11   H     H_    0.378308 0.755846 0.191669 0.165559
H12   H     H_    0.168117 0.535081 0.449030 0.258536
H13   H     H_    0.084008 0.557203 0.909947 0.123633
H14   H     H_    0.150771 0.417711 0.384054 0.136589
H15   H     H_    0.038626 0.536489 0.399957 0.153280
H16   H     H_    0.104099 0.429521 0.431996 0.135785
H17   H     H_    0.516841 0.773943 0.944562 0.098938
H18   H     H_    0.440167 0.821770 0.901107 0.135666
H19   H     H_    0.420625 0.906385 0.940546 0.130897
H20   H     H_    0.492035 0.995632 0.806883 0.143616
H21   H     H_    0.626836 0.914288 0.814501 0.094858
H22   H     H_    0.540514 0.979240 0.854598 0.176971
H23   H     H_    0.217855 0.481078 0.661621 0.104603
H24   H     H_    0.312047 0.548223 0.792077 0.120267
H25   H     H_    0.149295 0.795833 0.833247 0.120383
H26   H     H_    0.850357 0.555613 0.899467 0.148702
H27   H     H_    0.207055 0.782302 0.599473 0.114616
H28   H     H_    0.129037 0.521060 0.841995 0.098224
H29   H     H_    0.274848 0.468183 0.595555 0.138234
H30   H     H_    0.571801 0.877184 0.096974 0.124302
H31   H     H_    0.689185 0.308147 0.719197 0.136305
H32   H     H_    0.804711 0.556697 0.095002 0.121440
H33   H     H_    0.779844 0.526262 0.330077 0.116003
H34   H     H_    0.612493 0.552086 0.280742 0.102406
H35   H     H_    0.529899 0.859665 0.163119 0.094008
H36   H     H_    0.664707 0.817143 0.218164 0.104502
H37   H     H_    0.483875 0.768318 0.410001 0.123743
H38   H     H_    0.762741 0.540173 0.161173 0.125087
H39   H     H_    0.771428 0.487917 0.397165 0.162694
H40   H     H_    0.570843 0.075400 0.101973 0.144960
H41   H     H_    0.543192 0.153992 0.333551 0.110511
H42   H     H_    0.699335 0.287523 0.788993 0.116801
H43   H     H_    0.516358 0.293766 0.280306 0.124016
H44   H     H_    0.524229 0.285715 0.210409 0.115114
H45   H     H_    0.540218 0.810257 0.659207 0.138434
H46   H     H_    0.835087 0.060170 0.286017 0.115094
H47   H     H_    0.793422 0.214726 0.334992 0.127482
H48   H     H_    0.557972 0.124731 0.168449 0.117072
H49   H     H_    0.074515 0.569091 0.096079 0.126982
H50   H     H_    0.102862 0.841202 0.101868 0.117021
H51   H     H_    0.226397 0.771784 0.331130 0.109504
H52   H     H_    0.823408 0.540864 0.832214 0.149275
H53   H     H_    0.669415 0.032747 0.707284 0.108817
H54   H     H_    0.326735 0.646220 0.281134 0.096857
H55   H     H_    0.135080 0.528395 0.161953 0.105718
H56   H     H_    0.046834 0.635040 0.290706 0.122541
H57   H     H_    0.032624 0.638156 0.221059 0.113316
H58   H     H_    0.155593 0.530006 0.343175 0.104203
H59   H     H_    0.159189 0.802174 0.167749 0.129843
H60   H     H_    0.271575 0.759201 0.397631 0.131581
H61   H     H_    0.557017 0.139617 0.906446 0.152907
H62   H     H_    0.885923 0.142415 0.927316 0.107789
H63   H     H_    0.947099 0.117242 0.880153 0.103393
H64   H     H_    0.680299 0.012315 0.777045 0.107729
H65   H     H_    0.015106 0.040115 0.920427 0.129774
H66   H     H_    0.764212 0.352756 0.659421 0.138094
H67   H     H_    0.875796 0.273507 0.629065 0.120100
H68   H     H_    0.889510 0.280130 0.679624 0.175895
H69   H     H_    0.504915 0.195465 0.806702 0.252186
H70   H     H_    0.364982 0.339739 0.835425 0.134028
H71   H     H_    0.474101 0.359198 0.837553 0.141713
H72   H     H_    0.435035 0.315804 0.879445 0.155001
H73   H     H_    0.494561 0.863884 0.584865 0.240946
H74   H     H_    0.373856 0.858820 0.629089 0.103913
H75   H     H_    0.530959 0.175576 0.665032 0.108956
H76   H     H_    0.389119 0.746140 0.604021 0.181539
H77   H     H_    0.331226 0.868452 0.580275 0.140695
H78   H     H_    0.345841 0.390982 0.722106 0.096097
H79   H     H_    0.429418 0.407659 0.755790 0.118177
H80   H     H_    0.464783 0.379139 0.706465 0.151902
H81   H     H_    0.983879 0.705511 0.679486 0.233108
H82   H     H_    0.937551 0.873668 0.670654 0.177667
H83   H     H_    0.967204 0.887039 0.719593 0.185737
H84   H     H_    0.849562 0.887912 0.708404 0.134989
H85   H     H_    0.918828 0.830888 0.776072 0.258367
H86   H     H_    0.491990 0.228739 0.598684 0.137991
H87   H     H_    0.834641 0.753121 0.807380 0.142377
H88   H     H_    0.951365 0.631139 0.805788 0.152852
H89   H     H_    0.883189 0.689311 0.761912 0.175077
H90   H     H_    0.200935 0.895840 0.645990 0.109056
H91   H     H_    0.293435 0.787555 0.674896 0.129882
H92   H     H_    0.195604 0.902500 0.697046 0.152762
H93   H     H_    0.506754 0.530607 0.239538 0.142996
H94   H     H_    0.640476 0.426621 0.235041 0.118279
H95   H     H_    0.548839 0.451314 0.198020 0.155162
H96   H     H_    0.536758 0.948471 0.273568 0.107548
H97   H     H_    0.859545 0.075122 0.828338 0.130163
H98   H     H_    0.661611 0.934238 0.260693 0.104452
H99   H     H_    0.610576 0.972344 0.307923 0.146080
H100  H     H_    0.888935 0.603990 0.676570 0.127766
H101  H     H_    0.931677 0.536260 0.630775 0.105806
H102  H     H_    0.984921 0.471055 0.674904 0.138187
H103  H     H_    0.451403 0.821305 0.308646 0.237819
H104  H     H_    0.335843 0.972696 0.340911 0.133448
H105  H     H_    0.414383 0.932821 0.382944 0.153106
H106  H     H_    0.339734 0.871887 0.369775 0.125905
H107  H     H_    0.819753 0.156704 0.051270 0.242771
H108  H     H_    0.767885 0.248215 0.590105 0.121146
H109  H     H_    0.982745 0.020217 0.063770 0.141920
H110  H     H_    0.955542 0.026991 0.114328 0.181569
H111  H     H_    0.982923 0.119591 0.092711 0.144596
H112  H     H_    0.696416 0.347116 0.159842 0.122372
H113  H     H_    0.783001 0.314755 0.119062 0.135554
H114  H     H_    0.822454 0.329606 0.165901 0.142112
H115  H     H_    0.803479 0.936533 0.197347 0.110401
H116  H     H_    0.877430 0.906303 0.241572 0.115957
H117  H     H_    0.940288 0.880591 0.195895 0.148112
H118  H     H_    0.910247 0.136641 0.395457 0.102547
N1    N     N_R   0.740572 0.593412 0.767342 -0.258672
N2    N     N_2   0.837454 0.141240 0.079838 -0.515641
N3    N     N_2   0.485924 0.203198 0.405454 -0.496169
N4    N     N_2   0.181007 0.511121 0.420854 -0.519200
N5    N     N_R   0.740578 0.587647 0.729399 -0.168279
N6    N     N_R   0.621971 0.762446 0.726345 -0.261202
N7    N     N_R   0.621943 0.768169 0.764388 -0.184992
N8    N     N_2   0.508652 0.205355 0.835726 -0.527295
N9    N     N_2   0.490386 0.797777 0.587350 -0.492825
N10   N     N_2   0.980697 0.743211 0.704614 -0.529982
N11   N     N_2   0.962744 0.757660 0.786381 -0.495468
N12   N     N_2   0.471113 0.830675 0.336003 -0.499804
O1    O     O_R   0.502070 0.323090 0.541280 -0.519094
O2    O     O_R   0.831550 0.656950 0.958960 -0.530084
O3    O     O_R   0.998590 0.685540 0.963930 -0.505197
O4    O     O_R   0.338340 0.520690 0.539540 -0.503248
O5    O     O_R   0.008220 0.831200 0.045060 -0.531725
O6    O     O_R   0.813270 0.997930 0.038810 -0.498375
O7    O     O_R   0.657500 0.016560 0.039940 -0.526015
O8    O     O_R   0.685680 0.820940 0.038120 -0.505876
O9    O     O_R   0.822130 0.666070 0.043610 -0.520557
O10   O     O_R   0.989860 0.694000 0.042400 -0.502661
O11   O     O_3   0.833990 0.833400 0.000560 -0.243292
O12   O     O_R   0.520720 0.641670 0.461580 -0.507244
O13   O     O_R   0.324760 0.674070 0.543580 -0.523034
O14   O     O_R   0.522400 0.640310 0.540110 -0.458135
O15   O     O_R   0.675940 0.500630 0.542210 -0.539534
O16   O     O_R   0.641790 0.337020 0.538150 -0.510064
O17   O     O_R   0.500260 0.324550 0.456580 -0.486347
O18   O     O_R   0.336660 0.522040 0.461020 -0.491822
O19   O     O_R   0.322940 0.675540 0.458880 -0.526821
O20   O     O_3   0.904943 0.011554 0.898828 -0.542577
O21   O     O_3   0.826301 0.192716 0.662867 -0.575911
O22   O     O_3   0.351696 0.527203 0.717194 -0.553891
O23   O     O_R   0.674120 0.502090 0.457500 -0.492775
O24   O     O_3   0.142420 0.813429 0.673044 -0.575570
O25   O     O_3   0.600227 0.554534 0.201151 -0.568478
O26   O     O_3   0.667491 0.819926 0.295743 -0.544721
O27   O     O_3   0.838542 0.500238 0.664191 -0.571284
O28   O     O_3   0.818940 0.196211 0.157628 -0.530917
O29   O     O_3   0.862193 0.032683 0.211325 -0.539261
O30   O     O_3   0.773020 0.272677 0.406116 -0.549316
O31   O     O_3   0.324871 0.657634 0.204642 -0.566361
O32   O     O_3   0.551491 0.864480 0.909244 -0.544619
O33   O     O_3   0.530727 0.856587 0.830937 -0.540948
O34   O     O_R   0.640110 0.338380 0.459630 -0.454178
O35   O     O_3   0.499990 0.499990 0.499990 -0.246066
O36   O     O_R   0.017640 0.822070 0.960410 -0.496579
O37   O     O_R   0.822000 0.989470 0.960340 -0.452789
O38   O     O_R   0.666920 0.007430 0.955290 -0.511980
O39   O     O_R   0.694410 0.812480 0.959650 -0.445003

loop_
_geom_bond_atom_site_label_1
_geom_bond_atom_site_label_2
_ccdc_geom_bond_type
C49   C106  S    
C99   C103  A    
C113  O25   S    
C55   C59   A    
C56   H26   S    
C10   H41   S    
C41   N4    S    
C55   C56   A    
C51   O10   A    
C114  C115  A    
C42   H18   S    
C94   C105  A    
C23   H72   S    
C39   H7    S    
C46   C62   S    
C34   H110  S    
C84   C86   A    
C20   C105  A    
C3    H46   S    
C106  C107  A    
C49   O9    A    
C100  C104  A    
C110  C111  A    
Cr5   O11   S    
Cr3   O16   S    
C75   H64   S    
C52   N9    S    
C8    N3    S    
C64   H61   S    
C1    O13   A    
C109  O17   A    
C48   O7    A    
C36   H112  S    
C100  H27   S    
H107  N2    S    
Cr4   O6    S    
C61   H54   S    
C6    C11   A    
C120  C125  A    
C4    C5    A    
C123  C126  A    
C60   O15   A    
C75   C76   A    
C1    O4    A    
Cr1   O18   S    
C78   C82   A    
C66   C76   S    
C36   H113  S    
C29   H90   S    
H12   N4    S    
Cr1   O1    S    
C13   H51   S    
C130  O28   S    
Cr6   O3    S    
C56   C62   A    
C86   H2    S    
C69   H42   S    
C16   H55   S    
C23   H70   S    
C127  N4    S    
C136  H43   S    
C14   C19   A    
C30   O25   S    
C37   H116  S    
C97   C126  S    
C6    C7    A    
C117  O26   S    
Cr6   O10   S    
C54   N6    A    
C130  C131  A    
C27   H84   S    
C22   H67   S    
C91   C98   A    
C60   C121  S    
C41   H15   S    
C88   C89   A    
C13   C24   A    
C132  C134  A    
C25   H77   S    
C9    C133  A    
C27   N10   S    
C28   N11   S    
C97   O23   A    
C67   H97   S    
C31   H99   S    
C111  C112  A    
C128  C129  A    
C93   C103  S    
C36   O28   S    
C78   H86   S    
C92   O22   S    
C20   O31   S    
C34   N2    S    
C91   H24   S    
C45   O37   A    
C39   H8    S    
C40   H9    S    
C101  H29   S    
C20   C61   A    
C38   H3    S    
C9    O27   S    
C2    C44   A    
C35   H45   S    
C96   C98   A    
C26   H79   S    
C107  C108  A    
C28   H89   S    
C29   O24   S    
C43   H21   S    
C66   C67   A    
C93   C95   A    
C32   H101  S    
C69   C70   A    
C84   C90   A    
C30   H95   S    
C135  H44   S    
C17   C18   A    
C7    C12   A    
C29   H91   S    
C42   O32   S    
C21   O20   S    
C89   H28   S    
C39   H6    S    
H85   N11   S    
Cr5   O7    S    
C91   C92   A    
C47   O3    A    
C27   H82   S    
Cr2   O35   S    
C37   O29   S    
Cr2   O13   S    
C21   H63   S    
Cr4   O11   S    
C99   O24   S    
C128  C134  A    
C1    C104  S    
C73   O1    A    
C8    C12   A    
C68   O20   S    
Cr5   O38   S    
C4    O29   S    
H5    N3    S    
C70   H31   S    
C8    C10   A    
Cr3   O35   S    
C24   C116  A    
C26   H78   S    
Cr4   O36   S    
C40   H10   S    
C90   H13   S    
C44   C85   S    
C26   H80   S    
C24   C72   S    
C129  C130  A    
C28   H88   S    
C5    C135  A    
C85   O19   A    
C63   C68   A    
C133  H1    S    
C42   H17   S    
C2    H60   S    
C136  C137  A    
C110  C119  S    
C79   C82   A    
N6    N7    A    
C42   H19   S    
C124  H33   S    
C109  O34   A    
C46   O2    A    
C32   H102  S    
C34   H111  S    
Cr1   O4    S    
C117  C118  A    
C57   C58   A    
C33   N12   S    
C49   O8    A    
C108  C110  A    
C102  C103  A    
C10   C11   A    
C63   C64   A    
C14   C15   A    
C73   O16   A    
C30   H93   S    
C88   C98   S    
C3    C4    A    
C7    O30   S    
C71   C81   S    
C87   C88   A    
C44   C127  A    
C101  C102  A    
C25   H74   S    
C116  H58   S    
C32   O27   S    
C135  C136  A    
C77   C78   A    
C122  H37   S    
C38   O30   S    
C50   C54   S    
C21   H65   S    
Cr4   O5    S    
C39   N3    S    
C111  H38   S    
C18   C19   A    
C113  C119  A    
C16   C17   A    
C115  C117  A    
C116  C127  A    
C70   C71   A    
C3    C137  A    
Cr6   O2    S    
Cr2   O19   S    
C43   H22   S    
C67   C68   A    
C123  C124  A    
C37   H115  S    
C38   H118  S    
C86   C87   A    
C57   C62   A    
C58   C59   A    
C83   C94   A    
Cr3   O23   S    
C48   C128  S    
C52   C121  A    
C14   C51   S    
C77   C81   A    
C22   H68   S    
Cr2   O14   S    
C18   H59   S    
C47   C84   S    
Cr3   O15   S    
C33   H106  S    
C41   H14   S    
C61   C72   A    
C101  C104  A    
C25   H76   S    
C46   O39   A    
C131  C132  A    
C22   O21   S    
C73   C82   S    
C113  C114  A    
C48   O6    A    
C31   H96   S    
C23   N8    S    
C79   H108  S    
C31   H98   S    
H103  N12   S    
C97   O12   A    
C71   C74   A    
C95   N10   S    
C60   O14   A    
C47   O36   A    
C64   C65   A    
C11   C137  S    
Cr1   O17   S    
H81   N10   S    
C92   C93   A    
C33   H104  S    
C94   H57   S    
C38   H4    S    
C72   C83   A    
C5    C131  S    
C35   C52   A    
C89   C90   A    
C129  N2    S    
C23   H71   S    
C43   H20   S    
C55   H52   S    
C15   H49   S    
Cr4   O37   S    
C95   C96   A    
C37   H117  S    
C134  H40   S    
C53   C59   S    
C120  N12   S    
C106  C112  A    
Cr6   O11   S    
C54   N5    A    
C33   H105  S    
C123  H39   S    
Cr5   O8    S    
C77   H75   S    
C15   C16   A    
C22   H66   S    
Cr2   O12   S    
C21   H62   S    
C40   O31   S    
C2    C13   A    
C118  C119  A    
C41   H16   S    
C29   H92   S    
C87   H25   S    
Cr5   O39   S    
C43   O33   S    
C65   N8    S    
C25   N9    S    
C118  H36   S    
C40   H11   S    
H73   N9    S    
C12   C109  S    
C120  C122  A    
C85   O18   A    
C74   H53   S    
C74   C75   A    
C108  H35   S    
C45   O38   A    
C107  H30   S    
C45   C63   S    
C53   N1    A    
C51   O5    A    
C122  C126  A    
C17   C105  S    
C112  H32   S    
C99   C100  A    
C114  H34   S    
C6    H47   S    
C35   C50   A    
C36   H114  S    
C57   O32   S    
C132  H48   S    
C31   O26   S    
C80   O21   S    
C19   H50   S    
C32   H100  S    
C26   O22   S    
C30   H94   S    
C83   H56   S    
Cr6   O9    S    
C9    C50   A    
C80   C81   A    
N1    N5    A    
C27   H83   S    
C96   N11   S    
C53   N7    A    
C115  C125  S    
Cr1   O35   S    
C58   O33   S    
H69   N8    S    
C28   H87   S    
C79   C80   A    
Cr3   O34   S    
C69   C76   A    
C102  H23   S    
C65   C66   A    
C34   H109  S    
C121  C133  A    
C124  C125  A    
