data_mof_unit_4112.cif
_audit_creation_date              2012-12-10T16:54:32-0500
_audit_creation_method            fapswitch 2.2
_symmetry_space_group_name_H-M    P1
_symmetry_Int_Tables_number       1
_space_group_crystal_system       triclinic
_cell_length_a                    15.051039
_cell_length_b                    10.948024
_cell_length_c                    9.694003
_cell_angle_alpha                 90.825038
_cell_angle_beta                  90.727981
_cell_angle_gamma                 90.257877
_cell_volume                      1597.05739268

loop_
_atom_site_label
_atom_site_type_symbol
_atom_type_description
_atom_site_fract_x
_atom_site_fract_y
_atom_site_fract_z
_atom_type_partial_charge
C1    C     C_R   0.501549 0.265699 0.498798 0.893335
C2    C     C_R   0.903896 0.590733 0.429126 0.092146
C3    C     C_R   0.960135 0.335906 0.664962 -0.155889
C4    C     C_R   0.052218 0.342471 0.665533 -0.159569
C5    C     C_R   0.095695 0.429537 0.586439 0.120077
C6    C     C_R   0.046851 0.513839 0.507486 0.029773
C7    C     C_R   0.091296 0.604064 0.428988 -0.028233
C8    C     C_R   0.039172 0.696241 0.364751 -0.018698
C9    C     C_R   0.946713 0.684289 0.359595 -0.227829
C10   C     C_R   0.187643 0.432484 0.585394 -0.255447
C11   C     C_R   0.232265 0.511486 0.498576 -0.097539
C12   C     C_R   0.328935 0.504829 0.499169 0.846921
C13   C     C_R   0.185134 0.595457 0.416068 0.234197
C14   C     C_2   0.523189 0.936152 0.389695 -0.146740
C15   C     C_2   0.530301 0.865130 0.503838 -0.261844
C16   C     C_2   0.543132 0.067624 0.398609 -0.029121
C17   C     C_2   0.499393 0.134023 0.494027 -0.330208
C18   C     C_2   0.457768 0.419230 0.919362 -0.071607
C19   C     C_2   0.451428 0.425360 0.074358 0.072946
C20   C     C_R   0.505333 0.735046 0.500803 0.802884
C21   C     C_R   0.670997 0.497253 0.500925 0.837439
C22   C     C_R   0.811634 0.583859 0.426733 -0.218717
C23   C     C_R   0.767582 0.496265 0.503740 -0.126803
C24   C     C_R   0.815557 0.411312 0.583193 -0.047913
C25   C     C_R   0.909275 0.416934 0.585310 0.032988
C26   C     C_R   0.953316 0.507277 0.507450 0.076421
Cu1   Cu    Cu3+1 0.500020 0.500020 0.638630 1.022035
Cu2   Cu    Cu3+1 0.499980 0.499980 0.361370 1.042659
H1    H     H_    0.773436 0.649166 0.367490 0.166192
H2    H     H_    0.454872 0.089902 0.565589 0.151581
H3    H     H_    0.422871 0.345593 0.865214 0.162239
H4    H     H_    0.527328 0.573018 0.896256 0.215327
H5    H     H_    0.546509 0.551809 0.107896 0.210916
H6    H     H_    0.929427 0.267034 0.727833 0.172489
H7    H     H_    0.089638 0.278328 0.727249 0.161592
H8    H     H_    0.225063 0.368564 0.647730 0.158606
H9    H     H_    0.907265 0.753110 0.307931 0.185162
N1    N     N_2   0.499020 0.498660 0.846910 -0.270176
N2    N     N_2   0.499000 0.498630 0.153040 -0.311976
O1    O     O_R   0.500020 0.321960 0.617040 -0.579920
O2    O     O_R   0.499980 0.321920 0.382900 -0.559642
O3    O     O_R   0.370270 0.499990 0.617090 -0.586698
O4    O     O_R   0.370240 0.499950 0.382940 -0.526710
O5    O     O_R   0.500020 0.678080 0.617100 -0.546079
O6    O     O_R   0.499980 0.678040 0.382960 -0.554184
O7    O     O_R   0.629760 0.500050 0.617060 -0.544821
O8    O     O_R   0.629730 0.500010 0.382910 -0.570015
C27   C     C_2   0.573274 0.912695 0.633993 0.862371
O9    O     O_2   0.541562 0.888566 0.745968 -0.554006
O10   O     O_R   0.650480 0.983845 0.627991 -0.710218
H10   H     H_    0.673102 0.010374 0.722770 0.360003
C28   C     C_2   0.612095 0.119169 0.306108 0.973379
O11   O     O_2   0.627294 0.069337 0.195269 -0.560268
O12   O     O_R   0.662614 0.220843 0.348227 -0.737010
H11   H     H_    0.707783 0.245825 0.277116 0.337078
C29   C     C_2   0.388073 0.339394 0.134890 0.904256
O13   O     O_2   0.312424 0.372455 0.159639 -0.561816
O14   O     O_R   0.412653 0.217749 0.153058 -0.748161
H12   H     H_    0.363139 0.166926 0.193363 0.355154
C30   C     C_2   0.768111 0.313637 0.657393 0.846454
O15   O     O_2   0.770380 0.208590 0.613253 -0.546189
O16   O     O_R   0.723036 0.341359 0.778941 -0.727784
H13   H     H_    0.693283 0.267062 0.819609 0.342311
Br1   Br    Br    0.249242 0.682873 0.275305 -0.377138
C31   C     C_2   0.075067 0.815311 0.320735 0.929055
O17   O     O_2   0.126609 0.872339 0.396320 -0.549646
O18   O     O_R   0.046068 0.865510 0.196329 -0.733050
H14   H     H_    0.074187 0.948044 0.178618 0.351657
C32   C     C_2   0.484735 0.892352 0.256319 0.995114
O19   O     O_2   0.408666 0.919878 0.224526 -0.547908
O20   O     O_R   0.536587 0.823433 0.165635 -0.710597
H15   H     H_    0.503197 0.799796 0.077683 0.345415

loop_
_geom_bond_atom_site_label_1
_geom_bond_atom_site_label_2
_ccdc_geom_bond_type
C19   C29   S    
C2    C22   A    
C12   O3    A    
C11   C12   S    
Cu2   O8    S    
C6    C7    A    
C22   H1    S    
H4    N1    S    
Cu2   N2    S    
Cu2   O4    S    
C1    C17   S    
C20   O6    A    
C3    H6    S    
C7    C13   A    
Cu1   O1    S    
C24   C30   S    
C27   O10   S    
O10   H10   S    
C6    C26   A    
C4    H7    S    
O20   H15   S    
C2    C26   A    
H5    N2    S    
C29   O13   D    
C30   O16   S    
C17   H2    S    
C11   C13   A    
Cu1   O3    S    
O16   H13   S    
C13   Br1   S    
C19   N2    D    
C15   C27   S    
Cu1   O7    S    
C5    C10   A    
C27   O9    D    
C20   O5    A    
C29   O14   S    
C18   C19   S    
C12   O4    A    
C32   O19   D    
C21   C23   S    
C18   N1    D    
C5    C6    A    
C24   C25   A    
C14   C32   S    
C14   C16   S    
Cu2   O6    S    
O14   H12   S    
C8    C31   S    
C7    C8    A    
C31   O17   D    
Cu1   N1    S    
O18   H14   S    
C16   C28   S    
Cu2   O2    S    
C3    C25   A    
C28   O11   D    
C8    C9    A    
C15   C20   S    
C21   O7    A    
C10   C11   A    
C1    O2    A    
Cu1   Cu2   S    
C32   O20   S    
C22   C23   A    
C30   O15   D    
C10   H8    S    
C18   H3    S    
C23   C24   A    
C1    O1    A    
C21   O8    A    
C25   C26   A    
O12   H11   S    
C2    C9    A    
Cu1   O5    S    
C3    C4    A    
C14   C15   D    
C16   C17   D    
C28   O12   S    
C4    C5    A    
C31   O18   S    
C9    H9    S    
