data_mof_unit_2015.cif
_audit_creation_date              2012-12-10T18:57:10-0500
_audit_creation_method            fapswitch 2.2
_symmetry_space_group_name_H-M    P1
_symmetry_Int_Tables_number       1
_space_group_crystal_system       triclinic
_cell_length_a                    8.724032
_cell_length_b                    10.82148
_cell_length_c                    9.544576
_cell_angle_alpha                 90.511926
_cell_angle_beta                  97.692423
_cell_angle_gamma                 90.306056
_cell_volume                      892.910270262

loop_
_atom_site_label
_atom_site_type_symbol
_atom_type_description
_atom_site_fract_x
_atom_site_fract_y
_atom_site_fract_z
_atom_type_partial_charge
C1    C     C_R   0.494296 0.262210 0.498583 0.819500
C2    C     C_R   0.440161 0.932256 0.370554 -0.295559
C3    C     C_R   0.479117 0.870333 0.498914 -0.142174
C4    C     C_R   0.491387 0.937835 0.624884 0.127144
C5    C     C_3   0.612881 0.934723 0.750931 -0.460838
C6    C     C_3   0.612709 0.074920 0.748396 -0.429333
C7    C     C_R   0.568496 0.594633 0.082876 0.161232
C8    C     C_R   0.417955 0.414529 0.063497 -0.049493
C9    C     C_R   0.418069 0.414343 0.914651 -0.083577
C10   C     C_R   0.569108 0.594219 0.935444 0.241938
C11   C     C_3   0.735314 0.631656 0.949715 -0.575823
C12   C     C_R   0.204012 0.498760 0.464049 0.870065
C13   C     C_3   0.734600 0.632511 0.108950 -0.223113
C14   C     C_R   0.497168 0.737628 0.500172 0.851252
C15   C     C_R   0.796127 0.499984 0.536140 0.896350
C16   C     C_2   0.038517 0.495261 0.444644 -0.317108
C17   C     C_2   0.961952 0.501203 0.556361 -0.360086
C18   C     C_R   0.490878 0.064808 0.622952 0.054178
C19   C     C_R   0.474810 0.128797 0.495503 -0.184007
C20   C     C_R   0.431948 0.061904 0.367866 0.434181
Cu1   Cu    Cu3+1 0.499990 0.499980 0.640670 0.941578
Cu2   Cu    Cu3+1 0.500010 0.500020 0.359330 0.970316
H1    H     H_    0.979722 0.486669 0.337656 0.162726
H2    H     H_    0.353990 0.343621 0.850375 0.135819
H3    H     H_    0.810010 0.558023 0.914064 0.218416
H4    H     H_    0.752008 0.723758 0.903598 0.183161
H5    H     H_    0.809784 0.560425 0.162889 0.186579
H6    H     H_    0.021278 0.507998 0.663882 0.167768
H7    H     H_    0.421753 0.881008 0.271676 0.166708
H8    H     H_    0.567685 0.896490 0.845190 0.184624
H9    H     H_    0.723200 0.893925 0.726687 0.199090
H10   H     H_    0.568374 0.117330 0.841375 0.197680
H11   H     H_    0.722684 0.115446 0.722166 0.196393
H12   H     H_    0.353342 0.344520 0.110668 0.165488
N1    N     N_R   0.500980 0.500930 0.148050 -0.192115
N2    N     N_R   0.500990 0.500890 0.852140 -0.176022
O1    O     O_R   0.500000 0.319640 0.618810 -0.595534
O2    O     O_R   0.500020 0.319680 0.381230 -0.540478
O3    O     O_R   0.274830 0.499980 0.591380 -0.583795
O4    O     O_R   0.274850 0.500020 0.353800 -0.591996
O5    O     O_R   0.499980 0.680320 0.618770 -0.581970
O6    O     O_R   0.500000 0.680360 0.381190 -0.583299
O7    O     O_R   0.725150 0.499980 0.646200 -0.593746
O8    O     O_R   0.725170 0.500020 0.408620 -0.570947
C21   C     C_2   0.755759 0.758875 0.175438 0.427659
H13   H     H_    0.686498 0.835867 0.131322 0.052301
O9    O     O_2   0.850768 0.775686 0.279951 -0.552824
O10   O     O_3   0.402424 0.123051 0.240060 -0.603204
C22   C     C_3   0.256788 0.088267 0.165181 0.029978
H14   H     H_    0.181703 0.171203 0.156579 0.148786
H15   H     H_    0.193038 0.015843 0.217319 0.148910
C23   C     C_3   0.278805 0.044587 0.016347 -0.339265
H16   H     H_    0.333169 0.119947 0.961497 0.211637
H17   H     H_    0.357134 0.963573 0.023463 0.210921
C24   C     C_3   0.124990 0.008580 0.929534 -0.910028
H18   H     H_    0.069751 0.931357 0.980653 0.263447
H19   H     H_    0.145460 0.978115 0.822210 0.259079
H20   H     H_    0.045587 0.088877 0.919016 0.251435

loop_
_geom_bond_atom_site_label_1
_geom_bond_atom_site_label_2
_ccdc_geom_bond_type
C12   O4    A    
C7    C10   A    
C6    H10   S    
C24   H18   S    
C6    H11   S    
C9    H2    S    
C9    N2    A    
C19   C20   A    
Cu1   O3    S    
C23   C24   S    
C1    O1    A    
C14   O6    A    
C22   C23   S    
Cu2   O4    S    
C12   O3    A    
C21   O9    D    
C2    C3    A    
C15   O7    A    
Cu1   N2    S    
C8    H12   S    
C21   H13   S    
C13   C21   S    
Cu2   N1    S    
C11   C13   S    
Cu2   O6    S    
C3    C14   S    
C1    O2    A    
C14   O5    A    
Cu1   O5    S    
C4    C5    S    
O10   C22   S    
C23   H17   S    
C15   O8    A    
C18   C19   A    
C16   H1    S    
C24   H19   S    
C5    C6    S    
C6    C18   S    
Cu2   O8    S    
C1    C19   S    
C16   C17   D    
C10   C11   S    
C11   H3    S    
C2    C20   A    
C3    C4    A    
Cu2   O2    S    
C7    C13   S    
C2    H7    S    
C23   H16   S    
Cu1   O1    S    
C22   H14   S    
C5    H8    S    
C24   H20   S    
C15   C17   S    
C13   H5    S    
C10   N2    A    
C20   O10   S    
C11   H4    S    
C5    H9    S    
Cu1   Cu2   S    
C17   H6    S    
C7    N1    A    
C4    C18   A    
Cu1   O7    S    
C12   C16   S    
C8    C9    A    
C22   H15   S    
C8    N1    A    
