data_mof_unit_2870.cif
_audit_creation_date              2012-12-10T17:40:28-0500
_audit_creation_method            fapswitch 2.2
_symmetry_space_group_name_H-M    P1
_symmetry_Int_Tables_number       1
_space_group_crystal_system       triclinic
_cell_length_a                    13.700667
_cell_length_b                    15.054901
_cell_length_c                    15.827326
_cell_angle_alpha                 89.749092
_cell_angle_beta                  70.046425
_cell_angle_gamma                 89.941138
_cell_volume                      3068.57455182

loop_
_atom_site_label
_atom_site_type_symbol
_atom_type_description
_atom_site_fract_x
_atom_site_fract_y
_atom_site_fract_z
_atom_type_partial_charge
C1    C     C_R   0.498677 0.671089 0.503209 0.821542
C2    C     C_R   0.501304 0.328900 0.496833 0.821976
C3    C     C_R   0.376034 0.536512 0.095381 -0.230186
C4    C     C_R   0.625036 0.532926 0.903896 -0.233093
C5    C     C_R   0.303746 0.538352 0.051810 -0.226648
C6    C     C_R   0.697343 0.533642 0.947450 -0.227574
C7    C     C_R   0.538568 0.187255 0.553504 -0.295243
C8    C     C_R   0.461404 0.812710 0.446580 -0.294605
C9    C     C_R   0.503436 0.232440 0.492242 -0.065835
C10   C     C_R   0.496498 0.767528 0.507859 -0.065590
C11   C     C_R   0.470170 0.185628 0.429485 0.117491
C12   C     C_R   0.529620 0.814320 0.570713 0.116591
C13   C     C_R   0.466091 0.091697 0.434241 0.102231
C14   C     C_R   0.533699 0.908252 0.565968 0.102296
C15   C     C_R   0.500845 0.046765 0.497777 0.029931
C16   C     C_R   0.498988 0.953190 0.502406 0.029997
C17   C     C_R   0.537925 0.095131 0.556562 0.112703
C18   C     C_R   0.461955 0.904827 0.443588 0.112417
C19   C     C_R   0.428580 0.041226 0.377000 -0.207151
C20   C     C_R   0.571179 0.958720 0.623229 -0.207136
C21   C     C_R   0.426831 0.949029 0.381635 -0.203752
C22   C     C_R   0.573005 0.050921 0.618544 -0.204007
C23   C     C_R   0.437112 0.500825 0.672473 0.802594
C24   C     C_R   0.562890 0.500779 0.327527 0.803664
C25   C     C_R   0.231620 0.547883 0.436322 0.010929
C26   C     C_R   0.768423 0.452066 0.563612 0.010441
C27   C     C_R   0.181573 0.452359 0.563824 0.009737
C28   C     C_R   0.818428 0.547630 0.436144 0.010711
C29   C     C_R   0.077882 0.451324 0.565424 -0.005291
C30   C     C_R   0.922152 0.548632 0.434484 -0.004388
C31   C     C_R   0.051820 0.499998 0.499970 0.089009
C32   C     C_R   0.948222 0.499965 0.499935 0.088781
C33   C     C_R   0.129300 0.548717 0.434565 -0.004843
C34   C     C_R   0.870758 0.451214 0.565321 -0.006635
C35   C     C_R   0.999966 0.402961 0.630603 -0.202062
C36   C     C_R   0.000103 0.596910 0.369231 -0.201712
C37   C     C_R   0.897363 0.402910 0.630556 -0.206779
C38   C     C_R   0.102727 0.596932 0.369251 -0.207612
C39   C     C_R   0.399685 0.507522 0.771003 -0.102879
C40   C     C_R   0.600420 0.506755 0.228908 -0.101108
C41   C     C_R   0.260350 0.527483 0.913933 0.189588
C42   C     C_R   0.740335 0.523308 0.085620 0.189412
C43   C     C_R   0.294197 0.517598 0.820373 -0.188322
C44   C     C_R   0.706170 0.514699 0.179384 -0.188262
C45   C     C_R   0.472033 0.507510 0.815153 -0.263886
C46   C     C_R   0.528093 0.507928 0.184733 -0.267102
C47   C     C_R   0.442375 0.521766 0.908048 0.050143
C48   C     C_R   0.558213 0.521138 0.091543 0.049561
C49   C     C_R   0.334638 0.529226 0.958391 0.145686
C50   C     C_R   0.666150 0.526043 0.041078 0.145778
C51   C     C_R   0.517342 0.526492 0.952098 0.082411
C52   C     C_R   0.483438 0.527228 0.047360 0.083987
Cu1   Cu    Cu3+1 0.402580 0.500010 0.499990 0.936945
Cu2   Cu    Cu3+1 0.597420 0.499990 0.500010 0.937123
H1    H     H_    0.291767 0.585599 0.386822 0.123952
H2    H     H_    0.708298 0.414311 0.613085 0.124072
H3    H     H_    0.202934 0.414996 0.613460 0.127036
H4    H     H_    0.797051 0.584992 0.386514 0.125658
H5    H     H_    0.018351 0.365167 0.681616 0.137879
H6    H     H_    0.981735 0.634642 0.318169 0.136440
H7    H     H_    0.838834 0.365102 0.681556 0.136754
H8    H     H_    0.161294 0.634637 0.318167 0.133263
H9    H     H_    0.448088 0.496258 0.224614 0.160473
H10   H     H_    0.551630 0.494094 0.775481 0.156417
H11   H     H_    0.762247 0.513969 0.213870 0.153336
H12   H     H_    0.238093 0.517682 0.785914 0.155370
H13   H     H_    0.564892 0.224458 0.600308 0.147467
H14   H     H_    0.435161 0.775511 0.399722 0.148124
H15   H     H_    0.399599 0.072035 0.328419 0.157659
H16   H     H_    0.600102 0.927900 0.671840 0.157584
N1    N     N_R   0.256170 0.500070 0.500040 -0.181055
N2    N     N_R   0.743830 0.499930 0.499960 -0.180931
O1    O     O_R   0.417730 0.629750 0.499970 -0.580795
O2    O     O_R   0.582270 0.370250 0.500030 -0.580267
O3    O     O_R   0.582270 0.629730 0.499980 -0.575123
O4    O     O_R   0.417730 0.370270 0.500020 -0.574575
O5    O     O_R   0.371590 0.500020 0.629830 -0.587337
O6    O     O_R   0.628410 0.499980 0.370170 -0.586800
O7    O     O_R   0.536130 0.499990 0.629840 -0.595559
O8    O     O_R   0.463870 0.500010 0.370160 -0.595659
H17   H     H_    0.222938 0.546100 0.092830 0.158922
H18   H     H_    0.778387 0.539250 0.906274 0.160860
C53   C     C_3   0.145307 0.536325 0.964260 -0.916021
H19   H     H_    0.099373 0.533535 0.918485 0.238796
H20   H     H_    0.118510 0.481262 0.013684 0.236430
H21   H     H_    0.128900 0.601000 0.999779 0.235447
C54   C     C_3   0.855607 0.529776 0.035176 -0.916548
H22   H     H_    0.901395 0.526674 0.081078 0.237916
H23   H     H_    0.880939 0.473835 0.987133 0.235729
H24   H     H_    0.873810 0.593833 0.998068 0.236585
H25   H     H_    0.345046 0.546006 0.167102 0.138189
H26   H     H_    0.656410 0.541004 0.831948 0.146220
C55   C     C_3   0.444211 0.234171 0.355492 -0.855715
H27   H     H_    0.489282 0.205210 0.289225 0.222207
H28   H     H_    0.359884 0.228166 0.367012 0.235490
H29   H     H_    0.465030 0.305481 0.349871 0.240064
C56   C     C_3   0.555406 0.765749 0.644785 -0.854028
H30   H     H_    0.510208 0.794677 0.711035 0.222988
H31   H     H_    0.534615 0.694433 0.650335 0.241213
H32   H     H_    0.639698 0.771757 0.633411 0.234549
H33   H     H_    0.397877 0.912128 0.336441 0.142827
H34   H     H_    0.601975 0.087820 0.663728 0.142526

loop_
_geom_bond_atom_site_label_1
_geom_bond_atom_site_label_2
_ccdc_geom_bond_type
C54   H22   S    
C55   H27   S    
C6    H18   S    
C27   C29   A    
C34   C37   A    
C26   N2    A    
C5    C49   A    
C56   H30   S    
C2    O4    A    
C47   C49   A    
Cu1   Cu2   S    
C40   C46   A    
C35   H5    S    
C19   C21   A    
C15   C16   A    
C18   C21   A    
Cu2   O6    S    
C3    H25   S    
Cu2   O2    S    
C26   C34   A    
C47   C51   A    
C31   C32   A    
C7    C17   A    
C31   C33   A    
C25   N1    A    
C2    O2    A    
C39   C45   A    
C21   H33   S    
C11   C55   S    
C48   C50   A    
C55   H28   S    
C41   C43   A    
C20   H16   S    
C44   H11   S    
C28   N2    A    
C42   C44   A    
C41   C49   A    
C56   H31   S    
C24   O8    A    
C45   C47   A    
C46   C48   A    
C13   C19   A    
C4    C51   A    
C51   C52   A    
C1    O3    A    
C14   C20   A    
Cu1   O8    S    
C4    C6    A    
C27   H3    S    
C39   C43   A    
C36   H6    S    
C6    C50   A    
C38   H8    S    
C32   C34   A    
Cu1   O5    S    
C5    H17   S    
C53   H19   S    
C40   C44   A    
C16   C18   A    
C23   O5    A    
C9    C11   A    
C12   C56   S    
C10   C12   A    
C42   C50   A    
C24   O6    A    
C53   H20   S    
C20   C22   A    
C8    H14   S    
C55   H29   S    
C13   C15   A    
C14   C16   A    
C19   H15   S    
Cu1   O4    S    
Cu1   N1    S    
C56   H32   S    
C27   N1    A    
Cu2   O7    S    
C15   C17   A    
C35   C37   A    
Cu1   O1    S    
C1    C10   S    
C25   H1    S    
C12   C14   A    
C3    C5    A    
C26   H2    S    
C37   H7    S    
C3    C52   A    
C28   H4    S    
C29   C35   A    
C45   H10   S    
C17   C22   A    
C22   H34   S    
C30   C36   A    
C46   H9    S    
C1    O1    A    
C36   C38   A    
C29   C31   A    
C30   C32   A    
C11   C13   A    
C43   H12   S    
C23   C39   S    
C28   C30   A    
C24   C40   S    
C8    C18   A    
C7    H13   S    
Cu2   O3    S    
C7    C9    A    
C48   C52   A    
C53   H21   S    
Cu2   N2    S    
C8    C10   A    
C54   H24   S    
C54   H23   S    
C33   C38   A    
C42   C54   S    
C23   O7    A    
C2    C9    S    
C25   C33   A    
C4    H26   S    
C41   C53   S    
