data_mof_unit_2390.cif
_audit_creation_date              2012-12-11T16:24:02-0500
_audit_creation_method            fapswitch 2.2
_symmetry_space_group_name_H-M    P1
_symmetry_Int_Tables_number       1
_space_group_crystal_system       triclinic
_cell_length_a                    14.735333
_cell_length_b                    14.758656
_cell_length_c                    33.321265
_cell_angle_alpha                 96.008504
_cell_angle_beta                  96.211592
_cell_angle_gamma                 61.207883
_cell_volume                      6301.85115753

loop_
_atom_site_label
_atom_site_type_symbol
_atom_type_description
_atom_site_fract_x
_atom_site_fract_y
_atom_site_fract_z
_atom_type_partial_charge
C1    C     C_R   0.390999 0.699648 0.446067 0.564152
C2    C     C_R   0.331312 0.348249 0.308235 -0.095135
C3    C     C_R   0.412180 0.265245 0.328001 -0.060020
C4    C     C_R   0.431539 0.273727 0.369746 0.347546
C5    C     C_R   0.395408 0.253255 0.165432 0.359039
C6    C     C_R   0.385776 0.234827 0.123691 -0.093634
C7    C     C_R   0.210119 0.377765 0.121626 -0.098362
C8    C     C_R   0.219685 0.396098 0.163402 0.350150
C9    C     C_R   0.311187 0.331734 0.185456 0.039606
C10   C     C_1   0.316080 0.340342 0.228731 0.142564
C11   C     C_1   0.321470 0.344566 0.265013 0.060974
C12   C     C_R   0.405806 0.386447 0.433871 0.589885
C13   C     C_R   0.291675 0.294397 0.101625 -0.106101
C14   C     C_R   0.753532 0.373493 0.409408 -0.026095
C15   C     C_R   0.787190 0.433387 0.391599 0.395123
C16   C     C_R   0.811420 0.412206 0.351301 -0.103412
C17   C     C_R   0.803008 0.331179 0.328112 -0.027570
C18   C     C_R   0.778151 0.265304 0.346910 0.227923
C19   C     C_R   0.754667 0.286433 0.387346 -0.145318
C20   C     C_R   0.822633 0.313531 0.203054 0.368200
C21   C     C_R   0.811480 0.323769 0.284213 0.356250
C22   C     C_R   0.821129 0.393310 0.139698 0.426172
C23   C     C_R   0.700567 0.410047 0.447437 0.561129
C24   C     C_R   0.854836 0.380817 0.100992 0.370637
C25   C     C_R   0.911271 0.196557 0.099636 0.308299
C26   C     C_R   0.877743 0.209318 0.138249 -0.142905
C27   C     C_R   0.837445 0.306428 0.159525 -0.086331
C28   C     C_R   0.905262 0.281447 0.081440 -0.036753
C29   C     C_R   0.370716 0.754733 0.408977 0.016226
C30   C     C_R   0.278028 0.779845 0.385132 -0.158436
C31   C     C_R   0.267534 0.807784 0.345638 -0.120885
C32   C     C_R   0.349362 0.811558 0.329241 -0.030887
C33   C     C_R   0.437873 0.796532 0.354246 -0.055570
C34   C     C_R   0.393388 0.701660 0.561300 0.560759
C35   C     C_R   0.448759 0.768415 0.393849 0.394480
C36   C     C_R   0.344288 0.829267 0.204458 0.365463
C37   C     C_R   0.345797 0.822181 0.285578 0.338648
C38   C     C_R   0.258509 0.833719 0.135659 -0.156744
C39   C     C_R   0.238148 0.864103 0.096138 -0.111675
C40   C     C_R   0.383302 0.899948 0.104276 -0.072366
C41   C     C_R   0.403942 0.869625 0.143927 0.416158
C42   C     C_R   0.338143 0.841145 0.160660 0.031966
C43   C     C_R   0.297124 0.902419 0.080814 -0.039498
C44   C     C_R   0.370916 0.371621 0.585790 0.028767
C45   C     C_R   0.407133 0.388820 0.549051 0.567850
C46   C     C_R   0.298355 0.458894 0.607721 -0.160992
C47   C     C_R   0.279558 0.451596 0.646922 -0.123484
C48   C     C_R   0.332498 0.356731 0.665141 -0.008703
C49   C     C_R   0.397493 0.267428 0.642134 -0.069374
C50   C     C_R   0.416748 0.273970 0.602663 0.230821
C51   C     C_R   0.324672 0.347584 0.789725 0.368254
C52   C     C_R   0.325940 0.352450 0.708668 0.335918
C53   C     C_R   0.221270 0.398770 0.849686 -0.133302
C54   C     C_R   0.207404 0.379538 0.887989 -0.130678
C55   C     C_R   0.389729 0.254247 0.895462 -0.057029
C56   C     C_R   0.701134 0.413703 0.562745 0.533515
C57   C     C_R   0.404288 0.273394 0.857186 0.248781
C58   C     C_R   0.318255 0.342134 0.833077 0.037830
C59   C     C_R   0.290472 0.303300 0.910288 -0.022259
C60   C     C_R   0.753283 0.380955 0.603082 0.010931
C61   C     C_R   0.776913 0.448350 0.629710 -0.101803
C62   C     C_R   0.804688 0.428064 0.670492 -0.082108
C63   C     C_R   0.809652 0.340149 0.685058 0.028911
C64   C     C_R   0.792336 0.269535 0.658398 -0.102665
C65   C     C_R   0.764572 0.289576 0.617602 -0.111519
C66   C     C_R   0.886420 0.213918 0.822767 -0.125116
C67   C     C_R   0.370133 0.366710 0.392189 0.020822
C68   C     C_R   0.914579 0.201834 0.864024 -0.112680
C69   C     C_R   0.869780 0.383310 0.873874 -0.078636
C70   C     C_R   0.841350 0.395657 0.832619 0.252155
C71   C     C_R   0.852727 0.309819 0.806765 0.043989
C72   C     C_1   0.837248 0.317748 0.763676 0.060425
C73   C     C_1   0.825508 0.326441 0.727720 0.029191
C74   C     C_R   0.910003 0.285621 0.889740 -0.023509
C75   C     C_R   0.375427 0.754681 0.602309 -0.031160
C76   C     C_R   0.288030 0.768719 0.621169 -0.181079
C77   C     C_R   0.278875 0.795342 0.662352 -0.182852
C78   C     C_R   0.283477 0.446827 0.372158 0.329228
C79   C     C_R   0.356104 0.809571 0.685492 0.001360
C80   C     C_R   0.439645 0.803926 0.666994 0.435564
C81   C     C_R   0.449698 0.777279 0.625434 0.249257
C82   C     C_R   0.393328 0.887233 0.831817 -0.103925
C83   C     C_R   0.374075 0.916626 0.872418 0.323282
C84   C     C_R   0.236130 0.869054 0.864590 0.360849
C85   C     C_R   0.256000 0.839508 0.823827 0.260159
C86   C     C_R   0.332566 0.851989 0.807211 -0.082027
C87   C     C_1   0.344423 0.836169 0.764497 0.086814
C88   C     C_1   0.351068 0.824720 0.728520 0.099136
C89   C     C_R   0.264957 0.437394 0.330383 -0.078730
C90   C     C_R   0.292174 0.911948 0.888976 -0.019432
C91   C     C_R   0.963214 0.264162 0.045497 0.595708
C92   C     C_R   0.272808 0.259455 0.059995 0.549375
C93   C     C_R   0.259298 0.959557 0.043755 0.551470
C94   C     C_R   0.962618 0.267657 0.930711 0.541951
C95   C     C_R   0.270938 0.264081 0.945412 0.547402
C96   C     C_R   0.256461 0.964665 0.928977 0.585330
Cr1   Cr    Cr6+3 0.576280 0.580550 0.506370 1.194256
Cr2   Cr    Cr6+3 0.346780 0.572400 0.496520 1.099624
Cr3   Cr    Cr6+3 0.576960 0.347070 0.497150 1.115719
Cr4   Cr    Cr6+3 0.087320 0.083240 0.984860 1.141445
Cr5   Cr    Cr6+3 0.087720 0.316210 0.996740 1.088814
Cr6   Cr    Cr6+3 0.317350 0.090340 0.995890 1.113130
H1    H     H_    0.449949 0.170299 0.109086 0.191490
H2    H     H_    0.729731 0.238672 0.400525 0.208338
H3    H     H_    0.832698 0.462246 0.337668 0.189103
H4    H     H_    0.888617 0.141467 0.152244 0.208547
H5    H     H_    0.215886 0.771610 0.396019 0.196268
H6    H     H_    0.172094 0.863687 0.078525 0.195473
H7    H     H_    0.197286 0.821195 0.327372 0.184934
H8    H     H_    0.501317 0.801038 0.342603 0.192526
H9    H     H_    0.207996 0.809729 0.147235 0.178301
H10   H     H_    0.430829 0.928032 0.092977 0.174830
H11   H     H_    0.260755 0.534910 0.595696 0.150687
H12   H     H_    0.130059 0.419029 0.898798 0.163518
H13   H     H_    0.227567 0.521602 0.663602 0.166188
H14   H     H_    0.436510 0.192699 0.655233 0.191015
H15   H     H_    0.463100 0.195437 0.310880 0.207923
H16   H     H_    0.154248 0.452741 0.831948 0.176070
H17   H     H_    0.455361 0.197279 0.912813 0.192457
H18   H     H_    0.945753 0.125490 0.875253 0.186081
H19   H     H_    0.895153 0.147327 0.803077 0.161638
H20   H     H_    0.796250 0.201138 0.669420 0.144322
H21   H     H_    0.746665 0.236230 0.597954 0.163548
H22   H     H_    0.768501 0.519541 0.619584 0.184318
H23   H     H_    0.865210 0.449091 0.893095 0.178898
H24   H     H_    0.818191 0.483076 0.690962 0.172255
H25   H     H_    0.453189 0.896029 0.819159 0.205760
H26   H     H_    0.229001 0.753277 0.604639 0.167471
H27   H     H_    0.213381 0.800740 0.676464 0.169673
H28   H     H_    0.136715 0.424949 0.105425 0.199163
H29   H     H_    0.201425 0.501498 0.315123 0.188689
N1    N     N_R   0.783692 0.406096 0.224576 -0.084872
N2    N     N_R   0.263567 0.438709 0.731084 -0.196846
N3    N     N_R   0.387241 0.263691 0.727587 -0.195861
N4    N     N_R   0.386074 0.261191 0.767273 -0.131241
N5    N     N_R   0.777968 0.411156 0.264341 -0.201479
N6    N     N_R   0.850731 0.231138 0.262814 -0.116740
N7    N     N_R   0.856325 0.226136 0.223029 -0.201543
N8    N     N_R   0.266363 0.824818 0.220938 -0.217275
N9    N     N_R   0.267282 0.820950 0.260634 -0.197139
N10   N     N_R   0.424055 0.826258 0.269169 -0.189448
N11   N     N_R   0.422979 0.830335 0.229410 -0.076929
N12   N     N_R   0.262315 0.436156 0.770811 -0.186226
O1    O     O_R   0.679450 0.499830 0.463150 -0.398033
O2    O     O_R   0.356040 0.477400 0.534170 -0.517041
O3    O     O_R   0.495910 0.323070 0.537100 -0.444942
O4    O     O_R   0.663920 0.359620 0.542290 -0.506552
O5    O     O_3   0.500010 0.500010 0.500010 -0.308344
O6    O     O_R   0.170070 0.978950 0.027680 -0.466789
O7    O     O_R   0.001760 0.175230 0.026640 -0.434516
O8    O     O_R   0.984760 0.333570 0.037150 -0.447931
O9    O     O_R   0.183410 0.309240 0.041890 -0.496109
O10   O     O_R   0.340240 0.172500 0.045430 -0.506666
O11   O     O_R   0.309670 0.000990 0.032050 -0.509112
O12   O     O_R   0.480650 0.664000 0.464630 -0.422106
O13   O     O_R   0.168330 0.982130 0.939200 -0.451520
O14   O     O_R   0.000140 0.178170 0.944610 -0.498048
O15   O     O_R   0.983010 0.336750 0.948660 -0.509197
O16   O     O_R   0.181800 0.312190 0.959860 -0.504127
O17   O     O_R   0.338500 0.175680 0.956950 -0.470472
O18   O     O_R   0.308050 0.003930 0.950020 -0.434874
O19   O     O_3   0.164130 0.163270 0.992500 -0.294075
O20   O     O_R   0.323930 0.675950 0.455370 -0.495329
O21   O     O_R   0.354700 0.475360 0.451930 -0.439768
O22   O     O_R   0.494470 0.320860 0.448390 -0.435164
O23   O     O_R   0.662580 0.357570 0.460050 -0.522985
O24   O     O_R   0.680900 0.502040 0.551870 -0.484760
O25   O     O_R   0.481990 0.666040 0.546870 -0.445428
O26   O     O_R   0.325370 0.678160 0.544080 -0.525722
F1    F     F_    0.842450 0.465592 0.083575 -0.533029
Cl1   Cl    Cl    0.762802 0.163134 0.320458 -0.448547
F2    F     F_    0.778034 0.489724 0.158325 -0.509025
F3    F     F_    0.956453 0.099444 0.081648 -0.588728
F4    F     F_    0.538431 0.748322 0.416173 -0.547459
F5    F     F_    0.484814 0.190934 0.186544 -0.565343
F6    F     F_    0.483725 0.875342 0.166409 -0.545904
Cl2   Cl    Cl    0.500148 0.157944 0.576279 -0.482169
Cl3   Cl    Cl    0.531296 0.208542 0.840698 -0.492314
Cl4   Cl    Cl    0.797553 0.518240 0.813892 -0.527320
F7    F     F_    0.513912 0.192999 0.387534 -0.559293
F8    F     F_    0.431919 0.955396 0.894557 -0.576335
F9    F     F_    0.513117 0.820830 0.689613 -0.554536
Cl5   Cl    Cl    0.557524 0.771279 0.604430 -0.436804
Cl6   Cl    Cl    0.180451 0.791799 0.793648 -0.470265
F10   F     F_    0.159236 0.859685 0.879705 -0.550183
F11   F     F_    0.220117 0.536985 0.392268 -0.590565
F12   F     F_    0.137818 0.472857 0.182531 -0.573616
F13   F     F_    0.790742 0.516180 0.412143 -0.541462

loop_
_geom_bond_atom_site_label_1
_geom_bond_atom_site_label_2
_ccdc_geom_bond_type
C66   C68   A    
Cr3   O5    S    
C53   C58   A    
C55   C59   A    
C30   H5    S    
C52   N3    A    
C41   C42   A    
C74   C94   S    
C36   C42   S    
C21   N6    A    
C87   C88   T    
C26   H4    S    
Cr2   O20   S    
C7    C8    A    
C40   H10   S    
C55   H17   S    
C85   C86   A    
C25   C28   A    
C47   H13   S    
C26   C27   A    
C29   C30   A    
C37   N10   A    
C61   H22   S    
C95   O16   A    
Cr5   O19   S    
C20   N1    A    
C38   C42   A    
C57   Cl3   S    
C80   C81   A    
C70   Cl4   S    
C68   C74   A    
C15   C16   A    
C96   O18   A    
C83   F8    S    
C18   C19   A    
C20   N7    A    
C1    O12   A    
C36   N11   A    
C7    H28   S    
C3    H15   S    
C91   O7    A    
C43   C93   S    
Cr2   O26   S    
C51   N4    A    
Cr4   O14   S    
C40   C43   A    
C66   C71   A    
C53   C54   A    
C16   C17   A    
C37   N9    A    
C92   O9    A    
C92   O10   A    
C78   F11   S    
C80   F9    S    
C24   F1    S    
C9    C10   S    
Cr6   O11   S    
C21   N5    A    
N1    N5    A    
C34   C75   S    
Cr3   O23   S    
Cr4   O13   S    
Cr1   O12   S    
C69   H23   S    
C8    F12   S    
C52   N2    A    
C5    F5    S    
C84   F10   S    
C61   C62   A    
C67   C78   A    
C84   C90   A    
C4    F7    S    
C34   O25   A    
C2    C11   S    
C79   C88   S    
C44   C46   A    
C17   C18   A    
C54   C59   A    
C77   C79   A    
C78   C89   A    
C39   H6    S    
C12   C67   S    
N2    N12   A    
C32   C37   S    
C63   C64   A    
C95   O17   A    
C47   C48   A    
C50   Cl2   S    
C38   C39   A    
C76   C77   A    
Cr6   O17   S    
C12   O22   A    
C62   H24   S    
C53   H16   S    
C8    C9    A    
C39   C43   A    
C63   C73   S    
Cr4   O7    S    
C25   C26   A    
Cr1   O24   S    
Cr5   O8    S    
C17   C21   S    
C56   C60   S    
C60   C61   A    
C14   C23   S    
C2    C89   A    
C75   C76   A    
Cr1   O1    S    
C5    C9    A    
C62   C63   A    
C12   O21   A    
C23   O23   A    
C19   H2    S    
C31   C32   A    
C7    C13   A    
C30   C31   A    
Cr6   O19   S    
C1    C29   S    
C93   O6    A    
C31   H7    S    
C66   H19   S    
C69   C74   A    
C51   C58   S    
C77   H27   S    
C6    H1    S    
C84   C85   A    
Cr6   O10   S    
C1    O20   A    
C70   C71   A    
C34   O26   A    
C16   H3    S    
C59   C95   S    
C48   C49   A    
Cr2   O2    S    
Cr3   O3    S    
Cr5   O15   S    
C49   C50   A    
C94   O14   A    
C22   C27   A    
C55   C57   A    
C13   C92   S    
C76   H26   S    
Cr1   O5    S    
C45   O2    A    
C23   O1    A    
C96   O13   A    
C3    C4    A    
C18   Cl1   S    
C44   C45   S    
N6    N7    A    
C44   C50   A    
C83   C90   A    
Cr3   O4    S    
C46   C47   A    
C40   C41   A    
C46   H11   S    
C86   C87   S    
C35   F4    S    
C14   C19   A    
C41   F6    S    
C75   C81   A    
C24   C28   A    
C72   C73   T    
C93   O11   A    
C60   C65   A    
C4    C67   A    
Cr2   O21   S    
N8    N9    A    
C90   C96   S    
N3    N4    A    
C20   C27   S    
C51   N12   A    
Cr4   O6    S    
C85   Cl6   S    
Cr1   O25   S    
C15   F13   S    
C29   C35   A    
Cr5   O9    S    
C45   O3    A    
C89   H29   S    
C64   C65   A    
C56   O4    A    
C2    C3    A    
C71   C72   S    
C82   C86   A    
N10   N11   A    
C32   C33   A    
C6    C13   A    
C91   O8    A    
C57   C58   A    
C5    C6    A    
Cr2   O5    S    
Cr6   O18   S    
C64   H20   S    
C54   H12   S    
C56   O24   A    
C33   C35   A    
C28   C91   S    
C22   C24   A    
C65   H21   S    
C69   C70   A    
C36   N8    A    
C82   H25   S    
C10   C11   T    
C79   C80   A    
C25   F3    S    
C48   C52   S    
C49   H14   S    
Cr5   O16   S    
C68   H18   S    
C94   O15   A    
C82   C83   A    
C81   Cl5   S    
C14   C15   A    
Cr4   O19   S    
C33   H8    S    
C38   H9    S    
C22   F2    S    
Cr3   O22   S    
