data_mof_unit_683.cif
_audit_creation_date              2012-12-11T14:03:50-0500
_audit_creation_method            fapswitch 2.2
_symmetry_space_group_name_H-M    P1
_symmetry_Int_Tables_number       1
_space_group_crystal_system       triclinic
_cell_length_a                    19.404991
_cell_length_b                    10.893157
_cell_length_c                    18.718268
_cell_angle_alpha                 89.999987
_cell_angle_beta                  88.139912
_cell_angle_gamma                 90.0
_cell_volume                      3954.61278679

loop_
_atom_site_label
_atom_site_type_symbol
_atom_type_description
_atom_site_fract_x
_atom_site_fract_y
_atom_site_fract_z
_atom_type_partial_charge
C1    C     C_R   0.242773 0.461767 0.650184 0.580843
C2    C     C_R   0.760083 0.468434 0.353803 0.548185
C3    C     C_R   0.739917 0.968434 0.646197 0.548186
C4    C     C_R   0.257227 0.961767 0.349816 0.580844
C5    C     C_2   0.251399 0.792916 0.525303 -0.052754
C6    C     C_2   0.714372 0.836277 0.463137 -0.054980
C7    C     C_2   0.785628 0.336277 0.536863 -0.054980
C8    C     C_2   0.248601 0.292916 0.474697 -0.052754
C9    C     C_R   0.957463 0.646599 0.440035 0.070670
C10   C     C_R   0.041025 0.661597 0.559919 0.063086
C11   C     C_R   0.458975 0.161597 0.440081 0.063086
C12   C     C_R   0.542537 0.146599 0.559965 0.070670
C13   C     C_R   0.917299 0.850779 0.466956 0.325673
C14   C     C_R   0.024482 0.890063 0.555573 0.348081
C15   C     C_R   0.475518 0.390063 0.444427 0.348081
C16   C     C_R   0.582701 0.350779 0.533044 0.325672
C17   C     C_R   0.927121 0.967939 0.494345 0.406313
C18   C     C_R   0.982199 0.987983 0.537979 0.470268
C19   C     C_R   0.517800 0.487983 0.462021 0.470268
C20   C     C_R   0.572879 0.467939 0.505655 0.406313
C21   C     C_R   0.010993 0.769547 0.531940 -0.121893
C22   C     C_R   0.963745 0.756977 0.477593 -0.098295
C23   C     C_R   0.536255 0.256977 0.522407 -0.098295
C24   C     C_R   0.489007 0.269547 0.468060 -0.121894
C25   C     C_R   0.034139 0.550441 0.521724 -0.092319
C26   C     C_R   0.984233 0.538125 0.470304 -0.113467
C27   C     C_R   0.515767 0.038125 0.529696 -0.113467
C28   C     C_R   0.465860 0.050441 0.478276 -0.092320
C29   C     C_R   0.079623 0.452851 0.530599 0.327142
C30   C     C_R   0.967555 0.417595 0.447676 0.342618
C31   C     C_R   0.532444 0.917595 0.552323 0.342618
C32   C     C_R   0.420377 0.952851 0.469401 0.327142
C33   C     C_R   0.066026 0.336055 0.503416 0.424965
C34   C     C_R   0.008513 0.318346 0.463635 0.476433
C35   C     C_R   0.491487 0.818347 0.536365 0.476433
C36   C     C_R   0.433974 0.836055 0.496584 0.424965
C37   C     C_2   0.237122 0.900496 0.928034 -0.067742
C38   C     C_2   0.746291 0.929978 0.084491 -0.051751
C39   C     C_2   0.753709 0.429977 0.915509 -0.051748
C40   C     C_2   0.262878 0.400496 0.071965 -0.067742
C41   C     C_2   0.251339 0.897049 0.084453 -0.159702
C42   C     C_2   0.741477 0.940959 0.927939 -0.105529
C43   C     C_2   0.758523 0.440959 0.072061 -0.105519
C44   C     C_2   0.248661 0.397048 0.915546 -0.159702
C45   C     C_R   0.225431 0.868772 0.645229 0.540908
C46   C     C_R   0.769611 0.880524 0.349024 0.597444
C47   C     C_R   0.730389 0.380524 0.650976 0.597444
C48   C     C_R   0.274569 0.368772 0.354771 0.540908
C49   C     C_2   0.191827 0.909460 0.051611 -0.099070
C50   C     C_2   0.767533 0.028663 0.970520 -0.099973
C51   C     C_2   0.732469 0.528665 0.029480 -0.099973
C52   C     C_2   0.308173 0.409459 0.948389 -0.099070
C53   C     C_2   0.185336 0.881686 0.976408 0.365573
C54   C     C_2   0.783357 0.008516 0.044819 0.390118
C55   C     C_2   0.716644 0.508517 0.955181 0.390119
C56   C     C_2   0.314664 0.381686 0.023592 0.365572
C57   C     C_2   0.986187 0.664656 0.916599 0.393764
C58   C     C_2   0.926490 0.654062 0.066813 0.350150
C59   C     C_2   0.573510 0.154061 0.933187 0.350149
C60   C     C_2   0.513814 0.164656 0.083401 0.393764
C61   C     C_2   0.939068 0.557272 0.023646 0.373443
C62   C     C_2   0.951384 0.568597 0.945726 0.368248
C63   C     C_2   0.548616 0.068596 0.054274 0.368248
C64   C     C_2   0.560930 0.057271 0.976354 0.373444
C65   C     C_R   0.060875 0.651899 0.636186 0.614211
C66   C     C_R   0.938093 0.648614 0.363505 0.635104
C67   C     C_R   0.561907 0.148614 0.636495 0.635104
C68   C     C_R   0.439125 0.151899 0.363814 0.614210
C69   C     C_R   0.238102 0.463831 0.849864 0.547888
C70   C     C_R   0.763370 0.471094 0.147138 0.546024
C71   C     C_R   0.736630 0.971094 0.852862 0.546024
C72   C     C_R   0.261898 0.963831 0.150136 0.547888
C73   C     C_R   0.224911 0.870777 0.854175 0.575614
C74   C     C_R   0.772593 0.875982 0.148724 0.575080
C75   C     C_R   0.727407 0.375982 0.851276 0.575082
C76   C     C_R   0.275089 0.370777 0.145824 0.575614
C77   C     C_R   0.026390 0.652806 0.849619 0.605588
C78   C     C_R   0.932157 0.646502 0.144468 0.593845
C79   C     C_R   0.567843 0.146502 0.855532 0.593846
C80   C     C_R   0.473610 0.152806 0.150381 0.605587
C81   C     C_2   0.241444 0.890370 0.569692 -0.028992
C82   C     C_2   0.741855 0.922909 0.418423 -0.034974
C83   C     C_2   0.758145 0.422909 0.581577 -0.034974
C84   C     C_2   0.258556 0.390370 0.430308 -0.028992
C85   C     C_2   0.231491 0.901855 0.415352 -0.066434
C86   C     C_2   0.754659 0.923596 0.574432 -0.104502
C87   C     C_2   0.745341 0.423596 0.425568 -0.104502
C88   C     C_2   0.268508 0.401855 0.584647 -0.066433
C89   C     C_2   0.260473 0.807095 0.446877 -0.066260
C90   C     C_2   0.714765 0.844085 0.541393 -0.069277
C91   C     C_2   0.785235 0.344085 0.458607 -0.069277
C92   C     C_2   0.239527 0.307095 0.553123 -0.066260
Cr1   Cr    Cr6+3 0.113970 0.508630 0.747920 1.127460
Cr2   Cr    Cr6+3 0.886030 0.508630 0.252080 1.159867
Cr3   Cr    Cr6+3 0.613970 0.008630 0.747920 1.159866
Cr4   Cr    Cr6+3 0.386030 0.008630 0.252080 1.127461
Cr5   Cr    Cr6+3 0.269200 0.666740 0.749850 1.087018
Cr6   Cr    Cr6+3 0.730800 0.666740 0.250150 1.081694
Cr7   Cr    Cr6+3 0.769200 0.166740 0.749850 1.081694
Cr8   Cr    Cr6+3 0.230800 0.166740 0.250150 1.087017
Cr9   Cr    Cr6+3 0.112300 0.820070 0.749800 1.174491
Cr10  Cr    Cr6+3 0.887700 0.820070 0.250200 1.162590
Cr11  Cr    Cr6+3 0.612300 0.320070 0.749800 1.162590
Cr12  Cr    Cr6+3 0.387700 0.320070 0.250200 1.174491
H1    H     H_    0.295342 0.747827 0.416423 0.218364
H2    H     H_    0.683325 0.779916 0.572406 0.246977
H3    H     H_    0.816675 0.279916 0.427594 0.246977
H4    H     H_    0.204658 0.247827 0.583577 0.218364
H5    H     H_    0.288337 0.928121 0.943337 0.062709
H6    H     H_    0.698697 0.892148 0.064705 0.114511
H7    H     H_    0.801303 0.392146 0.935295 0.114514
H8    H     H_    0.211663 0.428121 0.056663 0.062708
H9    H     H_    0.189308 0.948862 0.443761 0.155662
H10   H     H_    0.793729 0.973602 0.544754 0.184772
H11   H     H_    0.706271 0.473602 0.455246 0.184772
H12   H     H_    0.310691 0.448863 0.556239 0.155662
H13   H     H_    0.237268 0.983434 0.549572 0.137898
H14   H     H_    0.758134 0.011829 0.437638 0.146600
H15   H     H_    0.741866 0.511829 0.562362 0.146600
H16   H     H_    0.262732 0.483434 0.450427 0.137898
O1    O     O_R   0.043230 0.549300 0.667990 -0.494045
O2    O     O_R   0.956770 0.549300 0.332010 -0.459515
O3    O     O_R   0.543230 0.049300 0.667990 -0.459516
O4    O     O_R   0.456770 0.049300 0.332010 -0.494044
O5    O     O_R   0.262920 0.788600 0.824420 -0.496453
O6    O     O_R   0.737080 0.788600 0.175580 -0.518145
O7    O     O_R   0.762920 0.288600 0.824420 -0.518145
O8    O     O_R   0.237080 0.288600 0.175580 -0.496453
O9    O     O_R   0.167530 0.905110 0.830340 -0.438603
O10   O     O_R   0.832470 0.905110 0.169660 -0.409792
O11   O     O_R   0.667530 0.405110 0.830340 -0.409792
O12   O     O_R   0.332470 0.405110 0.169660 -0.438603
O13   O     O_R   0.054010 0.748440 0.822860 -0.432573
O14   O     O_R   0.945990 0.748440 0.177140 -0.450496
O15   O     O_R   0.554010 0.248440 0.822860 -0.450496
O16   O     O_R   0.445990 0.248440 0.177140 -0.432573
O17   O     O_3   0.165160 0.665150 0.749190 -0.319234
O18   O     O_3   0.834840 0.665150 0.250810 -0.359497
O19   O     O_3   0.665160 0.165150 0.749190 -0.359496
O20   O     O_3   0.334840 0.165150 0.250810 -0.319234
O21   O     O_R   0.178620 0.457600 0.674100 -0.436086
O22   O     O_R   0.821380 0.457600 0.325900 -0.429714
O23   O     O_R   0.678620 0.957600 0.674100 -0.429714
O24   O     O_R   0.321380 0.957600 0.325900 -0.436086
O25   O     O_R   0.284680 0.542100 0.669460 -0.509835
O26   O     O_R   0.715320 0.542100 0.330540 -0.501951
O27   O     O_R   0.784680 0.042100 0.669460 -0.501951
O28   O     O_R   0.215320 0.042100 0.330540 -0.509835
O29   O     O_R   0.262860 0.790390 0.676650 -0.501779
O30   O     O_R   0.737140 0.790390 0.323350 -0.508025
O31   O     O_R   0.762860 0.290390 0.676650 -0.508025
O32   O     O_R   0.237140 0.290390 0.323350 -0.501779
O33   O     O_R   0.167460 0.907030 0.670940 -0.416706
O34   O     O_R   0.832540 0.907030 0.329060 -0.424303
O35   O     O_R   0.667460 0.407030 0.670940 -0.424303
O36   O     O_R   0.332540 0.407030 0.329060 -0.416706
O37   O     O_R   0.053950 0.750220 0.675100 -0.472546
O38   O     O_R   0.946050 0.750220 0.324900 -0.482620
O39   O     O_R   0.553950 0.250220 0.675100 -0.482620
O40   O     O_R   0.446050 0.250220 0.324900 -0.472546
O41   O     O_R   0.043300 0.547370 0.827390 -0.473973
O42   O     O_R   0.956700 0.547370 0.172610 -0.458251
O43   O     O_R   0.543300 0.047370 0.827390 -0.458250
O44   O     O_R   0.456700 0.047370 0.172610 -0.473972
O45   O     O_R   0.178690 0.455820 0.821860 -0.491870
O46   O     O_R   0.821310 0.455820 0.178140 -0.486918
O47   O     O_R   0.678690 0.955820 0.821860 -0.486921
O48   O     O_R   0.321310 0.955820 0.178140 -0.491870
O49   O     O_R   0.284750 0.540170 0.828860 -0.502257
O50   O     O_R   0.715250 0.540170 0.171140 -0.489433
O51   O     O_R   0.784750 0.040170 0.828860 -0.489434
O52   O     O_R   0.215250 0.040170 0.171140 -0.502257
F1    F     F_    0.122216 0.844830 0.955737 -0.534946
F2    F     F_    0.839411 0.066678 0.070679 -0.536781
F3    F     F_    0.660590 0.566680 0.929321 -0.536783
F4    F     F_    0.377784 0.344831 0.044263 -0.534947
H17   H     H_    0.295110 0.850977 0.058575 0.126137
H18   H     H_    0.723692 0.852446 0.947744 0.143392
H19   H     H_    0.776305 0.352444 0.052257 0.143391
H20   H     H_    0.204890 0.350977 0.941425 0.126136
F5    F     F_    0.947453 0.443183 0.051723 -0.574202
F6    F     F_    0.941637 0.465348 0.906323 -0.606695
F7    F     F_    0.558362 0.965347 0.093676 -0.606695
F8    F     F_    0.552540 0.943183 0.948277 -0.574198
F9    F     F_    0.902690 0.761584 0.039996 -0.596044
F10   F     F_    0.996789 0.769207 0.954087 -0.521402
F11   F     F_    0.503212 0.269208 0.045913 -0.521402
F12   F     F_    0.597312 0.261582 0.960004 -0.596048
H21   H     H_    0.255501 0.700849 0.547087 0.174652
H22   H     H_    0.698046 0.747947 0.442687 0.197986
H23   H     H_    0.801954 0.247947 0.557313 0.197986
H24   H     H_    0.244499 0.200849 0.452913 0.174652
F13   F     F_    0.884487 0.061594 0.477881 -0.601456
F14   F     F_    0.993523 0.100857 0.565641 -0.521369
F15   F     F_    0.506476 0.600857 0.434358 -0.521369
F16   F     F_    0.615513 0.561594 0.522119 -0.601455
F17   F     F_    0.855873 0.815483 0.445878 -0.668194
F18   F     F_    0.083904 0.918054 0.584831 -0.580195
F19   F     F_    0.416096 0.418054 0.415169 -0.580195
F20   F     F_    0.644127 0.315483 0.554122 -0.668194
F21   F     F_    0.912832 0.393953 0.408542 -0.601057
F22   F     F_    0.142396 0.481145 0.551712 -0.665054
F23   F     F_    0.357604 0.981145 0.448288 -0.665054
F24   F     F_    0.587168 0.893953 0.591458 -0.601056
F25   F     F_    0.107942 0.239471 0.513955 -0.578669
F26   F     F_    0.995909 0.207156 0.434309 -0.510024
F27   F     F_    0.504091 0.707156 0.565691 -0.510023
F28   F     F_    0.392058 0.739471 0.486045 -0.578669
H25   H     H_    0.146706 0.948190 0.079159 0.207207
H26   H     H_    0.784338 0.116568 0.948610 0.181351
H27   H     H_    0.715667 0.616571 0.051389 0.181346
H28   H     H_    0.353294 0.448190 0.920841 0.207208

loop_
_geom_bond_atom_site_label_1
_geom_bond_atom_site_label_2
_ccdc_geom_bond_type
C47   C83   S    
C76   O8    A    
C7    C83   D    
Cr3   O23   S    
C6    C82   D    
C87   C91   D    
Cr8   O52   S    
C14   C18   A    
C17   F13   S    
C35   C36   A    
Cr7   O19   S    
C44   H20   S    
C45   C81   S    
C53   F1    S    
C57   C62   D    
C40   H8    S    
C34   F26   S    
C3    O27   A    
C14   F18   S    
C12   C23   A    
C43   H19   S    
C59   C64   D    
C50   C54   S    
C13   F17   S    
Cr6   O18   S    
C60   C63   D    
C72   O52   A    
C14   C21   A    
C41   H17   S    
Cr1   O1    S    
Cr11  O19   S    
C70   O46   A    
Cr1   O17   S    
Cr10  O18   S    
C73   O5    A    
C9    C22   A    
Cr5   O5    S    
C18   F14   S    
Cr3   O3    S    
C4    O28   A    
C81   H13   S    
C11   C24   A    
Cr5   O49   S    
C36   F28   S    
C83   H15   S    
Cr11  O15   S    
C9    C66   S    
C80   O44   A    
C37   C73   S    
Cr8   O20   S    
C5    C81   D    
C46   C82   S    
C1    O25   A    
C92   H4    S    
C51   H27   S    
C39   C55   D    
C88   C92   D    
C29   C33   A    
C40   C76   S    
C43   C70   S    
C40   C56   D    
C23   C24   A    
C66   O2    A    
C8    C92   S    
C39   C75   S    
C38   H6    S    
Cr12  O16   S    
Cr10  O34   S    
C87   H11   S    
C16   F20   S    
C16   C20   A    
C75   O7    A    
C37   C53   D    
C44   C52   D    
C58   C61   D    
C39   H7    S    
Cr8   O28   S    
C48   O36   A    
Cr9   O37   S    
C71   O47   A    
C21   C22   A    
C3    C86   S    
C25   C29   A    
C72   O48   A    
Cr5   O29   S    
C68   O4    A    
C77   O13   A    
Cr12  O40   S    
C41   C49   D    
C75   O11   A    
C9    C26   A    
C17   C18   A    
C37   H5    S    
Cr11  O39   S    
C10   C21   A    
C77   O41   A    
C46   O34   A    
C12   C67   S    
C73   O9    A    
C63   F7    S    
C30   C34   A    
C12   C27   A    
C27   C31   A    
Cr2   O22   S    
C91   H3    S    
C28   C32   A    
C3    O23   A    
C90   H2    S    
C65   O37   A    
C86   C90   D    
C59   C79   S    
Cr9   O17   S    
Cr7   O7    S    
C4    C85   S    
Cr6   O26   S    
C51   C55   S    
C8    C84   D    
C25   C26   A    
C6    C90   S    
Cr7   O31   S    
Cr8   O32   S    
Cr4   O44   S    
C67   O3    A    
Cr2   O18   S    
Cr6   O50   S    
C88   H12   S    
C15   C19   A    
Cr10  O14   S    
C4    O24   A    
C19   F15   S    
Cr6   O6    S    
Cr3   O43   S    
C62   F6    S    
C15   F19   S    
C38   C54   D    
Cr9   O33   S    
C84   H16   S    
C7    C91   S    
C6    H22   S    
Cr4   O48   S    
C33   C34   A    
C31   F24   S    
C2    C87   S    
C69   O49   A    
Cr12  O36   S    
C78   O14   A    
C55   F3    S    
C57   F10   S    
C42   C50   D    
C41   C72   S    
Cr2   O2    S    
C10   C25   A    
C35   F27   S    
C15   C24   A    
C46   O30   A    
C47   O31   A    
Cr1   O41   S    
C26   C30   A    
C16   C23   A    
C65   O1    A    
C48   O32   A    
C2    O22   A    
C71   O51   A    
Cr3   O19   S    
C45   O33   A    
C82   H14   S    
C89   H1    S    
C32   C36   A    
C66   O38   A    
Cr1   O21   S    
C11   C68   S    
Cr6   O30   S    
C10   C65   S    
Cr11  O35   S    
C30   F21   S    
Cr7   O27   S    
C60   C80   S    
C85   C89   D    
C29   F22   S    
C7    H23   S    
Cr8   O8    S    
Cr5   O25   S    
C59   F12   S    
Cr4   O4    S    
Cr10  O10   S    
C79   O43   A    
Cr10  O38   S    
Cr2   O46   S    
Cr3   O47   S    
Cr4   O20   S    
C78   O42   A    
C42   H18   S    
Cr9   O13   S    
C56   F4    S    
C2    O26   A    
C79   O15   A    
C19   C20   A    
C61   F5    S    
C80   O16   A    
C32   F23   S    
C13   C17   A    
C86   H10   S    
C54   F2    S    
C57   C77   S    
C74   O10   A    
C70   O50   A    
C5    H21   S    
C60   F11   S    
C76   O12   A    
C43   C51   D    
C74   O6    A    
C47   O35   A    
C11   C28   A    
C1    C88   S    
C49   C53   S    
C31   C35   A    
C85   H9    S    
C42   C71   S    
C38   C74   S    
C13   C22   A    
C45   O29   A    
C61   C62   S    
C8    H24   S    
C69   O45   A    
Cr5   O17   S    
C1    O21   A    
C58   C78   S    
Cr1   O45   S    
C63   C64   S    
C64   F8    S    
C48   C84   S    
C33   F25   S    
Cr7   O51   S    
C50   H26   S    
Cr12  O12   S    
C49   H25   S    
C27   C28   A    
C52   H28   S    
C44   C69   S    
C67   O39   A    
C68   O40   A    
Cr11  O11   S    
C20   F16   S    
C5    C89   S    
Cr2   O42   S    
C52   C56   S    
Cr12  O20   S    
C58   F9    S    
Cr4   O24   S    
Cr9   O9    S    
