data_mof_unit_3388.cif
_audit_creation_date              2012-12-10T17:47:43-0500
_audit_creation_method            fapswitch 2.2
_symmetry_space_group_name_H-M    P1
_symmetry_Int_Tables_number       1
_space_group_crystal_system       triclinic
_cell_length_a                    10.625389
_cell_length_b                    10.628538
_cell_length_c                    9.989632
_cell_angle_alpha                 90.17469
_cell_angle_beta                  90.833955
_cell_angle_gamma                 94.070551
_cell_volume                      1125.17812324

loop_
_atom_site_label
_atom_site_type_symbol
_atom_type_description
_atom_site_fract_x
_atom_site_fract_y
_atom_site_fract_z
_atom_type_partial_charge
C1    C     C_R   0.522138 0.264245 0.501275 0.909892
C2    C     C_3   0.878872 0.521384 0.500575 0.076171
C3    C     C_3   0.928736 0.614924 0.390838 -0.324959
C4    C     C_3   0.921860 0.389242 0.469477 -0.405844
C5    C     C_R   0.601701 0.119695 0.753727 0.066489
C6    C     C_R   0.567596 0.059513 0.873621 -0.201457
C7    C     C_R   0.487396 0.949909 0.871788 0.059551
C8    C     C_R   0.456089 0.891783 0.748901 -0.130347
C9    C     C_R   0.503082 0.943718 0.627514 0.034780
C10   C     C_R   0.555872 0.067993 0.629022 0.075944
C11   C     C_R   0.554131 0.134118 0.505702 -0.140309
C12   C     C_R   0.260542 0.516832 0.499141 0.778466
C13   C     C_R   0.551545 0.068393 0.384605 -0.195919
C14   C     C_R   0.530802 0.939629 0.384801 -0.197965
C15   C     C_R   0.501438 0.876666 0.504279 -0.112744
C16   C     C_R   0.288393 0.375955 0.129876 -0.076355
C17   C     C_R   0.173069 0.363942 0.056309 0.039546
C18   C     C_R   0.176761 0.374812 0.918911 -0.170139
C19   C     C_R   0.292501 0.382548 0.856473 -0.029805
C20   C     C_R   0.399858 0.438550 0.925579 0.145850
C21   C     C_R   0.398683 0.438070 0.069792 0.117872
C22   C     C_R   0.594010 0.559944 0.074111 -0.028492
C23   C     C_R   0.495495 0.740646 0.500820 0.820761
C24   C     C_R   0.593555 0.562841 0.931507 0.044024
C25   C     C_R   0.741872 0.510869 0.500693 0.823828
C26   C     C_3   0.076675 0.562013 0.640620 -0.177038
C27   C     C_3   0.933351 0.570157 0.637517 -0.373829
C28   C     C_3   0.075405 0.629983 0.397114 -0.205388
C29   C     C_3   0.064703 0.395925 0.459420 -0.374492
C30   C     C_3   0.123592 0.528564 0.497569 -0.009555
H1    H     H_    0.879074 0.352026 0.373522 0.199822
H2    H     H_    0.893210 0.579299 0.291611 0.248406
H3    H     H_    0.559624 0.116612 0.289345 0.168729
H4    H     H_    0.600165 0.100507 0.968683 0.129293
H5    H     H_    0.392362 0.808203 0.749455 0.198730
H6    H     H_    0.534829 0.889710 0.290697 0.170064
H7    H     H_    0.669201 0.610479 0.130815 0.175575
H8    H     H_    0.096271 0.482983 0.706618 0.170061
H9    H     H_    0.093610 0.339118 0.862384 0.151610
H10   H     H_    0.893281 0.513970 0.722140 0.235346
H11   H     H_    0.907522 0.668938 0.652846 0.178019
H12   H     H_    0.101282 0.725174 0.439385 0.086933
H13   H     H_    0.890133 0.708599 0.405685 0.134672
H14   H     H_    0.090978 0.375263 0.356325 0.186258
H15   H     H_    0.101433 0.321686 0.524199 0.149699
H16   H     H_    0.891334 0.321821 0.549397 0.176723
N1    N     N_R   0.498810 0.498800 0.142780 -0.136719
N2    N     N_R   0.498760 0.498720 0.857170 -0.165823
O1    O     O_R   0.500000 0.316780 0.614690 -0.615276
O2    O     O_R   0.499990 0.316750 0.385360 -0.603930
O3    O     O_R   0.314800 0.499990 0.614670 -0.647796
O4    O     O_R   0.314790 0.499970 0.385330 -0.624759
O5    O     O_R   0.500010 0.683250 0.614640 -0.659259
O6    O     O_R   0.500000 0.683220 0.385310 -0.617249
O7    O     O_R   0.685210 0.500030 0.614670 -0.645436
O8    O     O_R   0.685200 0.500010 0.385330 -0.627824
Zn1   Zn    Zn3+2 0.500010 0.500020 0.653130 0.942594
Zn2   Zn    Zn3+2 0.499990 0.499980 0.346870 0.956277
C31   C     C_2   0.142005 0.679845 0.702421 0.482992
H17   H     H_    0.196243 0.747729 0.641725 0.005551
O9    O     O_2   0.132581 0.700511 0.822013 -0.464524
C32   C     C_2   0.134757 0.634261 0.259589 0.466693
H18   H     H_    0.232894 0.668380 0.250239 0.112339
O10   O     O_2   0.074072 0.606972 0.157621 -0.484899
C33   C     C_1   0.695428 0.223923 0.763768 0.183549
N3    N     N_1   0.771858 0.306119 0.776130 -0.184049
C34   C     C_2   0.438003 0.897140 0.998769 0.415744
H19   H     H_    0.452712 0.951244 0.090386 0.041167
O11   O     O_2   0.379608 0.794033 0.002488 -0.554450
C35   C     C_1   0.294908 0.281573 0.232318 0.206996
N4    N     N_1   0.290870 0.201168 0.310477 -0.223179
C36   C     C_2   0.052408 0.308240 0.112237 0.423971
H20   H     H_    0.051988 0.239717 0.192322 0.035277
O12   O     O_2   0.951102 0.336915 0.066595 -0.532702
C37   C     C_2   0.301136 0.276742 0.763593 0.480845
H21   H     H_    0.261300 0.278898 0.663619 0.067127
O13   O     O_2   0.340297 0.178728 0.803936 -0.598045
C38   C     C_2   0.693223 0.642992 0.865278 0.397231
H22   H     H_    0.680002 0.676039 0.764593 0.117362
O14   O     O_2   0.791517 0.676234 0.924334 -0.548271

loop_
_geom_bond_atom_site_label_1
_geom_bond_atom_site_label_2
_ccdc_geom_bond_type
C16   C21   A    
C19   C20   A    
C1    C11   S    
C25   O8    A    
C18   H9    S    
N2    Zn1   S    
C4    H16   S    
C3    H13   S    
C26   C27   S    
C32   H18   S    
C3    C28   S    
C14   H6    S    
C5    C6    A    
C38   O14   D    
O1    Zn1   S    
C18   C19   A    
C28   H12   S    
C32   O10   D    
C8    C9    A    
C2    C27   S    
O3    Zn1   S    
C1    O2    A    
C4    C29   S    
C15   C23   S    
C22   N1    A    
C31   H17   S    
C13   C14   A    
C12   O4    A    
C23   O5    A    
C31   O9    D    
C34   H19   S    
O2    Zn2   S    
C7    C8    A    
C16   C35   S    
C5    C33   S    
O5    Zn1   S    
C38   H22   S    
C26   H8    S    
C22   H7    S    
C6    H4    S    
C29   H15   S    
C34   O11   D    
C8    H5    S    
C24   N2    A    
C2    C4    S    
C37   H21   S    
C13   H3    S    
C29   C30   S    
C27   H11   S    
C27   H10   S    
O6    Zn2   S    
C17   C18   A    
C20   N2    A    
C37   O13   D    
C35   N4    T    
O4    Zn2   S    
C36   O12   D    
C26   C30   S    
O7    Zn1   S    
C29   H14   S    
C22   C24   A    
C12   O3    A    
C23   O6    A    
C9    C10   A    
C24   C38   S    
C12   C30   S    
C25   O7    A    
C36   H20   S    
C6    C7    A    
C28   C30   S    
C2    C3    S    
C9    C15   A    
C5    C10   A    
N1    Zn2   S    
C11   C13   A    
C16   C17   A    
C19   C37   S    
O8    Zn2   S    
C2    C25   S    
C3    H2    S    
C4    H1    S    
C10   C11   A    
C7    C34   S    
C20   C21   A    
C17   C36   S    
C33   N3    T    
C14   C15   A    
C26   C31   S    
C1    O1    A    
C21   N1    A    
C28   C32   S    
