data_mof_unit_4247.cif
_audit_creation_date              2012-12-11T15:59:37-0500
_audit_creation_method            fapswitch 2.2
_symmetry_space_group_name_H-M    P1
_symmetry_Int_Tables_number       1
_space_group_crystal_system       triclinic
_cell_length_a                    10.744413
_cell_length_b                    10.722549
_cell_length_c                    17.016082
_cell_angle_alpha                 99.899446
_cell_angle_beta                  99.76454
_cell_angle_gamma                 61.213019
_cell_volume                      1683.9502581

loop_
_atom_site_label
_atom_site_type_symbol
_atom_type_description
_atom_site_fract_x
_atom_site_fract_y
_atom_site_fract_z
_atom_type_partial_charge
C1    C     C_R   0.352327 0.782341 0.404100 0.555191
C2    C     C_R   0.818249 0.234978 0.195025 -0.080593
C3    C     C_R   0.829412 0.218991 0.276527 -0.012782
C4    C     C_R   0.913975 0.395514 0.313933 -0.097121
C5    C     C_R   0.928157 0.393387 0.235135 0.189131
C6    C     C_R   0.766093 0.154743 0.137636 -0.064325
C7    C     C_R   0.755548 0.040882 0.158761 0.245118
C8    C     C_R   0.786642 0.012788 0.238331 -0.090560
C9    C     C_R   0.817939 0.103333 0.297257 -0.129726
C10   C     C_R   0.855214 0.317619 0.334493 -0.030922
C11   C     C_R   0.293238 0.908464 0.178339 0.008823
C12   C     C_R   0.407150 0.374582 0.356722 0.563074
C13   C     C_R   0.430914 0.849743 0.219849 -0.013277
C14   C     C_R   0.443520 0.855736 0.304064 0.035906
C15   C     C_R   0.191239 0.924119 0.297705 -0.140359
C16   C     C_R   0.174252 0.948606 0.218704 -0.137346
C17   C     C_R   0.556147 0.780389 0.180656 -0.080290
C18   C     C_R   0.688142 0.740324 0.224299 -0.145742
C19   C     C_R   0.698372 0.771833 0.307217 -0.095880
C20   C     C_R   0.575966 0.835323 0.347238 0.266890
C21   C     C_R   0.326635 0.869203 0.339680 0.021016
C22   C     C_R   0.332405 0.339558 0.823417 0.032069
C23   C     C_R   0.781412 0.372336 0.406125 0.527549
C24   C     C_R   0.459086 0.247134 0.787457 0.022779
C25   C     C_R   0.447492 0.214413 0.704344 -0.055838
C26   C     C_R   0.218208 0.429663 0.695416 -0.141726
C27   C     C_R   0.213182 0.434340 0.777076 -0.144785
C28   C     C_R   0.593364 0.176332 0.831845 0.218165
C29   C     C_R   0.702775 0.053505 0.796667 -0.044274
C30   C     C_R   0.679591 0.002118 0.717514 0.205310
C31   C     C_R   0.553082 0.082456 0.671239 -0.051053
C32   C     C_R   0.335561 0.319913 0.657834 -0.008465
C33   C     C_1   0.817327 0.342191 0.709012 -0.020901
C34   C     C_R   0.380962 0.714943 0.631299 0.546303
C35   C     C_1   0.844225 0.313362 0.776668 -0.019625
C36   C     C_1   0.358511 0.764331 0.713713 -0.017867
C37   C     C_1   0.325526 0.811179 0.780731 -0.013730
C38   C     C_R   0.902613 0.306688 0.091769 0.576888
C39   C     C_R   0.322705 0.303169 0.118787 0.571418
C40   C     C_R   0.263594 0.946611 0.096661 0.542140
C41   C     C_R   0.885801 0.297240 0.859074 0.592087
C42   C     C_R   0.308595 0.295394 0.893961 0.575393
C43   C     C_R   0.280730 0.880812 0.857854 0.556862
C44   C     C_R   0.368347 0.344911 0.583440 0.550652
C45   C     C_R   0.773316 0.380836 0.629766 0.538926
C46   C     C_1   0.378151 0.362442 0.271874 0.013253
C47   C     C_1   0.352813 0.344203 0.200758 0.032902
C48   C     C_R   0.870762 0.321458 0.173651 0.002283
Cr1   Cr    Cr6+3 0.608100 0.610860 0.522250 1.118464
Cr2   Cr    Cr6+3 0.288890 0.599990 0.488420 1.065832
Cr3   Cr    Cr6+3 0.603040 0.289190 0.489390 1.071256
Cr4   Cr    Cr6+3 0.053960 0.052250 0.967380 1.075661
Cr5   Cr    Cr6+3 0.059890 0.373160 0.992710 1.109386
Cr6   Cr    Cr6+3 0.373370 0.061690 0.991710 1.123406
H1    H     H_    0.780708 0.695996 0.192136 0.224153
H2    H     H_    0.130955 0.511338 0.661747 0.184629
H3    H     H_    0.115207 0.508856 0.803362 0.168770
H4    H     H_    0.804507 0.997008 0.831113 0.182326
H5    H     H_    0.538142 0.041818 0.609630 0.218757
H6    H     H_    0.740158 0.174301 0.075750 0.219007
H7    H     H_    0.789781 0.919702 0.254905 0.147643
H8    H     H_    0.844302 0.074731 0.358036 0.153477
H9    H     H_    0.555274 0.751799 0.116669 0.188321
H10   H     H_    0.068302 0.991586 0.187417 0.156152
O1    O     O_R   0.749810 0.499790 0.438040 -0.493934
O2    O     O_R   0.298970 0.468800 0.557390 -0.507462
O3    O     O_R   0.489400 0.255930 0.561910 -0.485884
O4    O     O_R   0.723890 0.306050 0.584610 -0.493967
O5    O     O_3   0.500010 0.500010 0.500020 -0.319147
O6    O     O_R   0.171100 0.914680 0.053100 -0.500745
O7    O     O_R   0.941680 0.184840 0.050710 -0.510696
O8    O     O_R   0.922080 0.403420 0.072610 -0.443541
O9    O     O_R   0.196880 0.369150 0.083850 -0.446327
O10   O     O_R   0.411730 0.181020 0.091530 -0.473314
O11   O     O_R   0.365010 0.944360 0.063320 -0.484321
O12   O     O_R   0.477660 0.726260 0.439290 -0.452788
O13   O     O_R   0.159380 0.906670 0.876210 -0.495259
O14   O     O_R   0.930820 0.177420 0.886730 -0.472687
O15   O     O_R   0.910360 0.395420 0.895720 -0.498952
O16   O     O_R   0.186010 0.361730 0.919870 -0.518117
O17   O     O_R   0.400000 0.173010 0.914630 -0.457595
O18   O     O_R   0.354140 0.936940 0.899340 -0.481990
O19   O     O_3   0.162410 0.162370 0.983930 -0.304095
O20   O     O_R   0.260150 0.743000 0.412270 -0.522177
O21   O     O_R   0.297740 0.466550 0.394720 -0.465311
O22   O     O_R   0.488080 0.253500 0.386430 -0.469869
O23   O     O_R   0.722670 0.303800 0.421940 -0.526282
O24   O     O_R   0.751130 0.502220 0.613520 -0.474833
O25   O     O_R   0.478890 0.728510 0.601960 -0.463027
O26   O     O_R   0.261470 0.745430 0.587750 -0.487532
H11   H     H_    0.944286 0.462982 0.359430 0.174199
H12   H     H_    0.800716 0.752382 0.339835 0.159997
Cl1   Cl    Cl    0.588123 0.914133 0.446271 -0.567982
Cl2   Cl    Cl    0.629931 0.248196 0.928494 -0.623637
Cl3   Cl    Cl    0.812527 0.841981 0.674688 -0.573605
Cl4   Cl    Cl    0.025895 0.479046 0.221243 -0.640651
Cl5   Cl    Cl    0.717433 0.925694 0.084067 -0.582351
H13   H     H_    0.100384 0.938478 0.324501 0.143703

loop_
_geom_bond_atom_site_label_1
_geom_bond_atom_site_label_2
_ccdc_geom_bond_type
C25   C31   A    
C20   Cl1   S    
C1    C21   S    
C33   C45   S    
C44   O2    A    
C19   C20   A    
Cr2   O20   S    
C7    C8    A    
C22   C42   S    
C1    O20   A    
C26   C32   A    
C26   C27   A    
C30   Cl3   S    
C40   O6    A    
C12   O21   A    
C14   C21   A    
C28   C29   A    
Cr5   O15   S    
Cr2   O5    S    
C42   O16   A    
C15   C16   A    
C28   Cl2   S    
C18   C19   A    
C39   O10   A    
C31   H5    S    
C19   H12   S    
Cr2   O21   S    
C46   C47   T    
Cr2   O26   S    
C8    C9    A    
Cr6   O10   S    
C38   C48   S    
C8    H7    S    
C4    H11   S    
C25   C32   A    
Cr1   O5    S    
C13   C14   A    
Cr1   O24   S    
C2    C6    A    
C42   O17   A    
Cr4   O14   S    
Cr3   O22   S    
Cr6   O19   S    
C5    C48   A    
C38   O8    A    
C9    H8    S    
C14   C20   A    
Cr5   O16   S    
C24   C25   A    
C12   C46   S    
C27   H3    S    
Cr3   O23   S    
C41   O14   A    
C2    C48   A    
C37   C43   S    
Cr4   O19   S    
C34   O26   A    
C29   C30   A    
C3    C9    A    
C6    H6    S    
C11   C16   A    
C45   O24   A    
C45   O4    A    
C17   C18   A    
C32   C44   S    
Cr1   O12   S    
Cr3   O3    S    
Cr2   O2    S    
Cr1   O1    S    
C18   H1    S    
C22   C27   A    
C22   C24   A    
C15   H13   S    
C4    C10   A    
Cr4   O13   S    
Cr6   O18   S    
C5    Cl4   S    
C39   C47   S    
C38   O7    A    
C36   C37   T    
C7    Cl5   S    
C1    O12   A    
Cr5   O9    S    
C24   C28   A    
Cr1   O25   S    
C4    C5    A    
C26   H2    S    
C41   O15   A    
C6    C7    A    
C12   O22   A    
C10   C23   S    
C43   O13   A    
C16   H10   S    
C40   O11   A    
C13   C17   A    
Cr5   O19   S    
C23   O1    A    
C2    C3    A    
C34   O25   A    
Cr4   O7    S    
C17   H9    S    
C11   C13   A    
C30   C31   A    
C33   C35   T    
C34   C36   S    
Cr3   O4    S    
C39   O9    A    
C11   C40   S    
C35   C41   S    
Cr4   O6    S    
Cr6   O11   S    
C15   C21   A    
C29   H4    S    
C3    C10   A    
C43   O18   A    
C44   O3    A    
C23   O23   A    
Cr3   O5    S    
Cr5   O8    S    
Cr6   O17   S    
