data_mof_unit_2310.cif
_audit_creation_date              2013-03-05T15:41:43-0500
_audit_creation_method            fapswitch 2.2
_symmetry_space_group_name_H-M    P1
_symmetry_Int_Tables_number       1
_space_group_crystal_system       triclinic
_cell_length_a                    6.942135
_cell_length_b                    13.60373
_cell_length_c                    20.384204
_cell_angle_alpha                 101.988328
_cell_angle_beta                  90.127562
_cell_angle_gamma                 90.52864
_cell_volume                      1882.97964173

loop_
_atom_site_label
_atom_site_type_symbol
_atom_site_description
_atom_site_fract_x
_atom_site_fract_y
_atom_site_fract_z
_atom_type_partial_charge
O1    O     O_R   0.506860 0.599390 0.449240 -0.555673
O2    O     O_R   0.180220 0.594600 0.586780 -0.563668
O3    O     O_R   0.004500 0.400610 0.550760 -0.546403
C1    C     C_R   0.349098 0.615803 0.613571 0.851087
O4    O     O_R   0.177490 0.611290 0.451970 -0.565598
O5    O     O_R   0.001750 0.417420 0.414990 -0.576513
C2    C     C_R   0.346682 0.638382 0.435478 0.833524
O6    O     O_R   0.509610 0.582580 0.585010 -0.560434
O7    O     O_3   0.337420 0.436370 0.488020 -0.267914
V1    V     V_3+5 0.064680 0.511800 0.502220 1.161368
O8    O     O_R   0.671710 0.405400 0.413220 -0.524935
C3    C     C_R   0.838871 0.389323 0.384919 0.773653
O9    O     O_R   0.674440 0.388710 0.548030 -0.564292
C4    C     C_R   0.843408 0.359084 0.562954 0.837205
V2    V     V_3+5 0.564010 0.488200 0.497780 1.180670
O10   O     O_3   0.841140 0.563630 0.511980 -0.282275
C5    C     C_R   0.891982 0.105681 0.613771 -0.097305
H1    H     H_    0.902562 0.984388 0.699205 0.056960
H2    H     H_    0.904203 0.026134 0.591754 0.059798
C6    C     C_R   0.853708 0.278018 0.601171 -0.087126
C7    C     C_R   0.859531 0.320045 0.928647 0.258503
C8    C     C_R   0.888069 0.394150 0.891216 -0.059123
C9    C     C_R   0.913917 0.370125 0.821638 0.290382
C10   C     C_R   0.888665 0.268784 0.786131 -0.026209
C11   C     C_R   0.876804 0.192190 0.824669 -0.063627
C12   C     C_R   0.878899 0.239572 0.714178 0.075751
C13   C     C_R   0.890394 0.136479 0.683549 0.054600
C14   C     C_R   0.895442 0.063540 0.722502 -0.093003
C15   C     C_R   0.882680 0.090505 0.791619 -0.059188
C16   C     C_R   0.847725 0.307971 0.671554 -0.063853
C17   C     C_R   0.877537 0.174229 0.571344 0.037271
C18   C     C_R   0.863267 0.218041 0.895700 -0.181547
H3    H     H_    0.813188 0.385417 0.691950 0.118765
H4    H     H_    0.899580 0.471993 0.917076 0.197172
H5    H     H_    0.879024 0.030216 0.818901 0.051218
C19   C     C_2   0.996230 0.282381 0.287149 -0.151702
C20   C     C_2   0.840217 0.335550 0.313539 0.188825
H6    H     H_    0.122418 0.281478 0.318600 0.113043
C21   C     C_2   0.010761 0.223234 0.216993 -0.027533
C22   C     C_2   0.859635 0.174820 0.182801 -0.145275
H7    H     H_    0.153355 0.214581 0.194857 0.128835
H8    H     H_    0.719511 0.177268 0.206498 0.106682
C23   C     C_2   0.203925 0.789132 0.782785 -0.059365
C24   C     C_2   0.363439 0.815399 0.820047 -0.153595
H9    H     H_    0.065757 0.818371 0.802339 0.096269
H10   H     H_    0.502359 0.786294 0.801850 0.085038
C25   C     C_2   0.202550 0.720503 0.715333 -0.035843
C26   C     C_2   0.361013 0.683779 0.680432 -0.186525
H11   H     H_    0.061185 0.700420 0.693432 0.108643
H12   H     H_    0.504211 0.703231 0.700334 0.071206
C27   C     C_R   0.393058 0.888387 0.386186 -0.075571
H13   H     H_    0.390379 0.838992 0.479545 0.048405
H14   H     H_    0.415391 0.012279 0.301876 0.072549
H15   H     H_    0.411964 0.966582 0.410747 0.062768
C28   C     C_R   0.356936 0.715039 0.394973 -0.078121
C29   C     C_R   0.332826 0.680410 0.069664 0.307083
C30   C     C_R   0.312745 0.606344 0.107496 -0.019117
C31   C     C_R   0.319818 0.630387 0.177166 -0.105376
C32   C     C_R   0.347004 0.730651 0.212363 0.040014
C33   C     C_R   0.364040 0.807255 0.174436 -0.030236
C34   C     C_R   0.357242 0.757390 0.283961 0.058113
C35   C     C_R   0.382047 0.860085 0.315963 0.067893
C36   C     C_R   0.396505 0.933856 0.277805 -0.104813
C37   C     C_R   0.388079 0.908120 0.208330 -0.082013
C38   C     C_R   0.345061 0.685758 0.325171 -0.099367
C39   C     C_R   0.380810 0.816153 0.425449 -0.110864
C40   C     C_R   0.356461 0.781786 0.103232 -0.181064
H16   H     H_    0.327996 0.606455 0.304960 0.086299
H17   H     H_    0.303504 0.568066 0.201767 0.124487
H18   H     H_    0.294079 0.528305 0.082732 0.169490
H19   H     H_    0.401133 0.968602 0.181444 0.060309
O11   O     O_R   0.203230 0.917310 0.915020 -0.565457
O12   O     O_R   0.535500 0.888690 0.048040 -0.547695
O13   O     O_R   0.711080 0.082610 0.085000 -0.550246
C41   C     C_R   0.366365 0.861206 0.064254 0.896622
O14   O     O_R   0.532630 0.905370 0.913230 -0.556407
O15   O     O_R   0.708190 0.099410 0.949230 -0.546612
C42   C     C_R   0.364262 0.884226 0.886505 0.882398
O16   O     O_R   0.206120 0.900510 0.050790 -0.567048
O17   O     O_3   0.375360 0.063570 0.011990 -0.266853
V3    V     V_3+5 0.648170 0.988200 0.997780 1.217202
O18   O     O_R   0.038240 0.111390 0.951940 -0.565049
C43   C     C_R   0.869703 0.138973 0.935598 0.905826
O19   O     O_R   0.041120 0.094710 0.086750 -0.569667
C44   C     C_R   0.872866 0.113804 0.114040 0.871104
V4    V     V_3+5 0.148810 0.011930 0.002180 1.195912
O20   O     O_3   0.871750 0.936430 0.988010 -0.273340
C45   C     C_3   0.884867 0.125376 0.496861 -0.225487
C46   C     C_3   0.868852 0.191643 0.445815 -0.437866
H20   H     H_    0.728666 0.230750 0.450908 0.142334
H21   H     H_    0.992793 0.244582 0.451168 0.145130
H22   H     H_    0.874508 0.144005 0.394518 0.111275
H23   H     H_    0.022811 0.083971 0.487130 0.116354
H24   H     H_    0.766579 0.068510 0.485952 0.113140
N1    N     N_R   0.680260 0.350774 0.271705 0.073685
O21   O     O_R   0.504094 0.343640 0.292049 -0.384403
O22   O     O_R   0.710666 0.383949 0.217107 -0.314280
N2    N     N_R   0.328409 0.651146 0.997506 0.091825
O23   O     O_R   0.234426 0.570599 0.968394 -0.316485
O24   O     O_R   0.437071 0.696567 0.960926 -0.353270
N3    N     N_R   0.838395 0.349682 0.000405 0.095570
O25   O     O_R   0.912387 0.434247 0.032740 -0.324273
O26   O     O_R   0.728027 0.298450 0.032810 -0.336460
N4    N     N_R   0.992715 0.447119 0.790567 0.085145
O27   O     O_R   0.145988 0.429066 0.753506 -0.359085
O28   O     O_R   0.933207 0.539245 0.808335 -0.332344

loop_
_geom_bond_atom_site_label_1
_geom_bond_atom_site_label_2
_geom_bond_distance
_ccdc_geom_bond_type
N3    O25   1.301660 A    
N1    O21   1.301474 A    
C29   N2    1.441951 S    
C1    O6    1.299129 A    
N4    O28   1.301600 A    
C21   H7    1.086023 S    
C6    C16   1.408495 A    
C12   C13   1.414776 A    
C19   C20   1.356826 D    
C10   C12   1.438981 A    
O5    C3    1.300757 A    
O15   C43   1.294780 A    
V2    O10   2.162341 S    
N2    O23   1.301319 A    
C29   C30   1.396430 A    
C20   N1    1.441027 S    
C37   H19   1.082447 S    
C3    C20   1.486719 S    
O11   C42   1.301398 A    
O8    V2    2.003392 S    
C25   C26   1.353452 D    
C33   C40   1.421216 A    
O17   V4    1.710806 S    
C9    C10   1.426748 A    
O1    V2    2.013812 S    
C2    C28   1.459749 S    
C30   H18   1.083144 S    
C46   H21   1.107406 S    
O7    V1    2.153274 S    
C7    N3    1.442466 S    
C11   C18   1.420788 A    
C22   H8    1.084766 S    
C32   C33   1.424960 A    
N3    O26   1.301068 A    
O9    C4    1.299606 A    
O12   C41   1.293306 A    
C27   C35   1.404689 A    
O12   V3    2.013482 S    
N4    O27   1.301750 A    
C28   C38   1.397632 A    
C24   H10   1.082613 S    
C11   C15   1.408207 A    
C8    H4    1.082588 S    
C7    C18   1.410971 A    
C45   H24   1.112745 S    
C32   C34   1.430360 A    
C5    C13   1.396917 A    
C4    C6    1.478598 S    
H1    C14   1.084465 S    
C10   C11   1.431192 A    
C25   H11   1.086034 S    
C21   C22   1.346673 D    
O4    C2    1.293698 A    
V4    O20   2.162309 S    
C31   C32   1.413820 A    
O18   V4    2.014933 S    
C27   C39   1.392424 A    
C22   C44   1.476711 S    
O2    C1    1.296680 A    
C23   C24   1.344282 D    
C35   C36   1.394624 A    
C9    N4    1.436666 S    
O15   V3    2.013452 S    
C38   H16   1.077222 S    
O19   C44   1.299884 A    
C46   H22   1.110866 S    
C26   H12   1.082403 S    
C23   H9    1.086274 S    
V3    O20   1.705290 S    
O3    C4    1.295939 A    
C12   C16   1.416431 A    
O6    V2    2.004071 S    
N2    O24   1.300828 A    
O9    V2    2.015009 S    
C5    C17   1.401411 A    
C40   C41   1.469279 S    
O13   V3    2.009678 S    
O2    V1    2.013408 S    
C28   C39   1.394928 A    
H13   C39   1.083444 S    
C1    C26   1.481219 S    
C18   C43   1.478008 S    
C45   H23   1.112678 S    
C14   C15   1.383416 A    
C17   C45   1.526836 S    
C16   H3    1.078629 S    
O1    C2    1.291460 A    
C19   C21   1.492263 S    
O14   C42   1.292884 A    
O17   V3    2.153339 S    
O14   V3    2.013411 S    
O5    V1    2.009675 S    
O11   V4    2.004523 S    
O8    C3    1.297129 A    
N1    O22   1.301851 A    
C31   H17   1.076176 S    
C29   C40   1.414336 A    
C15   H5    1.082454 S    
C33   C37   1.410458 A    
C27   H15   1.084127 S    
C19   H6    1.086069 S    
O7    V2    1.712009 S    
O4    V1    2.013514 S    
O3    V1    2.013312 S    
V1    O10   1.705354 S    
H14   C36   1.084326 S    
C30   C31   1.390213 A    
C41   O16   1.292025 A    
C24   C42   1.478110 S    
C5    H2    1.086162 S    
O13   C44   1.294533 A    
C34   C35   1.422443 A    
C36   C37   1.387411 A    
C34   C38   1.414667 A    
C45   C46   1.516164 S    
O18   C43   1.295758 A    
C13   C14   1.394288 A    
C8    C9    1.400077 A    
O19   V4    2.003411 S    
C46   H20   1.108133 S    
C7    C8    1.397928 A    
C23   C25   1.492889 S    
O16   V4    2.017635 S    
C6    C17   1.427812 A    
