data_mof_unit_3711.cif
_audit_creation_date              2012-12-10T17:55:27-0500
_audit_creation_method            fapswitch 2.2
_symmetry_space_group_name_H-M    P1
_symmetry_Int_Tables_number       1
_space_group_crystal_system       triclinic
_cell_length_a                    10.832642
_cell_length_b                    9.51989
_cell_length_c                    10.928048
_cell_angle_alpha                 89.999448
_cell_angle_beta                  90.029414
_cell_angle_gamma                 90.000026
_cell_volume                      1126.96092387

loop_
_atom_site_label
_atom_site_type_symbol
_atom_type_description
_atom_site_fract_x
_atom_site_fract_y
_atom_site_fract_z
_atom_type_partial_charge
C1    C     C_R   0.262063 0.499966 0.499819 0.778072
C2    C     C_R   0.737937 0.499966 0.500181 0.778073
C3    C     C_R   0.493398 0.499997 0.265565 0.718102
C4    C     C_R   0.506603 0.499996 0.734435 0.718084
C5    C     C_2   0.493504 0.391195 0.933537 -0.250340
C6    C     C_2   0.506474 0.391192 0.066464 -0.250343
C7    C     C_2   0.529827 0.500967 0.865401 0.423093
C8    C     C_2   0.470175 0.500973 0.134599 0.423083
C9    C     C_R   0.063852 0.372347 0.499838 -0.189246
C10   C     C_R   0.936148 0.372347 0.500161 -0.189244
C11   C     C_R   0.871780 0.499994 0.500280 -0.020241
C12   C     C_R   0.128220 0.499994 0.499720 -0.020242
C13   C     C_R   0.936143 0.627652 0.500205 -0.192373
C14   C     C_R   0.063857 0.627652 0.499797 -0.192371
C15   C     C_R   0.422413 0.074415 0.424904 -0.023628
C16   C     C_R   0.577587 0.074413 0.575096 -0.023627
C17   C     C_R   0.422409 0.925583 0.424903 -0.010939
C18   C     C_R   0.577591 0.925581 0.575097 -0.010937
Cu1   Cu    Cu3+1 0.500000 0.640660 0.500000 0.962148
Cu2   Cu    Cu3+1 0.500000 0.359340 0.500000 0.933358
H1    H     H_    0.456219 0.297102 0.891088 0.133801
H2    H     H_    0.543738 0.297087 0.108912 0.133810
H3    H     H_    0.111877 0.272538 0.499729 0.148355
H4    H     H_    0.888122 0.272538 0.500270 0.148356
H5    H     H_    0.888104 0.727453 0.500381 0.148287
H6    H     H_    0.111896 0.727453 0.499622 0.148288
H7    H     H_    0.360257 0.869491 0.364733 0.120053
H8    H     H_    0.639743 0.869489 0.635267 0.120046
N1    N     N_R   0.500000 0.852070 0.500000 -0.160098
N2    N     N_R   0.500000 0.147940 0.500000 -0.155250
O1    O     O_R   0.319640 0.618740 0.499990 -0.592488
O2    O     O_R   0.680360 0.618740 0.500010 -0.592490
O3    O     O_R   0.319620 0.381170 0.499990 -0.585890
O4    O     O_R   0.680380 0.381170 0.500010 -0.585889
O5    O     O_R   0.500000 0.618750 0.321940 -0.549374
O6    O     O_R   0.500000 0.618750 0.678060 -0.549386
O7    O     O_R   0.499970 0.381180 0.321940 -0.608584
O8    O     O_R   0.500030 0.381180 0.678060 -0.608579
O9    O     O_3   0.587914 0.615972 0.918353 -0.512472
C19   C     C_3   0.712740 0.617914 0.881652 -0.329178
H9    H     H_    0.721862 0.642240 0.782542 0.151026
H10   H     H_    0.759813 0.516951 0.903560 0.145120
H11   H     H_    0.760972 0.702191 0.932920 0.192345
O10   O     O_3   0.412111 0.615995 0.081649 -0.512468
C20   C     C_3   0.287273 0.617929 0.118310 -0.329174
H12   H     H_    0.278120 0.642200 0.217428 0.151000
H13   H     H_    0.240199 0.516982 0.096343 0.145139
H14   H     H_    0.239065 0.702242 0.067060 0.192346
H15   H     H_    0.360264 0.130500 0.364733 0.116432
H16   H     H_    0.639736 0.130497 0.635267 0.116433

loop_
_geom_bond_atom_site_label_1
_geom_bond_atom_site_label_2
_ccdc_geom_bond_type
C4    O6    A    
C15   C17   A    
Cu2   O8    S    
C9    C10   A    
Cu1   Cu2   S    
C3    O5    A    
Cu2   O4    S    
Cu1   O1    S    
C2    O4    A    
C6    H2    S    
C19   H10   S    
C1    O3    A    
C18   N1    A    
Cu2   N2    S    
C13   C14   A    
C14   H6    S    
C15   H15   S    
Cu2   O7    S    
C11   C13   A    
C13   H5    S    
C1    C12   S    
C4    C7    S    
C2    C11   S    
C16   C18   A    
C19   H9    S    
C12   C14   A    
Cu1   O5    S    
Cu1   O6    S    
C20   H13   S    
C5    C6    S    
C9    C12   A    
C10   C11   A    
Cu2   O3    S    
C16   N2    A    
C17   H7    S    
C17   N1    A    
C1    O1    A    
C18   H8    S    
O10   C20   S    
C3    O7    A    
C15   N2    A    
C2    O2    A    
C3    C8    S    
C20   H14   S    
O9    C19   S    
C5    C7    D    
C7    O9    S    
C9    H3    S    
C4    O8    A    
C6    C8    D    
C10   H4    S    
C20   H12   S    
Cu1   O2    S    
C19   H11   S    
C8    O10   S    
C16   H16   S    
C5    H1    S    
Cu1   N1    S    
