data_mof_unit_2834.cif
_audit_creation_date              2012-12-11T14:24:59-0500
_audit_creation_method            fapswitch 2.2
_symmetry_space_group_name_H-M    P1
_symmetry_Int_Tables_number       1
_space_group_crystal_system       triclinic
_cell_length_a                    19.647748
_cell_length_b                    11.332632
_cell_length_c                    18.764514
_cell_angle_alpha                 89.707484
_cell_angle_beta                  91.518322
_cell_angle_gamma                 89.875279
_cell_volume                      4176.58725115

loop_
_atom_site_label
_atom_site_type_symbol
_atom_type_description
_atom_site_fract_x
_atom_site_fract_y
_atom_site_fract_z
_atom_type_partial_charge
C1    C     C_R   0.728382 0.373123 0.145576 0.537082
C2    C     C_R   0.269345 0.374719 0.852936 0.533225
C3    C     C_R   0.228288 0.872848 0.145437 0.540561
C4    C     C_R   0.769335 0.874785 0.852903 0.529542
C5    C     C_3   0.449017 0.215850 0.032849 -0.140344
C6    C     C_3   0.443462 0.104473 0.985724 -0.105940
C7    C     C_3   0.948485 0.715234 0.033076 -0.139809
C8    C     C_3   0.943259 0.603902 0.985885 -0.105537
C9    C     C_R   0.745342 0.914048 0.923172 -0.005052
C10   C     C_R   0.243431 0.905836 0.071111 0.008348
C11   C     C_R   0.245387 0.413771 0.923273 -0.004877
C12   C     C_R   0.743726 0.406794 0.071464 0.008388
C13   C     C_R   0.696224 0.849567 0.964318 0.049392
C14   C     C_R   0.304030 0.871116 0.036878 0.038132
C15   C     C_R   0.196464 0.348986 0.964530 0.049725
C16   C     C_R   0.804458 0.372501 0.037372 0.037600
C17   C     C_R   0.703890 0.853299 0.040300 -0.004971
C18   C     C_R   0.302529 0.861123 0.961311 -0.011534
C19   C     C_R   0.204197 0.352824 0.040496 -0.005712
C20   C     C_R   0.802986 0.362382 0.961775 -0.011470
C21   C     C_R   0.787189 0.010293 0.029912 -0.152264
C22   C     C_R   0.189838 0.948559 0.956060 -0.154855
C23   C     C_R   0.287173 0.510276 0.029945 -0.152364
C24   C     C_R   0.690186 0.449462 0.956387 -0.155078
C25   C     C_R   0.786626 0.997907 0.957078 -0.172856
C26   C     C_R   0.187574 0.944451 0.029124 -0.170215
C27   C     C_R   0.286583 0.497806 0.957118 -0.172850
C28   C     C_R   0.687883 0.445368 0.029427 -0.169940
C29   C     C_R   0.640713 0.779762 0.935373 0.179055
C30   C     C_R   0.366503 0.847464 0.074551 0.169932
C31   C     C_R   0.141032 0.278912 0.935725 0.180117
C32   C     C_R   0.866863 0.348496 0.075199 0.169741
C33   C     C_R   0.103582 0.206451 0.981064 -0.124559
C34   C     C_R   0.918341 0.286315 0.041061 -0.124726
C35   C     C_R   0.603148 0.707357 0.980631 -0.124111
C36   C     C_R   0.417990 0.785283 0.040430 -0.125229
C37   C     C_R   0.616997 0.703096 0.053107 -0.160358
C38   C     C_R   0.411246 0.758115 0.968400 -0.169415
C39   C     C_R   0.117522 0.202326 0.053527 -0.159713
C40   C     C_R   0.911700 0.259340 0.969002 -0.170360
C41   C     C_R   0.667758 0.772838 0.082549 -0.100161
C42   C     C_R   0.355155 0.798476 0.928585 -0.111474
C43   C     C_R   0.168242 0.272271 0.082853 -0.100132
C44   C     C_R   0.855646 0.299685 0.929135 -0.111981
C45   C     C_R   0.534952 0.155132 0.143740 0.530738
C46   C     C_R   0.466241 0.155156 0.855562 0.536121
C47   C     C_R   0.034780 0.655140 0.143839 0.531538
C48   C     C_R   0.966086 0.655134 0.855659 0.535405
C49   C     C_R   0.747339 0.937820 0.072746 -0.004136
C50   C     C_R   0.248347 0.914493 0.921118 -0.006499
C51   C     C_R   0.247463 0.437662 0.072839 -0.004142
C52   C     C_R   0.748682 0.415329 0.921477 -0.006511
C53   C     C_R   0.493785 0.166503 0.573401 -0.016230
C54   C     C_R   0.498429 0.165607 0.422660 -0.015449
C55   C     C_R   0.003417 0.665151 0.578469 -0.014955
C56   C     C_R   0.007808 0.666813 0.427618 -0.016251
C57   C     C_R   0.508562 0.062213 0.535359 0.018240
C58   C     C_R   0.489643 0.061299 0.461852 0.019360
C59   C     C_R   0.012270 0.560662 0.539733 0.021365
C60   C     C_R   0.993246 0.562868 0.466222 0.015560
C61   C     C_R   0.491260 0.272082 0.459162 -0.173242
C62   C     C_R   0.482289 0.270539 0.533401 -0.179570
C63   C     C_R   0.019060 0.770723 0.467078 -0.178760
C64   C     C_R   0.010551 0.771744 0.541447 -0.175705
C65   C     C_R   0.530599 0.954500 0.568127 0.236736
C66   C     C_R   0.468991 0.954601 0.429119 0.244774
C67   C     C_R   0.032009 0.452323 0.572396 0.246792
C68   C     C_R   0.970386 0.456862 0.433390 0.233397
C69   C     C_R   0.017245 0.348850 0.535926 -0.083287
C70   C     C_R   0.983662 0.350349 0.469019 -0.079516
C71   C     C_R   0.517790 0.849175 0.531386 -0.080573
C72   C     C_R   0.484341 0.849828 0.464355 -0.085667
C73   C     C_R   0.746221 0.951681 0.587990 -0.024929
C74   C     C_R   0.250718 0.950072 0.412600 -0.020071
C75   C     C_R   0.247329 0.452783 0.588554 -0.016843
C76   C     C_R   0.752190 0.448788 0.413007 -0.026820
C77   C     C_R   0.790655 0.035301 0.556882 -0.066475
C78   C     C_R   0.204329 0.032250 0.441946 -0.064721
C79   C     C_R   0.292142 0.537454 0.559558 -0.065636
C80   C     C_R   0.706481 0.530284 0.444225 -0.066055
C81   C     C_R   0.796602 0.024051 0.482528 -0.025980
C82   C     C_R   0.199175 0.029841 0.516891 -0.032098
C83   C     C_R   0.298254 0.536601 0.484585 -0.033919
C84   C     C_R   0.701521 0.518703 0.518599 -0.027410
C85   C     C_R   0.683310 0.951910 0.480355 0.081276
C86   C     C_R   0.313391 0.955427 0.519891 0.081195
C87   C     C_R   0.185742 0.456251 0.480551 0.080387
C88   C     C_R   0.815980 0.450182 0.520153 0.082320
C89   C     C_R   0.740567 0.974503 0.147573 0.527374
C90   C     C_R   0.258434 0.968599 0.850377 0.534239
C91   C     C_R   0.240597 0.474458 0.147610 0.528818
C92   C     C_R   0.758514 0.468796 0.850496 0.533207
C93   C     C_R   0.692932 0.908364 0.547716 0.375990
C94   C     C_R   0.304133 0.909315 0.453543 0.368633
C95   C     C_R   0.194813 0.410854 0.547403 0.371632
C96   C     C_R   0.806118 0.406048 0.453227 0.374343
C97   C     C_R   0.846247 0.082749 0.596469 0.207287
C98   C     C_R   0.150963 0.085363 0.399974 0.214059
C99   C     C_R   0.344224 0.590421 0.602298 0.210422
C100  C     C_R   0.650074 0.578229 0.405203 0.212347
C101  C     C_R   0.910680 0.051530 0.572612 0.352034
C102  C     C_R   0.085640 0.077457 0.426266 0.328547
C103  C     C_R   0.410106 0.580510 0.577641 0.333447
C104  C     C_R   0.585938 0.550078 0.430771 0.346923
C105  C     C_R   0.916995 0.010754 0.502947 -0.118422
C106  C     C_R   0.079246 0.070321 0.499320 -0.167649
C107  C     C_R   0.417908 0.575537 0.504660 -0.164097
C108  C     C_R   0.580567 0.510197 0.500903 -0.123597
C109  C     C_R   0.861841 0.006270 0.456623 -0.079909
C110  C     C_R   0.134211 0.049915 0.544608 -0.081978
C111  C     C_R   0.363400 0.559515 0.458035 -0.075048
C112  C     C_R   0.636660 0.502496 0.545865 -0.084610
C113  C     C_R   0.737764 0.996248 0.442228 -0.048469
C114  C     C_R   0.258590 0.998188 0.557761 -0.039376
C115  C     C_R   0.240011 0.502122 0.442909 -0.042488
C116  C     C_R   0.761163 0.492852 0.558344 -0.045695
C117  C     C_R   0.730825 0.382767 0.350839 0.555054
C118  C     C_R   0.268925 0.383945 0.649855 0.558987
C119  C     C_R   0.230676 0.883132 0.350565 0.559519
C120  C     C_R   0.768877 0.883524 0.649473 0.553713
C121  C     C_R   0.532170 0.157763 0.352355 0.523368
C122  C     C_R   0.466266 0.157675 0.646575 0.521141
C123  C     C_R   0.034334 0.657644 0.353873 0.521082
C124  C     C_R   0.968361 0.657761 0.648034 0.523267
C125  C     C_R   0.731428 0.016147 0.363997 0.550536
C126  C     C_R   0.267730 0.016707 0.635868 0.553794
C127  C     C_R   0.231761 0.518058 0.364028 0.552468
C128  C     C_R   0.768174 0.515104 0.635891 0.552138
C129  C     C_3   0.552985 0.110766 0.966581 -0.142912
C130  C     C_3   0.558417 0.221606 0.013656 -0.118504
C131  C     C_3   0.052761 0.611278 0.966705 -0.143166
C132  C     C_3   0.057847 0.722065 0.013826 -0.118697
C133  C     C_3   0.507797 0.051248 0.022097 -0.093926
C134  C     C_3   0.494144 0.275233 0.976528 -0.107337
C135  C     C_3   0.007782 0.551234 0.022200 -0.094207
C136  C     C_3   0.993405 0.775151 0.976761 -0.107403
C137  C     C_3   0.512892 0.162161 0.068480 0.052033
C138  C     C_3   0.489148 0.163494 0.930504 0.051833
C139  C     C_3   0.012548 0.662112 0.068640 0.052066
C140  C     C_3   0.988759 0.663444 0.930678 0.052104
Cr1   Cr    Cr6+3 0.772820 0.169820 0.252640 1.063246
Cr2   Cr    Cr6+3 0.227180 0.169820 0.747360 1.042859
Cr3   Cr    Cr6+3 0.272820 0.669820 0.252640 1.046110
Cr4   Cr    Cr6+3 0.727180 0.669820 0.747360 1.057644
Cr5   Cr    Cr6+3 0.615040 0.323610 0.249150 1.041888
Cr6   Cr    Cr6+3 0.384960 0.323610 0.750850 1.043087
Cr7   Cr    Cr6+3 0.115040 0.823610 0.249150 1.037076
Cr8   Cr    Cr6+3 0.884960 0.823610 0.750850 1.049361
Cr9   Cr    Cr6+3 0.616720 0.011130 0.250660 0.974972
Cr10  Cr    Cr6+3 0.383280 0.011130 0.749340 0.970226
Cr11  Cr    Cr6+3 0.116720 0.511130 0.250660 0.977961
Cr12  Cr    Cr6+3 0.883280 0.511130 0.749340 0.966825
H1    H     H_    0.514201 0.959134 0.041197 0.146199
H2    H     H_    0.489637 0.367441 0.956656 0.117917
H3    H     H_    0.014582 0.459170 0.041238 0.146016
H4    H     H_    0.988615 0.867349 0.956942 0.117967
H5    H     H_    0.489871 0.354405 0.429978 0.192963
H6    H     H_    0.465152 0.349191 0.559683 0.168117
H7    H     H_    0.034741 0.850044 0.440182 0.170588
H8    H     H_    0.011539 0.853912 0.570329 0.186487
H9    H     H_    0.027445 0.266532 0.562690 0.157083
H10   H     H_    0.969537 0.267519 0.444514 0.206893
H11   H     H_    0.531327 0.765255 0.555638 0.199395
H12   H     H_    0.474011 0.768557 0.436977 0.161074
H13   H     H_    0.963043 0.977157 0.483245 0.138015
H14   H     H_    0.033046 0.094053 0.522352 0.172289
H15   H     H_    0.464719 0.599877 0.483142 0.171234
H16   H     H_    0.534263 0.480800 0.522162 0.139859
H17   H     H_    0.871133 0.968368 0.405163 0.175610
H18   H     H_    0.120431 0.042193 0.599255 0.208443
H19   H     H_    0.377597 0.558197 0.403392 0.216369
H20   H     H_    0.628102 0.465112 0.597851 0.173469
H21   H     H_    0.598312 0.072636 0.941671 0.107554
H22   H     H_    0.606791 0.265989 0.027505 0.125717
H23   H     H_    0.098217 0.573665 0.941756 0.107680
H24   H     H_    0.106093 0.766709 0.027738 0.125761
H25   H     H_    0.406501 0.258466 0.060911 0.109824
H26   H     H_    0.395754 0.056147 0.972711 0.137043
H27   H     H_    0.905836 0.757321 0.061197 0.109670
H28   H     H_    0.895653 0.555317 0.972898 0.137506
H29   H     H_    0.819289 0.078812 0.052553 0.163223
H30   H     H_    0.145695 0.982756 0.926909 0.142748
H31   H     H_    0.319161 0.578994 0.052534 0.163233
H32   H     H_    0.646014 0.483489 0.927218 0.143078
H33   H     H_    0.821746 0.051235 0.927296 0.145605
H34   H     H_    0.139467 0.966507 0.052280 0.145261
H35   H     H_    0.321595 0.551247 0.927279 0.146471
H36   H     H_    0.639716 0.467254 0.052509 0.145687
H37   H     H_    0.062886 0.151937 0.959703 0.085817
H38   H     H_    0.964704 0.261745 0.069935 0.107832
H39   H     H_    0.562501 0.652833 0.959190 0.086020
H40   H     H_    0.464460 0.761121 0.069229 0.106841
H41   H     H_    0.088423 0.144907 0.087438 0.116144
H42   H     H_    0.951097 0.210266 0.943085 0.110494
H43   H     H_    0.587834 0.645633 0.086932 0.114329
H44   H     H_    0.450622 0.709084 0.942430 0.111321
H45   H     H_    0.678636 0.762135 0.138976 0.129468
H46   H     H_    0.352092 0.775668 0.872702 0.136154
H47   H     H_    0.179177 0.261781 0.139290 0.130920
H48   H     H_    0.852625 0.276683 0.873286 0.135155
O1    O     O_R   0.788190 0.043000 0.172520 -0.518866
O2    O     O_R   0.211810 0.043000 0.827480 -0.514069
O3    O     O_R   0.288190 0.543000 0.172520 -0.518740
O4    O     O_R   0.711810 0.543000 0.827480 -0.513740
O5    O     O_R   0.556550 0.253260 0.323480 -0.480285
O6    O     O_R   0.443450 0.253260 0.676520 -0.494852
O7    O     O_R   0.056550 0.753260 0.323480 -0.494973
O8    O     O_R   0.943450 0.753260 0.676520 -0.478234
O9    O     O_R   0.545830 0.051610 0.330160 -0.527858
O10   O     O_R   0.454170 0.051610 0.669840 -0.525543
O11   O     O_R   0.045830 0.551610 0.330160 -0.522849
O12   O     O_R   0.954170 0.551610 0.669840 -0.529938
O13   O     O_R   0.681920 0.959720 0.327070 -0.535614
O14   O     O_R   0.318080 0.959720 0.672930 -0.535482
O15   O     O_R   0.181920 0.459720 0.327070 -0.533457
O16   O     O_R   0.818080 0.459720 0.672930 -0.537127
O17   O     O_3   0.668190 0.168190 0.250820 -0.299636
O18   O     O_3   0.331810 0.168190 0.749180 -0.293248
O19   O     O_3   0.168190 0.668190 0.250820 -0.298760
O20   O     O_3   0.831810 0.668190 0.749180 -0.294374
O21   O     O_R   0.766240 0.292300 0.176860 -0.475369
O22   O     O_R   0.233760 0.292300 0.823140 -0.468826
O23   O     O_R   0.266240 0.792300 0.176860 -0.475797
O24   O     O_R   0.733760 0.792300 0.823140 -0.468362
O25   O     O_R   0.670310 0.409160 0.168720 -0.544018
O26   O     O_R   0.329690 0.409160 0.831280 -0.527396
O27   O     O_R   0.170310 0.909160 0.168720 -0.539187
O28   O     O_R   0.829690 0.909160 0.831280 -0.531803
O29   O     O_R   0.556160 0.251900 0.173380 -0.503544
O30   O     O_R   0.443840 0.251900 0.826620 -0.499523
O31   O     O_R   0.056160 0.751900 0.173380 -0.502848
O32   O     O_R   0.943840 0.751900 0.826620 -0.500367
O33   O     O_R   0.545410 0.050140 0.168240 -0.529111
O34   O     O_R   0.454590 0.050140 0.831760 -0.537640
O35   O     O_R   0.045410 0.550140 0.168240 -0.528209
O36   O     O_R   0.954590 0.550140 0.831760 -0.538256
O37   O     O_R   0.681530 0.958350 0.176970 -0.512108
O38   O     O_R   0.318470 0.958350 0.823030 -0.515341
O39   O     O_R   0.181530 0.458350 0.176970 -0.511408
O40   O     O_R   0.818470 0.458350 0.823030 -0.516272
O41   O     O_R   0.788610 0.044480 0.334450 -0.499627
O42   O     O_R   0.211390 0.044480 0.665550 -0.520606
O43   O     O_R   0.288610 0.544480 0.334450 -0.519554
O44   O     O_R   0.711390 0.544480 0.665550 -0.501813
O45   O     O_R   0.766630 0.293670 0.326970 -0.445457
O46   O     O_R   0.233370 0.293670 0.673030 -0.451685
O47   O     O_R   0.266630 0.793670 0.326970 -0.452219
O48   O     O_R   0.733370 0.793670 0.673030 -0.446993
O49   O     O_R   0.670730 0.410640 0.330640 -0.488535
O50   O     O_R   0.329270 0.410640 0.669360 -0.494177
O51   O     O_R   0.170730 0.910640 0.330640 -0.495275
O52   O     O_R   0.829270 0.910640 0.669360 -0.484679
N1    N     N_2   0.561649 0.947479 0.638144 -0.453243
H49   H     H_    0.567427 0.865081 0.661144 0.282490
C141  C     C_3   0.607719 0.038435 0.664114 -0.264686
H50   H     H_    0.583760 0.089079 0.707189 0.144298
H51   H     H_    0.622970 0.099189 0.620784 0.127605
H52   H     H_    0.653673 0.996902 0.688574 0.132114
N2    N     N_2   0.436842 0.949774 0.359616 -0.445176
H53   H     H_    0.431657 0.868576 0.335455 0.277462
C142  C     C_3   0.387945 0.039602 0.337624 -0.252426
H54   H     H_    0.410565 0.099631 0.298123 0.135115
H55   H     H_    0.370516 0.092119 0.383499 0.131042
H56   H     H_    0.343506 0.997221 0.311381 0.139110
N3    N     N_2   0.062012 0.443060 0.642883 -0.453728
H57   H     H_    0.067096 0.359884 0.665011 0.270219
C143  C     C_3   0.109347 0.531144 0.669830 -0.260890
H58   H     H_    0.085236 0.584031 0.711844 0.140504
H59   H     H_    0.127016 0.590168 0.626777 0.131351
H60   H     H_    0.153814 0.486766 0.695529 0.138077
N4    N     N_2   0.937201 0.454172 0.364426 -0.445672
H61   H     H_    0.931134 0.373718 0.339593 0.289753
C144  C     C_3   0.889818 0.546940 0.343088 -0.258598
H62   H     H_    0.912678 0.604814 0.302586 0.139198
H63   H     H_    0.874307 0.600970 0.389172 0.127109
H64   H     H_    0.844108 0.507314 0.317649 0.131495
N5    N     N_2   0.621034 0.934873 0.447863 -0.504373
H65   H     H_    0.608958 0.008770 0.420568 0.280265
C145  C     C_3   0.617055 0.824064 0.412463 -0.202686
H66   H     H_    0.581340 0.827547 0.365609 0.169731
H67   H     H_    0.601074 0.759619 0.451694 0.186788
H68   H     H_    0.668276 0.796618 0.397098 0.185940
N6    N     N_2   0.377153 0.947755 0.551268 -0.505948
H69   H     H_    0.386534 0.023027 0.578279 0.275566
C146  C     C_3   0.386338 0.837652 0.587118 -0.197735
H70   H     H_    0.424759 0.841809 0.631383 0.187731
H71   H     H_    0.399884 0.777950 0.546079 0.201201
H72   H     H_    0.337780 0.803991 0.605935 0.177456
N7    N     N_2   0.122764 0.444503 0.448518 -0.507957
H73   H     H_    0.112691 0.518602 0.420459 0.277615
C147  C     C_3   0.116053 0.333419 0.414222 -0.199387
H74   H     H_    0.077666 0.335457 0.369768 0.185876
H75   H     H_    0.103082 0.273790 0.456075 0.204544
H76   H     H_    0.165613 0.301683 0.396412 0.177373
N8    N     N_2   0.879176 0.436591 0.552036 -0.501946
H77   H     H_    0.890806 0.511681 0.578148 0.278578
C148  C     C_3   0.885452 0.326738 0.589154 -0.205402
H78   H     H_    0.921533 0.332272 0.635553 0.168898
H79   H     H_    0.901503 0.261484 0.550768 0.183339
H80   H     H_    0.835071 0.298712 0.605945 0.188027
N9    N     N_2   0.839775 0.124163 0.668784 -0.492632
H81   H     H_    0.882892 0.140015 0.699772 0.282503
C149  C     C_3   0.775246 0.164940 0.695577 -0.324894
H82   H     H_    0.782829 0.249993 0.723653 0.161267
H83   H     H_    0.755977 0.099930 0.734510 0.147405
H84   H     H_    0.736909 0.179293 0.651908 0.128437
N10   N     N_2   0.159571 0.125197 0.327626 -0.481836
H85   H     H_    0.117300 0.151532 0.297848 0.281865
C150  C     C_3   0.224725 0.168581 0.304420 -0.325723
H86   H     H_    0.217777 0.255264 0.277508 0.164137
H87   H     H_    0.245467 0.106313 0.265308 0.141575
H88   H     H_    0.261456 0.180232 0.349734 0.129279
N11   N     N_2   0.333941 0.627172 0.674705 -0.483077
H89   H     H_    0.375641 0.653807 0.705008 0.280638
C151  C     C_3   0.268578 0.673377 0.695527 -0.325509
H90   H     H_    0.275848 0.759036 0.722978 0.166323
H91   H     H_    0.245321 0.611334 0.733660 0.140880
H92   H     H_    0.233670 0.688128 0.648859 0.131998
N12   N     N_2   0.655096 0.622581 0.333096 -0.492610
H93   H     H_    0.611567 0.636393 0.302236 0.285484
C152  C     C_3   0.719143 0.661481 0.304290 -0.325832
H94   H     H_    0.711681 0.747709 0.276958 0.159722
H95   H     H_    0.736234 0.597013 0.264346 0.148808
H96   H     H_    0.758953 0.672836 0.346684 0.125858
F1    F     F_    0.655196 0.815659 0.569622 -0.645428
F2    F     F_    0.344930 0.821204 0.431291 -0.657817
F3    F     F_    0.155687 0.320036 0.569255 -0.655229
F4    F     F_    0.845284 0.315485 0.431000 -0.644630
F5    F     F_    0.965498 0.056220 0.618043 -0.706904
F6    F     F_    0.030170 0.101730 0.384034 -0.696292
F7    F     F_    0.464892 0.602623 0.621093 -0.697812
F8    F     F_    0.530196 0.558460 0.386764 -0.709557
N13   N     N_2   0.617134 0.786169 0.862982 -0.477326
H97   H     H_    0.591631 0.712025 0.845045 0.243674
C153  C     C_3   0.582293 0.893590 0.842946 -0.291112
H98   H     H_    0.559875 0.884943 0.788387 0.155253
H99   H     H_    0.618671 0.968244 0.842571 0.132833
H100  H     H_    0.540499 0.909713 0.880268 0.169875
N14   N     N_2   0.380590 0.894634 0.143765 -0.486584
H101  H     H_    0.423829 0.863432 0.170055 0.249230
C154  C     C_3   0.368200 0.019918 0.152861 -0.294053
H102  H     H_    0.414053 0.063191 0.175587 0.147872
H103  H     H_    0.326191 0.032570 0.189999 0.127718
H104  H     H_    0.354001 0.064903 0.101944 0.134576
N15   N     N_2   0.117135 0.285683 0.863483 -0.478995
H105  H     H_    0.092422 0.210882 0.845348 0.241928
C155  C     C_3   0.080671 0.392005 0.844518 -0.293856
H106  H     H_    0.056936 0.382742 0.790611 0.153134
H107  H     H_    0.116294 0.467680 0.843161 0.134606
H108  H     H_    0.039604 0.406935 0.882926 0.169288
N16   N     N_2   0.880699 0.393842 0.144964 -0.484892
H109  H     H_    0.923627 0.361574 0.171344 0.250978
C156  C     C_3   0.868132 0.518665 0.155789 -0.292749
H110  H     H_    0.914266 0.561629 0.178180 0.148837
H111  H     H_    0.826905 0.529637 0.194139 0.128119
H112  H     H_    0.852932 0.565125 0.105609 0.133466

loop_
_geom_bond_atom_site_label_1
_geom_bond_atom_site_label_2
_ccdc_geom_bond_type
C99   C103  A    
C141  H51   S    
C133  C137  S    
C55   C59   A    
C24   H32   S    
C122  O6    A    
C147  H74   S    
C73   C93   A    
C136  C140  S    
C75   C95   A    
C149  H83   S    
N9    H81   S    
C130  H22   S    
C23   C51   A    
C135  C139  S    
C84   C112  A    
C71   H11   S    
C106  H14   S    
C79   C99   A    
C5    C6    S    
C67   N3    S    
N4    H61   S    
C100  C104  A    
C144  H64   S    
C33   H37   S    
C9    C13   A    
C131  C140  S    
Cr4   O4    S    
Cr7   O31   S    
C50   C90   S    
C66   C72   A    
C12   C16   A    
Cr2   O46   S    
C65   N1    S    
Cr9   O37   S    
N1    H49   S    
C87   C115  A    
C104  C108  A    
C150  H87   S    
C59   C60   A    
Cr11  O15   S    
C124  O8    A    
C8    C135  S    
C129  H21   S    
C130  C134  S    
C70   H10   S    
C156  H111  S    
Cr5   O49   S    
C47   O35   A    
C23   C27   A    
C107  H15   S    
Cr8   O52   S    
C90   O38   A    
C56   C123  S    
C42   H46   S    
C32   N16   S    
C29   N13   S    
C118  O50   A    
C153  H99   S    
C31   N15   S    
N13   H97   S    
Cr5   O25   S    
C32   C34   A    
C78   C82   A    
C149  H82   S    
C11   C27   A    
C16   C20   A    
Cr9   O17   S    
C25   H33   S    
C129  C133  S    
C47   O31   A    
C128  O44   A    
C85   N5    S    
C2    O26   A    
C95   F3    S    
C30   N14   S    
C98   N10   S    
C120  O52   A    
C45   O33   A    
N2    C142  S    
C39   C43   A    
C118  O46   A    
C5    C137  S    
Cr12  O36   S    
C54   C61   A    
C29   C35   A    
C30   C36   A    
C8    C140  S    
C146  H71   S    
C4    O24   A    
C76   C96   A    
C127  O15   A    
Cr4   O44   S    
C145  H67   S    
C69   C70   A    
Cr9   O13   S    
C153  H98   S    
Cr6   O18   S    
C152  H94   S    
C96   F4    S    
C73   C77   A    
C103  C107  A    
C67   C69   A    
C75   C79   A    
Cr1   O21   S    
C90   O2    A    
Cr3   O3    S    
N12   C152  S    
C88   C116  A    
N16   H109  S    
Cr8   O28   S    
C63   H7    S    
Cr5   O5    S    
C7    C8    S    
N8    C148  S    
C112  H20   S    
C132  C139  S    
Cr12  O16   S    
Cr10  O10   S    
C1    O21   A    
C147  H75   S    
Cr4   O20   S    
C53   C122  S    
C18   C42   A    
C142  H54   S    
C114  C126  S    
C143  H60   S    
N11   C151  S    
C119  O47   A    
Cr2   O18   S    
C59   C67   A    
C85   C93   A    
Cr3   O47   S    
C87   C95   A    
C126  O42   A    
Cr1   O45   S    
C122  O10   A    
C77   C97   A    
Cr1   O17   S    
C108  H16   S    
C84   C116  A    
N5    H65   S    
C148  H79   S    
C1    C12   S    
C125  O13   A    
C2    C11   S    
C20   C44   A    
C109  H17   S    
C154  H103  S    
Cr10  O18   S    
C48   C140  S    
C123  O7    A    
C83   C115  A    
C34   H38   S    
C127  O43   A    
C41   H45   S    
C10   C14   A    
C17   C49   A    
Cr7   O27   S    
C94   F2    S    
Cr2   O42   S    
Cr9   O33   S    
C23   H31   S    
C119  O51   A    
C132  C136  S    
C152  H96   S    
Cr11  O35   S    
N7    H73   S    
N3    C143  S    
C128  O16   A    
C54   C121  S    
C44   H48   S    
C46   O34   A    
C74   C78   A    
Cr3   O43   S    
C81   C113  A    
C129  C130  S    
C21   C25   A    
C92   O40   A    
C151  H92   S    
C35   H39   S    
C36   H40   S    
C107  C111  A    
C24   C28   A    
C142  H56   S    
C143  H58   S    
C15   C31   A    
C16   C32   A    
C13   C17   A    
C88   N8    S    
C85   C113  A    
C7    C136  S    
C22   H30   S    
C155  H108  S    
C26   H34   S    
C57   C58   A    
C144  H63   S    
C38   H44   S    
C111  H19   S    
C37   C41   A    
C61   C62   A    
C100  N12   S    
Cr3   O19   S    
C63   C64   A    
C40   C44   A    
C97   N9    S    
N6    H69   S    
C120  O48   A    
C4    C9    S    
N2    H53   S    
C24   C52   A    
C88   C96   A    
C74   C94   A    
C121  O5    A    
C80   C84   A    
C156  H110  S    
C9    C25   A    
C15   C19   A    
Cr7   O51   S    
C12   C28   A    
Cr2   O2    S    
C13   C29   A    
Cr9   O9    S    
C6    C133  S    
C28   H36   S    
C106  C110  A    
C150  H88   S    
C2    O22   A    
C132  H24   S    
Cr5   O29   S    
C126  O14   A    
C51   C91   S    
C3    O23   A    
C145  H66   S    
C62   H6    S    
Cr8   O32   S    
N15   C155  S    
C92   O4    A    
C22   C50   A    
N13   C153  S    
Cr12  O12   S    
C141  H52   S    
C151  H90   S    
C73   C120  S    
C6    H26   S    
C46   O30   A    
C75   C118  S    
C21   C49   A    
C19   C43   A    
C149  H84   S    
N9    C149  S    
N10   H85   S    
C89   O37   A    
C99   N11   S    
C68   N4    S    
C155  H106  S    
C117  O49   A    
C40   H42   S    
C124  O12   A    
C150  H86   S    
Cr1   O41   S    
C108  C112  A    
C146  H70   S    
C98   C102  A    
C39   H41   S    
N14   H101  S    
C77   C81   A    
C103  F7    S    
C64   H8    S    
C72   H12   S    
Cr8   O20   S    
C110  H18   S    
C81   C109  A    
C83   C111  A    
C52   C92   S    
C131  C132  S    
C3    O27   A    
N8    H77   S    
C156  H112  S    
C18   C50   A    
C1    O25   A    
C55   C124  S    
C53   C57   A    
C57   C65   A    
C153  H100  S    
N16   C156  S    
C117  O45   A    
Cr11  O39   S    
C131  C135  S    
C76   C117  S    
C36   C38   A    
Cr10  O34   S    
C79   C83   A    
C143  H59   S    
N11   H89   S    
C134  H2    S    
C105  C109  A    
C131  H23   S    
C87   N7    S    
C105  H13   S    
C4    O28   A    
Cr8   O8    S    
N12   H93   S    
C56   C60   A    
C71   C72   A    
Cr5   O17   S    
C60   C68   A    
C22   C26   A    
C47   C139  S    
C130  C137  S    
C91   O3    A    
Cr6   O30   S    
C89   O1    A    
N6    C146  S    
C148  H78   S    
C14   C18   A    
Cr6   O6    S    
C115  C127  S    
C101  F5    S    
C154  H102  S    
C21   H29   S    
C74   C119  S    
C33   C39   A    
Cr11  O11   S    
Cr6   O50   S    
C133  H1    S    
C82   C110  A    
C35   C37   A    
C69   H9    S    
C38   C42   A    
C146  H72   S    
C61   H5    S    
Cr3   O23   S    
C136  H4    S    
C113  C125  S    
C135  H3    S    
C145  H68   S    
C8    H28   S    
C86   C94   A    
C58   C66   A    
C129  C138  S    
C152  H95   S    
C123  O11   A    
C78   C98   A    
C86   N6    S    
C31   C33   A    
C125  O41   A    
C121  O9    A    
N3    H57   S    
C46   C138  S    
C10   C26   A    
Cr10  O14   S    
C80   C100  A    
C45   O29   A    
C14   C30   A    
C104  F8    S    
C101  C105  A    
C5    C134  S    
C151  H91   S    
C147  H76   S    
C82   C114  A    
C66   N2    S    
C142  H55   S    
C27   H35   S    
Cr10  O38   S    
C65   C71   A    
N10   C150  S    
C6    C138  S    
C155  H107  S    
C53   C62   A    
N1    C141  S    
Cr12  O40   S    
C55   C64   A    
C45   C137  S    
C144  H62   S    
C102  F6    S    
C56   C63   A    
C7    H27   S    
Cr7   O7    S    
C5    H25   S    
C48   O36   A    
N14   C154  S    
C11   C15   A    
N5    C145  S    
C148  H80   S    
C76   C80   A    
C141  H50   S    
Cr4   O48   S    
Cr1   O1    S    
C54   C58   A    
C154  H104  S    
N4    C144  S    
C49   C89   S    
C134  C138  S    
C93   F1    S    
C86   C114  A    
C20   C52   A    
C3    C10   S    
C7    C139  S    
Cr12  O20   S    
N7    C147  S    
C102  C106  A    
Cr11  O19   S    
C37   H43   S    
C17   C41   A    
Cr4   O24   S    
Cr7   O19   S    
C48   O32   A    
C19   C51   A    
C68   C70   A    
C116  C128  S    
C91   O39   A    
C34   C40   A    
C43   H47   S    
N15   H105  S    
Cr6   O26   S    
Cr2   O22   S    
C97   C101  A    
