data_mof_unit_753.cif
_audit_creation_date              2012-12-10T17:26:15-0500
_audit_creation_method            fapswitch 2.2
_symmetry_space_group_name_H-M    P1
_symmetry_Int_Tables_number       1
_space_group_crystal_system       triclinic
_cell_length_a                    10.186677
_cell_length_b                    10.67135
_cell_length_c                    27.611387
_cell_angle_alpha                 93.697244
_cell_angle_beta                  80.848055
_cell_angle_gamma                 98.371582
_cell_volume                      2929.10266762

loop_
_atom_site_label
_atom_site_type_symbol
_atom_type_description
_atom_site_fract_x
_atom_site_fract_y
_atom_site_fract_z
_atom_type_partial_charge
C1    C     C_R   0.559052 0.733455 0.495149 0.871257
C2    C     C_R   0.486163 0.594163 0.132930 -0.071673
C3    C     C_R   0.500869 0.519003 0.647205 -0.154363
C4    C     C_R   0.498433 0.478674 0.353487 -0.174434
C5    C     C_R   0.514841 0.609774 0.030509 0.017262
C6    C     C_R   0.447810 0.385555 0.972248 0.013185
C7    C     C_R   0.421824 0.383097 0.024425 0.075961
C8    C     C_R   0.545560 0.610824 0.978518 0.076816
C9    C     C_R   0.465515 0.492245 0.052661 -0.022187
C10   C     C_R   0.499363 0.503054 0.950130 -0.025370
C11   C     C_R   0.524249 0.723202 0.061061 0.524023
C12   C     C_R   0.440923 0.266881 0.505795 0.881175
C13   C     C_R   0.433351 0.273228 0.941343 0.526728
C14   C     C_R   0.510101 0.712286 0.112205 -0.273026
C15   C     C_R   0.437773 0.286225 0.890695 -0.269748
C16   C     C_R   0.500696 0.505153 0.593990 0.948572
C17   C     C_R   0.499267 0.494173 0.406236 0.965519
C18   C     C_R   0.632069 0.710965 0.953453 -0.064520
C19   C     C_R   0.342626 0.279801 0.050168 -0.066954
C20   C     C_2   0.600459 0.869136 0.491596 0.255650
C21   C     C_2   0.399572 0.132351 0.513830 0.223528
C22   C     C_2   0.506045 0.942435 0.487322 -0.138533
C23   C     C_R   0.507896 0.512260 0.898985 -0.073820
C24   C     C_2   0.494169 0.060692 0.518743 -0.142906
C25   C     C_2   0.935583 0.529129 0.496043 -0.069461
C26   C     C_2   0.075647 0.500404 0.490493 -0.005114
C27   C     C_R   0.537446 0.638565 0.827335 0.578019
C28   C     C_R   0.449213 0.358749 0.174126 0.576154
C29   C     C_R   0.468010 0.415875 0.820140 0.593756
C30   C     C_R   0.485164 0.584046 0.183044 0.610660
C31   C     C_R   0.374038 0.504551 0.729936 0.564076
C32   C     C_R   0.605757 0.529073 0.270448 0.565381
C33   C     C_R   0.378312 0.494994 0.678769 -0.441636
C34   C     C_R   0.458066 0.484179 0.103741 -0.075688
C35   C     C_R   0.606880 0.537849 0.321472 -0.407873
C36   C     C_R   0.619544 0.563688 0.666833 0.522093
C37   C     C_R   0.394872 0.398475 0.334546 0.408391
C38   C     C_R   0.615911 0.567387 0.717722 -0.306893
C39   C     C_R   0.388700 0.396154 0.284532 -0.275239
C40   C     C_R   0.494561 0.539478 0.748941 0.172327
C41   C     C_R   0.492516 0.461436 0.252493 0.151637
C42   C     C_3   0.789098 0.728464 0.645245 0.063602
C43   C     C_3   0.700864 0.819365 0.630175 -0.858917
C44   C     C_3   0.344922 0.197513 0.361455 0.143625
C45   C     C_R   0.555525 0.629077 0.876635 -0.036774
C46   C     C_3   0.224119 0.096116 0.373072 -0.768733
C47   C     C_3   0.191035 0.108612 0.559362 0.127296
C48   C     C_3   0.062522 0.015503 0.567498 -0.736395
C49   C     C_3   0.812053 0.951801 0.457055 0.147436
C50   C     C_3   0.833698 0.094945 0.452501 -0.858617
C51   C     C_2   0.117853 0.409368 0.451099 0.521891
C52   C     C_2   0.903031 0.650339 0.519837 0.467692
C53   C     C_2   0.704403 0.841424 0.879704 0.475058
C54   C     C_2   0.289200 0.145793 0.123515 0.466111
C55   C     C_3   0.775465 0.698546 0.252098 0.115512
C56   C     C_R   0.422797 0.365960 0.125749 -0.026978
C57   C     C_3   0.851276 0.767662 0.207358 -0.725151
C58   C     C_3   0.168137 0.378642 0.749475 0.106396
C59   C     C_3   0.072122 0.333422 0.794912 -0.729288
C60   C     C_3   0.595351 0.943275 0.066446 0.044339
C61   C     C_3   0.627394 0.059312 0.035313 -0.760717
C62   C     C_3   0.372494 0.051196 0.934113 0.043013
C63   C     C_3   0.351280 0.932677 0.963611 -0.750482
C64   C     C_2   0.750228 0.778205 0.974957 0.478387
C65   C     C_2   0.222688 0.208762 0.030914 0.487199
C66   C     C_2   0.575057 0.095825 0.559843 0.417472
C67   C     C_R   0.625088 0.727808 0.903608 -0.122153
C68   C     C_2   0.419869 0.906505 0.447742 0.408917
C69   C     C_R   0.357763 0.263219 0.099309 -0.119674
C70   C     C_R   0.468410 0.404542 0.870113 -0.075183
H1    H     H_    0.121589 0.608907 0.548916 0.183858
H2    H     H_    0.804621 0.749413 0.684029 0.171069
H3    H     H_    0.604234 0.814419 0.655540 0.251064
H4    H     H_    0.753140 0.918035 0.631771 0.237697
H5    H     H_    0.679825 0.795170 0.592259 0.254768
H6    H     H_    0.414119 0.195187 0.388659 0.126243
H7    H     H_    0.397605 0.171625 0.324293 0.153193
H8    H     H_    0.147670 0.105099 0.349426 0.253502
H9    H     H_    0.256091 0.000646 0.365979 0.213042
H10   H     H_    0.178759 0.104800 0.412167 0.291493
H11   H     H_    0.162922 0.205392 0.559391 0.184716
H12   H     H_    0.867080 0.363521 0.464502 0.166228
H13   H     H_    0.245795 0.102918 0.590968 0.132240
H14   H     H_    0.006064 0.015285 0.536260 0.292348
H15   H     H_    0.087310 0.918973 0.571074 0.271522
H16   H     H_    0.998472 0.043110 0.601802 0.186708
H17   H     H_    0.776259 0.904513 0.423300 0.129623
H18   H     H_    0.911013 0.921191 0.458204 0.211762
H19   H     H_    0.870174 0.142106 0.485844 0.272667
H20   H     H_    0.909552 0.121094 0.419916 0.223806
H21   H     H_    0.738350 0.128474 0.448068 0.253894
H22   H     H_    0.109504 0.426676 0.413509 0.080515
H23   H     H_    0.707961 0.590062 0.733328 0.177771
H24   H     H_    0.809886 0.654158 0.544070 0.160572
H25   H     H_    0.697598 0.934673 0.897310 0.035738
H26   H     H_    0.295558 0.054408 0.104276 0.037642
H27   H     H_    0.848847 0.686935 0.276721 0.138944
H28   H     H_    0.700309 0.758545 0.271186 0.172209
H29   H     H_    0.780680 0.781022 0.181917 0.264736
H30   H     H_    0.900748 0.862016 0.219006 0.211979
H31   H     H_    0.929170 0.711981 0.187807 0.260103
H32   H     H_    0.223875 0.298742 0.734230 0.169110
H33   H     H_    0.107702 0.403528 0.722237 0.139986
H34   H     H_    0.303271 0.341797 0.270564 0.212160
H35   H     H_    0.012692 0.409737 0.810718 0.259169
H36   H     H_    0.002347 0.249128 0.784995 0.209396
H37   H     H_    0.129478 0.307250 0.822877 0.268267
H38   H     H_    0.691124 0.920449 0.076078 0.180758
H39   H     H_    0.527830 0.969984 0.100049 0.162296
H40   H     H_    0.532743 0.093516 0.030901 0.284560
H41   H     H_    0.689324 0.136177 0.053931 0.226312
H42   H     H_    0.682814 0.036578 0.998638 0.248349
H43   H     H_    0.440461 0.031116 0.899675 0.165153
H44   H     H_    0.273095 0.068458 0.925984 0.181493
H45   H     H_    0.691361 0.590361 0.336542 0.167160
H46   H     H_    0.296676 0.949867 0.000986 0.254056
H47   H     H_    0.292661 0.853878 0.944683 0.222948
H48   H     H_    0.450078 0.904467 0.966319 0.281783
H49   H     H_    0.802135 0.867948 0.961362 0.037930
H50   H     H_    0.177153 0.117005 0.044461 0.036344
H51   H     H_    0.639941 0.033574 0.569863 0.141863
H52   H     H_    0.336979 0.955978 0.444311 0.147340
H53   H     H_    0.286326 0.468620 0.663442 0.177430
H54   H     H_    0.518157 0.795493 0.136464 0.179981
H55   H     H_    0.420858 0.204192 0.866400 0.180972
H56   H     H_    0.890109 0.748089 0.623021 0.174265
N1    N     N_R   0.496933 0.532175 0.800299 -0.328008
N2    N     N_R   0.477444 0.467566 0.201927 -0.329893
N3    N     N_2   0.842700 0.448890 0.480020 -0.241436
N4    N     N_2   0.157300 0.551110 0.519980 -0.195081
O1    O     O_R   0.431060 0.692470 0.504020 -0.595937
O2    O     O_2   0.451148 0.245322 0.192682 -0.533817
O3    O     O_2   0.493300 0.689712 0.212704 -0.569366
O4    O     O_2   0.438883 0.311473 0.791359 -0.570581
O5    O     O_3   0.738636 0.599425 0.635871 -0.632289
O6    O     O_3   0.301685 0.318500 0.364210 -0.607027
O7    O     O_3   0.267202 0.078562 0.513708 -0.622220
O8    O     O_3   0.727279 0.918822 0.501493 -0.660616
O9    O     O_2   0.148586 0.308972 0.460880 -0.551121
O10   O     O_2   0.981387 0.747453 0.512453 -0.629556
O11   O     O_2   0.783249 0.830924 0.841908 -0.524090
O12   O     O_R   0.568940 0.307530 0.495980 -0.613003
O13   O     O_2   0.219294 0.150740 0.163665 -0.526000
O14   O     O_3   0.714382 0.578309 0.236551 -0.600055
O15   O     O_3   0.254850 0.486837 0.762755 -0.598814
O16   O     O_3   0.530237 0.840357 0.040173 -0.651667
O17   O     O_3   0.432345 0.155461 0.961161 -0.652196
O18   O     O_2   0.795281 0.730497 0.006708 -0.570500
O19   O     O_2   0.169300 0.255212 0.001114 -0.570035
O20   O     O_2   0.563982 0.192738 0.585355 -0.589661
O21   O     O_2   0.445160 0.823415 0.416495 -0.601183
O22   O     O_R   0.651120 0.659650 0.491200 -0.634122
O23   O     O_R   0.348880 0.340350 0.508800 -0.563645
O24   O     O_R   0.389980 0.516390 0.577660 -0.646772
O25   O     O_R   0.610020 0.483610 0.422340 -0.632853
O26   O     O_R   0.610040 0.483570 0.564830 -0.557479
O27   O     O_R   0.389960 0.516430 0.435170 -0.561635
O28   O     O_2   0.556568 0.752248 0.806742 -0.523642
Zn1   Zn    Zn3+2 0.353060 0.521910 0.508560 1.003624
Zn2   Zn    Zn3+2 0.646940 0.478090 0.491440 0.962331

loop_
_geom_bond_atom_site_label_1
_geom_bond_atom_site_label_2
_ccdc_geom_bond_type
C43   H3    S    
C38   C40   A    
O22   Zn2   S    
C44   O6    S    
C23   C45   A    
C53   H25   S    
C49   H17   S    
C49   H18   S    
C21   O7    S    
C12   O23   A    
C25   N3    D    
C28   C56   A    
C58   O15   S    
C39   H34   S    
C39   C41   A    
C27   O28   S    
C34   C56   A    
C59   H35   S    
C64   H49   S    
C60   C61   S    
C44   H7    S    
C26   N4    D    
C62   H44   S    
C46   H9    S    
C63   H47   S    
C11   C14   A    
C27   C45   A    
C3    C33   A    
C57   H29   S    
C31   C40   A    
C38   H23   S    
C1    O22   A    
C20   O8    S    
C44   H6    S    
C60   H39   S    
C27   N1    A    
C50   H20   S    
C29   N1    A    
C35   H45   S    
C16   O26   A    
C32   C41   A    
C31   C33   A    
C52   H24   S    
C58   H32   S    
C47   H13   S    
C53   O11   D    
C17   O27   A    
C54   H26   S    
C60   H38   S    
C24   C66   S    
C2    C34   A    
C43   H4    S    
C54   O13   D    
C4    C35   A    
O27   Zn1   S    
C49   O8    S    
C64   O18   D    
C41   N2    S    
C47   O7    S    
C60   O16   S    
C2    C14   A    
C61   H40   S    
C44   C46   S    
C43   H5    S    
C30   N2    A    
C37   O6    S    
C59   H36   S    
C14   H54   S    
C32   C35   A    
O26   Zn2   S    
C62   H43   S    
C68   H52   S    
C46   H8    S    
C63   H48   S    
C29   O4    S    
C25   C26   S    
C40   N1    S    
C12   C21   S    
C59   H37   S    
C48   H14   S    
N4    Zn1   S    
C28   O2    S    
O23   Zn1   S    
C5    C9    A    
C62   C63   S    
C51   H22   S    
C50   H19   S    
C47   C48   S    
C30   O3    S    
C55   H27   S    
C42   H2    S    
C66   H51   S    
H12   N3    S    
O1    Zn1   S    
C22   C68   S    
C6    C7    A    
C63   H46   S    
C20   C22   D    
C56   C69   A    
C7    C19   A    
C62   O17   S    
C13   C15   A    
C16   O24   A    
C9    C34   A    
C22   C24   S    
C19   C69   A    
C42   C43   S    
C4    C17   S    
C17   O25   A    
C36   O5    S    
C29   C70   A    
C7    C9    A    
C15   C70   A    
C1    C20   S    
C55   O14   S    
C66   O20   D    
O25   Zn2   S    
O12   Zn2   S    
C1    O1    A    
C23   C70   A    
C6    C10   A    
C5    C8    A    
C11   O16   S    
C5    C11   A    
C45   C67   A    
C10   C23   A    
C8    C18   A    
C57   H31   S    
C2    C30   A    
C55   C57   S    
C18   C67   A    
C25   C52   S    
O24   Zn1   S    
C37   C39   A    
C68   O21   D    
C26   C51   S    
H1    N4    S    
C46   H10   S    
C57   H30   S    
C18   C64   S    
C54   C69   S    
C3    C36   A    
C55   H28   S    
C36   C38   A    
C52   O10   D    
C65   H50   S    
C12   O12   A    
C19   C65   S    
C48   H16   S    
C47   H11   S    
C65   O19   D    
C53   C67   S    
C58   C59   S    
C32   O14   S    
C42   H56   S    
C31   O15   S    
C50   H21   S    
C4    C37   A    
C8    C10   A    
C49   C50   S    
C15   H55   S    
C21   C24   D    
C33   H53   S    
C13   O17   S    
C48   H15   S    
C42   O5    S    
C58   H33   S    
C61   H42   S    
N3    Zn2   S    
C3    C16   S    
C28   N2    A    
C51   O9    D    
C6    C13   A    
C61   H41   S    
