data_mof_unit_1093.cif
_audit_creation_date              2012-12-11T16:51:24-0500
_audit_creation_method            fapswitch 2.2
_symmetry_space_group_name_H-M    P1
_symmetry_Int_Tables_number       1
_space_group_crystal_system       triclinic
_cell_length_a                    24.54079
_cell_length_b                    17.155728
_cell_length_c                    15.635018
_cell_angle_alpha                 90.717247
_cell_angle_beta                  129.522044
_cell_angle_gamma                 89.081746
_cell_volume                      5076.99339695

loop_
_atom_site_label
_atom_site_type_symbol
_atom_type_description
_atom_site_fract_x
_atom_site_fract_y
_atom_site_fract_z
_atom_type_partial_charge
C1    C     C_R   0.840375 0.871279 0.218868 -0.146509
C2    C     C_R   0.184503 0.116338 0.504482 0.009585
C3    C     C_1   0.735811 0.294712 0.214155 0.115017
C4    C     C_1   0.799181 0.878966 0.629748 0.153308
C5    C     C_1   0.144449 0.900182 0.210023 0.151661
C6    C     C_1   0.299597 0.378745 0.630464 0.153294
C7    C     C_1   0.644467 0.400207 0.210042 0.151631
C8    C     C_1   0.711855 0.073919 0.959834 0.069618
C9    C     C_1   0.286378 0.074374 0.031170 0.079612
C10   C     C_1   0.211818 0.573943 0.959850 0.069616
C11   C     C_1   0.786356 0.574375 0.031191 0.079635
C12   C     C_1   0.179166 0.692526 0.761637 0.086883
C13   C     C_R   0.357981 0.686901 0.501085 0.013012
C14   C     C_1   0.852157 0.685534 0.239037 0.082489
C15   C     C_1   0.679095 0.192506 0.761607 0.086906
C16   C     C_1   0.352105 0.185522 0.239050 0.082489
C17   C     C_1   0.049765 0.876239 0.849851 0.000130
C18   C     C_1   0.965208 0.863691 0.170060 0.009165
C19   C     C_1   0.549791 0.376283 0.849900 0.000139
C20   C     C_1   0.465219 0.363674 0.170081 0.009167
C21   C     C_1   0.919652 0.141179 0.696646 -0.002081
C22   C     C_1   0.090135 0.096129 0.298506 -0.025475
C23   C     C_1   0.419649 0.641182 0.696642 -0.002043
C24   C     C_R   0.684498 0.616356 0.504493 0.009563
C25   C     C_1   0.590149 0.596164 0.298518 -0.025398
C26   C     C_R   0.853789 0.134256 0.141816 0.145753
C27   C     C_R   0.146068 0.140059 0.853987 0.142777
C28   C     C_R   0.353785 0.634236 0.141801 0.145756
C29   C     C_R   0.646063 0.640073 0.853976 0.142778
C30   C     C_R   0.831470 0.745476 0.606933 0.052747
C31   C     C_R   0.232387 0.854199 0.401621 0.066211
C32   C     C_R   0.331603 0.245289 0.607014 0.052787
C33   C     C_R   0.156269 0.864318 0.768526 -0.129737
C34   C     C_R   0.732395 0.354206 0.401633 0.066193
C35   C     C_R   0.824071 0.754377 0.511315 0.060394
C36   C     C_R   0.243204 0.868876 0.499874 0.034981
C37   C     C_R   0.324105 0.254321 0.511324 0.060385
C38   C     C_R   0.743208 0.368878 0.499884 0.034975
C39   C     C_R   0.786143 0.699039 0.426006 -0.183889
C40   C     C_R   0.311410 0.853462 0.599980 -0.182045
C41   C     C_R   0.286088 0.199066 0.425915 -0.183841
C42   C     C_R   0.811412 0.353459 0.599991 -0.182043
C43   C     C_R   0.246212 0.144043 0.429189 -0.181217
C44   C     C_R   0.340390 0.371251 0.218901 -0.146480
C45   C     C_R   0.856559 0.302656 0.599766 -0.173765
C46   C     C_R   0.746263 0.644034 0.429290 -0.181183
C47   C     C_R   0.356557 0.802659 0.599755 -0.173766
C48   C     C_R   0.242335 0.147891 0.515114 0.056534
C49   C     C_R   0.831759 0.264931 0.500345 0.039858
C50   C     C_R   0.742311 0.647966 0.515131 0.056577
C51   C     C_R   0.331755 0.764930 0.500336 0.039859
C52   C     C_R   0.290713 0.193631 0.608308 0.066650
C53   C     C_R   0.775827 0.301835 0.401985 0.102169
C54   C     C_R   0.790588 0.693820 0.608242 0.066564
C55   C     C_R   0.656275 0.364326 0.768540 -0.129732
C56   C     C_R   0.275819 0.801828 0.401973 0.102163
C57   C     C_3   0.785592 0.744832 0.682496 -0.241293
C58   C     C_3   0.218332 0.775385 0.285938 -0.247366
C59   C     C_3   0.285905 0.244521 0.682855 -0.241368
C60   C     C_3   0.718345 0.275406 0.285941 -0.247362
C61   C     C_R   0.115572 0.900522 0.409013 -0.141532
C62   C     C_R   0.908694 0.860987 0.592951 -0.127294
C63   C     C_R   0.615574 0.400524 0.409016 -0.141534
C64   C     C_R   0.408702 0.360969 0.592956 -0.127238
C65   C     C_3   0.832165 0.802516 0.681823 -0.250287
C66   C     C_R   0.906322 0.139906 0.592675 0.077367
C67   C     C_3   0.169839 0.832975 0.285266 -0.253248
C68   C     C_3   0.332494 0.302200 0.682208 -0.250335
C69   C     C_3   0.669851 0.332992 0.285271 -0.253238
C70   C     C_2   0.162659 0.758767 0.884577 -0.258012
C71   C     C_2   0.831523 0.769775 0.095510 -0.269354
C72   C     C_2   0.662684 0.258795 0.884628 -0.258079
C73   C     C_2   0.331556 0.269735 0.095565 -0.269329
C74   C     C_2   0.190383 0.700116 0.864204 0.024945
C75   C     C_2   0.816537 0.704648 0.124304 0.032752
C76   C     C_2   0.690378 0.200129 0.864224 0.024934
C77   C     C_R   0.115765 0.102428 0.410415 0.087424
C78   C     C_2   0.316536 0.204622 0.124332 0.032730
C79   C     C_2   0.806859 0.167922 0.030737 -0.264804
C80   C     C_2   0.195432 0.175272 0.964351 -0.279762
C81   C     C_2   0.306857 0.667887 0.030711 -0.264783
C82   C     C_2   0.695426 0.675300 0.964330 -0.279777
C83   C     C_2   0.739215 0.145863 0.953615 0.038162
C84   C     C_2   0.263384 0.150985 0.037524 0.031456
C85   C     C_2   0.239205 0.645848 0.953601 0.038175
C86   C     C_2   0.763375 0.651006 0.037512 0.031439
C87   C     C_R   0.188922 0.897604 0.591929 -0.111527
C88   C     C_R   0.406321 0.639907 0.592672 0.077347
C89   C     C_R   0.831387 0.861254 0.408620 -0.117060
C90   C     C_R   0.688922 0.397604 0.591931 -0.111520
C91   C     C_R   0.331368 0.361264 0.408625 -0.117075
C92   C     C_R   0.071354 0.870336 0.783187 0.048321
C93   C     C_R   0.930600 0.870313 0.216968 0.072814
C94   C     C_R   0.571366 0.370354 0.783215 0.048248
C95   C     C_R   0.430612 0.370296 0.216993 0.072801
C96   C     C_R   0.866885 0.835020 0.173239 0.098062
C97   C     C_R   0.130576 0.828122 0.814455 0.104809
C98   C     C_R   0.366910 0.334984 0.173289 0.098056
C99   C     C_R   0.615768 0.602436 0.410423 0.087405
C100  C     C_R   0.630591 0.328141 0.814490 0.104838
C101  C     C_R   0.184501 0.884754 0.500198 0.064273
C102  C     C_R   0.854262 0.821117 0.502479 0.060367
C103  C     C_R   0.684502 0.384755 0.500202 0.064273
C104  C     C_R   0.354255 0.321110 0.502488 0.060367
C105  C     C_R   0.837968 0.144533 0.408785 -0.159282
C106  C     C_R   0.189099 0.099503 0.594139 -0.156752
C107  C     C_R   0.337967 0.644532 0.408783 -0.159292
C108  C     C_R   0.689094 0.599525 0.594149 -0.156823
C109  C     C_R   0.923730 0.112184 0.201204 -0.136839
C110  C     C_R   0.857982 0.186901 0.501089 0.013013
C111  C     C_R   0.077878 0.113328 0.800239 -0.141293
C112  C     C_R   0.423729 0.612171 0.201196 -0.136836
C113  C     C_R   0.577875 0.613336 0.800233 -0.141278
C114  C     C_R   0.164709 0.117270 0.791322 -0.104639
C115  C     C_R   0.833550 0.111529 0.201848 -0.116882
C116  C     C_R   0.664707 0.617275 0.791317 -0.104706
C117  C     C_R   0.333548 0.611521 0.201841 -0.116873
C118  C     C_1   0.713315 0.773261 0.630540 0.152119
C119  C     C_1   0.235782 0.794677 0.214127 0.115021
C120  C     C_1   0.213707 0.273062 0.631193 0.152043
H1    H     H_    0.787971 0.864367 0.192084 0.107692
H2    H     H_    0.202272 0.713935 0.279032 0.129945
H3    H     H_    0.312839 0.217705 0.765477 0.122769
H4    H     H_    0.702279 0.213956 0.279013 0.129937
H5    H     H_    0.885480 0.807999 0.764193 0.137432
H6    H     H_    0.127578 0.803020 0.278861 0.143851
H7    H     H_    0.385859 0.307530 0.764518 0.137447
H8    H     H_    0.627586 0.303035 0.278853 0.143853
H9    H     H_    0.825870 0.218870 0.016431 0.145431
H10   H     H_    0.178952 0.229522 0.978899 0.145089
H11   H     H_    0.325882 0.718806 0.016383 0.145419
H12   H     H_    0.204679 0.851162 0.782770 0.111796
H13   H     H_    0.678951 0.729566 0.978854 0.145093
H14   H     H_    0.166871 0.757079 0.957901 0.154080
H15   H     H_    0.809093 0.779228 0.010046 0.146808
H16   H     H_    0.666933 0.257129 0.957985 0.154100
H17   H     H_    0.309173 0.279168 0.010121 0.146827
H18   H     H_    0.097198 0.913341 0.327387 0.117534
H19   H     H_    0.934924 0.847069 0.677309 0.112519
H20   H     H_    0.597202 0.413345 0.327391 0.117527
H21   H     H_    0.434979 0.347005 0.677318 0.112500
H22   H     H_    0.236764 0.902737 0.676905 0.083662
H23   H     H_    0.287990 0.364324 0.192124 0.107685
H24   H     H_    0.785527 0.848490 0.324685 0.093427
H25   H     H_    0.736764 0.402738 0.676907 0.083665
H26   H     H_    0.285502 0.348507 0.324691 0.093399
H27   H     H_    0.802099 0.162198 0.324020 0.114622
H28   H     H_    0.236665 0.094548 0.679625 0.101430
H29   H     H_    0.302099 0.662196 0.324018 0.114629
H30   H     H_    0.736658 0.594609 0.679644 0.101451
H31   H     H_    0.951910 0.111949 0.169647 0.126213
H32   H     H_    0.053297 0.110149 0.837611 0.126487
H33   H     H_    0.451910 0.611927 0.169640 0.126202
H34   H     H_    0.704684 0.351167 0.782783 0.111788
H35   H     H_    0.553293 0.610163 0.837604 0.126489
H36   H     H_    0.216354 0.120733 0.813701 0.095032
H37   H     H_    0.780284 0.111057 0.173477 0.098310
H38   H     H_    0.716353 0.620737 0.813701 0.095029
H39   H     H_    0.280284 0.611051 0.173475 0.098315
H40   H     H_    0.783122 0.701848 0.354010 0.137529
H41   H     H_    0.326900 0.871694 0.679099 0.124100
H42   H     H_    0.282987 0.201961 0.353850 0.137486
H43   H     H_    0.826900 0.371686 0.679110 0.124103
H44   H     H_    0.214630 0.103914 0.360649 0.146123
H45   H     H_    0.906329 0.286996 0.678494 0.138506
H46   H     H_    0.714737 0.603838 0.360820 0.146093
H47   H     H_    0.406329 0.787003 0.678482 0.138499
H48   H     H_    0.812484 0.718153 0.765189 0.122778
N1    N     N_R   0.888400 0.921830 0.294620 -0.052967
N2    N     N_R   0.874350 0.922400 0.443380 -0.040488
N3    N     N_R   0.625650 0.422400 0.556620 -0.040731
N4    N     N_R   0.374350 0.422400 0.443380 -0.040488
N5    N     N_R   0.054230 0.922730 0.705400 -0.063006
N6    N     N_R   0.945770 0.922730 0.294600 -0.066179
N7    N     N_R   0.554230 0.422730 0.705400 -0.063004
N8    N     N_R   0.445770 0.422730 0.294600 -0.066181
N9    N     N_R   0.873790 0.077030 0.443380 -0.049561
N10   N     N_R   0.126210 0.077030 0.556620 -0.048195
N11   N     N_R   0.373790 0.577030 0.443380 -0.049563
N12   N     N_R   0.111600 0.921830 0.705380 -0.055627
N13   N     N_R   0.626210 0.577030 0.556620 -0.048184
N14   N     N_R   0.945200 0.076700 0.294600 -0.047325
N15   N     N_R   0.054800 0.076700 0.705400 -0.049492
N16   N     N_R   0.445200 0.576700 0.294600 -0.047326
N17   N     N_R   0.554800 0.576700 0.705400 -0.049492
N18   N     N_R   0.111030 0.077600 0.705380 -0.047329
N19   N     N_R   0.888970 0.077600 0.294620 -0.047163
N20   N     N_R   0.611030 0.577600 0.705380 -0.047321
N21   N     N_R   0.388970 0.577600 0.294620 -0.047166
N22   N     N_R   0.919490 0.077280 0.556590 -0.059756
N23   N     N_R   0.388400 0.421830 0.294620 -0.052970
N24   N     N_R   0.080510 0.077280 0.443410 -0.060099
N25   N     N_R   0.419490 0.577280 0.556590 -0.059752
N26   N     N_R   0.580510 0.577280 0.443410 -0.060097
N27   N     N_1   0.656813 0.795422 0.590025 -0.083759
N28   N     N_1   0.250309 0.810209 0.159080 -0.092994
N29   N     N_1   0.157272 0.295320 0.590918 -0.083749
N30   N     N_1   0.750352 0.310257 0.159131 -0.093003
N31   N     N_1   0.773521 0.938781 0.589105 -0.083240
N32   N     N_1   0.124730 0.952827 0.151062 -0.078032
N33   N     N_1   0.274010 0.438636 0.590087 -0.083197
N34   N     N_R   0.611600 0.421830 0.705380 -0.055623
N35   N     N_1   0.624752 0.452859 0.151092 -0.078028
N36   N     N_1   0.690002 0.016360 0.964722 -0.097579
N37   N     N_1   0.304674 0.013151 0.026071 -0.093550
N38   N     N_1   0.189942 0.516417 0.964762 -0.097572
N39   N     N_1   0.804640 0.513134 0.026119 -0.093536
N40   N     N_1   0.170237 0.686422 0.679717 -0.079773
N41   N     N_1   0.881083 0.670189 0.330803 -0.088306
N42   N     N_1   0.670111 0.186376 0.679646 -0.079773
N43   N     N_1   0.380988 0.170186 0.330804 -0.088291
N44   N     N_1   0.032541 0.880986 0.903548 -0.082117
N45   N     N_R   0.079940 0.922160 0.443410 -0.043465
N46   N     N_1   0.991592 0.858069 0.129865 -0.093943
N47   N     N_1   0.532575 0.381048 0.903609 -0.082100
N48   N     N_1   0.491600 0.358051 0.129884 -0.093944
N49   N     N_1   0.929422 0.142048 0.779503 -0.087634
N50   N     N_1   0.070016 0.091091 0.208680 -0.087412
N51   N     N_1   0.429417 0.642053 0.779498 -0.087614
N52   N     N_1   0.570041 0.591149 0.208697 -0.087389
N53   N     N_R   0.920060 0.922160 0.556590 -0.044272
N54   N     N_R   0.579940 0.422160 0.443410 -0.043467
N55   N     N_R   0.420060 0.422160 0.556590 -0.044266
N56   N     N_R   0.125650 0.922400 0.556620 -0.040732
Ni1   Ni    Ni4+2 0.882160 0.999430 0.370180 0.213139
Ni2   Ni    Ni4+2 0.117840 0.999430 0.629820 0.206001
Ni3   Ni    Ni4+2 0.382160 0.499430 0.370180 0.213138
Ni4   Ni    Ni4+2 0.617840 0.499430 0.629820 0.206004
Ni5   Ni    Ni4+2 0.012460 0.999430 0.370180 0.224436
Ni6   Ni    Ni4+2 0.987540 0.999430 0.629820 0.230620
Ni7   Ni    Ni4+2 0.512460 0.499430 0.370180 0.224427
Ni8   Ni    Ni4+2 0.487540 0.499430 0.629820 0.230643

loop_
_geom_bond_atom_site_label_1
_geom_bond_atom_site_label_2
_ccdc_geom_bond_type
C109  N14   A    
C8    C83   S    
C40   C47   A    
C71   C75   D    
C105  C110  A    
C10   C85   S    
C59   C120  S    
C12   C74   S    
C39   H40   S    
C117  H39   S    
C24   C99   A    
C63   H20   S    
C61   C101  A    
C91   C104  A    
C5    C67   S    
C17   N44   T    
C111  H32   S    
C72   C100  S    
N10   N24   A    
C95   C98   A    
C112  N16   A    
C57   H48   S    
N21   Ni3   S    
C28   C112  A    
C31   C67   S    
C116  N20   A    
C99   N26   A    
C50   C54   A    
C11   N39   T    
C108  N13   A    
C115  H37   S    
C20   N48   T    
C109  H31   S    
C89   N2    A    
C38   C42   A    
C90   H25   S    
C28   C117  A    
C1    C96   A    
C44   N23   A    
C71   H15   S    
C4    C65   S    
C21   C66   S    
N45   N56   A    
C49   C53   A    
C61   H18   S    
C81   H11   S    
C64   H21   S    
N4    Ni3   S    
C11   C86   S    
C79   H9    S    
C93   N6    A    
C3    N30   T    
C106  H28   S    
C51   C56   A    
C62   N53   A    
N12   Ni2   S    
C60   H4    S    
C26   C115  A    
C32   C52   A    
C7    N35   T    
N14   Ni5   S    
C13   C51   S    
C44   C98   A    
C25   C99   S    
C4    N31   T    
C69   H8    S    
N18   Ni2   S    
N53   Ni6   S    
C70   C74   D    
C55   H34   S    
N1    N6    A    
N9    N22   A    
C94   C100  A    
C62   H19   S    
C119  N28   T    
C43   C48   A    
C16   C78   S    
C70   C97   S    
C13   C107  A    
C94   N7    A    
C32   C68   S    
C3    C60   S    
C35   C102  S    
C6    C68   S    
C15   C76   S    
C22   N50   T    
C27   C111  A    
C74   C85   S    
C21   N49   T    
C41   H42   S    
C33   N12   A    
C59   H3    S    
C41   C43   A    
C63   N54   A    
C18   N46   T    
C17   C92   S    
C61   N45   A    
C113  H35   S    
N26   Ni7   S    
C76   C83   S    
C114  H36   S    
C53   C60   S    
C92   C97   A    
C5    N32   T    
N13   Ni4   S    
C24   C50   S    
N24   Ni5   S    
C23   N51   T    
C58   H2    S    
C80   H10   S    
C80   C84   D    
C36   C40   A    
C106  N10   A    
N7    N34   A    
C6    N33   T    
C63   C103  A    
C27   C80   S    
N15   N18   A    
C57   C65   S    
C42   H43   S    
N17   N20   A    
N34   Ni4   S    
C71   C96   S    
N5    N12   A    
C2    C48   S    
C82   C86   D    
C55   N34   A    
C2    C106  A    
N11   Ni3   S    
C64   N55   A    
C36   C101  S    
N22   Ni6   S    
C42   C45   A    
C65   H5    S    
C55   C100  A    
C35   C39   A    
C95   N8    A    
C116  H38   S    
C38   C103  S    
N13   N26   A    
C52   C59   S    
C59   C68   S    
N2    N53   A    
C115  N19   A    
C75   C86   S    
C34   C69   S    
C47   H47   S    
C45   C49   A    
C73   C78   D    
C90   N3    A    
C113  N17   A    
C89   C102  A    
C111  N15   A    
C120  N29   T    
C72   C76   D    
C32   C37   A    
C66   C110  A    
C118  N27   T    
C68   H7    S    
C19   C94   S    
C117  N21   A    
C39   C46   A    
C108  H30   S    
C91   N4    A    
C33   H12   S    
C29   C116  A    
N54   Ni7   S    
C93   C96   A    
C112  H33   S    
C31   C56   A    
N1    Ni1   S    
C67   H6    S    
C87   C101  A    
C12   N40   T    
N3    N54   A    
N45   Ni5   S    
N55   Ni8   S    
N11   N25   A    
C64   C104  A    
N17   Ni8   S    
C29   C113  A    
N15   Ni6   S    
N23   Ni3   S    
N7    Ni8   S    
C46   H46   S    
C14   N41   T    
C107  N11   A    
C28   C81   S    
C34   C38   A    
C77   N24   A    
C88   N25   A    
C20   C95   S    
C16   N43   T    
C22   C77   S    
C105  N9    A    
N20   Ni4   S    
N56   Ni2   S    
C7    C69   S    
C37   C104  S    
C47   C51   A    
C30   C54   A    
C92   N5    A    
C15   N42   T    
C89   H24   S    
C30   C35   A    
C46   C50   A    
C26   C79   S    
C114  N18   A    
C23   C88   S    
C87   N56   A    
C82   H13   S    
C73   C98   S    
C10   N38   T    
C40   H41   S    
N4    N55   A    
C9    N37   T    
C14   C75   S    
C79   C83   D    
N8    Ni7   S    
C26   C109  A    
C73   H17   S    
C60   C69   S    
C44   H23   S    
N19   Ni1   S    
C66   N22   A    
C13   C88   A    
C1    N1    A    
C58   C119  S    
C8    N36   T    
C56   C58   S    
C33   C97   A    
N14   N19   A    
C87   H22   S    
C37   C41   A    
N8    N23   A    
N6    Ni5   S    
C1    H1    S    
C90   C103  A    
N10   Ni2   S    
C30   C65   S    
C72   H16   S    
N5    Ni6   S    
C9    C84   S    
N9    Ni1   S    
C107  H29   S    
C27   C114  A    
C78   C84   S    
C58   C67   S    
C29   C82   S    
N16   Ni7   S    
N3    Ni4   S    
C34   C53   A    
N2    Ni1   S    
C70   H14   S    
C18   C93   S    
C2    C77   A    
C31   C36   A    
C57   C118  S    
C25   N52   T    
N25   Ni8   S    
C43   H44   S    
C48   C52   A    
C45   H45   S    
N16   N21   A    
C91   H26   S    
C81   C85   D    
C24   C108  A    
C19   N47   T    
C49   C110  S    
C62   C102  A    
C54   C57   S    
C105  H27   S    
