data_mof_unit_445.cif
_audit_creation_date              2012-12-11T18:11:31-0500
_audit_creation_method            fapswitch 2.2
_symmetry_space_group_name_H-M    P1
_symmetry_Int_Tables_number       1
_space_group_crystal_system       triclinic
_cell_length_a                    8.20226
_cell_length_b                    12.926298
_cell_length_c                    18.819404
_cell_angle_alpha                 100.271483
_cell_angle_beta                  91.442102
_cell_angle_gamma                 97.930151
_cell_volume                      1942.03467776

loop_
_atom_site_label
_atom_site_type_symbol
_atom_type_description
_atom_site_fract_x
_atom_site_fract_y
_atom_site_fract_z
_atom_type_partial_charge
Ba1   Ba    Ba6+2 0.852780 0.548340 0.465070 1.676527
Ba2   Ba    Ba6+2 0.337060 0.451750 0.534940 1.666840
C1    C     C_3   0.626688 0.890502 0.240030 -0.387286
C2    C     C_3   0.644137 0.807795 0.286725 0.326772
C3    C     C_3   0.460650 0.267848 0.311677 0.343420
C4    C     C_3   0.421470 0.221174 0.232058 -0.342566
C5    C     C_3   0.064177 0.246132 0.733241 0.361204
C6    C     C_3   0.084130 0.224320 0.809550 -0.314053
C7    C     C_3   0.565338 0.188112 0.702770 0.347003
C8    C     C_3   0.627770 0.115011 0.748868 -0.390319
C9    C     C_R   0.997152 0.436518 0.046077 0.011926
C10   C     C_R   0.901299 0.383686 0.094059 -0.093968
C11   C     C_R   0.771707 0.405703 0.950529 -0.104783
C12   C     C_3   0.127669 0.749998 0.267231 0.385199
C13   C     C_R   0.936281 0.443708 0.975226 0.027058
C14   C     C_R   0.715067 0.410958 0.881336 -0.092169
C15   C     C_R   0.819021 0.454478 0.832753 -0.025732
C16   C     C_R   0.982080 0.501356 0.856831 -0.020408
C17   C     C_R   0.040900 0.494435 0.928308 0.024357
C18   C     C_R   0.763912 0.451602 0.760753 -0.007488
C19   C     C_R   0.871830 0.492326 0.712909 -0.303333
C20   C     C_R   0.028283 0.548553 0.735800 0.051023
C21   C     C_R   0.084171 0.557031 0.810567 -0.047378
C22   C     C_R   0.161281 0.481440 0.069598 0.026721
C23   C     C_3   0.126613 0.774246 0.191106 -0.355162
C24   C     C_R   0.220159 0.481761 0.141988 0.002224
C25   C     C_R   0.114808 0.437553 0.191301 -0.033236
C26   C     C_R   0.959711 0.383146 0.164347 -0.023604
C27   C     C_R   0.234619 0.617233 0.843277 0.201217
C28   C     C_R   0.294577 0.602444 0.910154 -0.082504
C29   C     C_R   0.203859 0.538659 0.952545 -0.016345
C30   C     C_R   0.267063 0.527361 0.021536 0.025532
C31   C     C_R   0.434697 0.559768 0.043872 -0.107698
C32   C     C_R   0.384582 0.526950 0.164889 -0.026949
C33   C     C_R   0.491411 0.560633 0.114008 -0.090550
C34   C     C_3   0.245247 0.783717 0.622497 0.255335
C35   C     C_R   0.437978 0.536966 0.237881 -0.040236
C36   C     C_R   0.329039 0.499551 0.286973 -0.318332
C37   C     C_R   0.168808 0.448942 0.265473 0.010438
C38   C     C_R   0.761503 0.179223 0.526535 -0.262575
C39   C     C_R   0.419545 0.814167 0.478675 -0.249712
C40   C     C_R   0.401741 0.977782 0.437258 -0.114858
C41   C     C_R   0.332437 0.875339 0.442673 -0.033173
C42   C     C_R   0.575798 0.851172 0.511248 0.044969
C43   C     C_R   0.642274 0.960798 0.514232 -0.036632
C44   C     C_R   0.552532 0.026295 0.477683 -0.067644
C45   C     C_3   0.299560 0.903189 0.646587 -0.277516
C46   C     C_R   0.616010 0.137030 0.485492 0.033017
C47   C     C_R   0.856022 0.115269 0.556253 -0.017750
C48   C     C_R   0.794596 0.007124 0.552282 -0.090071
C49   C     C_3   0.955628 0.217585 0.380158 0.294356
C50   C     C_3   0.896374 0.098966 0.358937 -0.417007
C51   C     C_3   0.738734 0.710573 0.681995 0.299183
C52   C     C_3   0.807022 0.756392 0.758965 -0.372912
H1    H     H_    0.729613 0.843823 0.334145 0.083036
H2    H     H_    0.420821 0.916165 0.676923 0.117607
H3    H     H_    0.314136 0.942562 0.598940 0.000847
H4    H     H_    0.855815 0.257730 0.405825 0.013347
H5    H     H_    0.063091 0.230614 0.418937 0.067833
H6    H     H_    0.772315 0.086703 0.331881 0.129701
H7    H     H_    0.890602 0.060649 0.407092 0.082598
H8    H     H_    0.980977 0.060372 0.321020 0.164053
H9    H     H_    0.833963 0.670929 0.651818 0.010528
H10   H     H_    0.627592 0.651648 0.683733 0.075252
H11   H     H_    0.576531 0.958477 0.271379 0.147912
H12   H     H_    0.933298 0.799656 0.758245 0.149178
H13   H     H_    0.810438 0.692140 0.790662 0.070887
H14   H     H_    0.728865 0.813232 0.786407 0.169450
H15   H     H_    0.521238 0.782676 0.306463 -0.025376
H16   H     H_    0.541473 0.855207 0.192418 0.123414
H17   H     H_    0.346391 0.292688 0.335205 -0.029857
H18   H     H_    0.561164 0.335584 0.315072 0.011644
H19   H     H_    0.319390 0.153685 0.226049 0.157923
H20   H     H_    0.383440 0.282751 0.203500 0.035314
H21   H     H_    0.532139 0.192716 0.206958 0.115492
H22   H     H_    0.748878 0.919500 0.221058 0.129195
H23   H     H_    0.163976 0.706970 0.152773 0.064979
H24   H     H_    0.149025 0.319359 0.729229 0.091318
H25   H     H_    0.935196 0.258846 0.723520 -0.078367
H26   H     H_    0.215243 0.219419 0.822664 0.169573
H27   H     H_    0.044017 0.288878 0.849066 0.052224
H28   H     H_    0.008045 0.148130 0.814333 0.140628
H29   H     H_    0.671225 0.220461 0.673644 -0.054768
H30   H     H_    0.471809 0.140825 0.661636 0.079106
H31   H     H_    0.717460 0.162025 0.791619 0.109996
H32   H     H_    0.689021 0.053958 0.714664 0.082180
H33   H     H_    0.039361 0.676906 0.267489 0.088214
H34   H     H_    0.524053 0.075056 0.775261 0.184760
H35   H     H_    0.829620 0.484183 0.656986 0.060700
H36   H     H_    0.587138 0.380266 0.866960 0.114166
H37   H     H_    0.879665 0.340522 0.197456 0.100829
H38   H     H_    0.620854 0.587943 0.127378 0.115882
H39   H     H_    0.681478 0.372122 0.983781 0.074237
H40   H     H_    0.779734 0.340839 0.078913 0.062593
H41   H     H_    0.409020 0.650596 0.931557 0.096406
H42   H     H_    0.253235 0.735216 0.281552 -0.052339
H43   H     H_    0.526541 0.583584 0.007628 0.077937
H44   H     H_    0.867055 0.960321 0.578705 0.092911
H45   H     H_    0.807487 0.263023 0.531898 0.051793
H46   H     H_    0.358980 0.738722 0.486271 0.118947
H47   H     H_    0.001031 0.786478 0.174220 0.145057
H48   H     H_    0.214458 0.847142 0.189311 0.142218
H49   H     H_    0.354378 0.745737 0.606134 0.021914
H50   H     H_    0.151883 0.769675 0.576780 0.040060
O1    O     O_2   0.873090 0.425890 0.325140 -0.465664
O2    O     O_3   0.696375 0.793670 0.650169 -0.642470
O3    O     O_3   0.080614 0.835986 0.315212 -0.581363
O4    O     O_2   0.316610 0.574140 0.674900 -0.445028
O5    O     O_3   0.067290 0.565720 0.585630 -0.491581
O6    O     O_3   0.530210 0.372990 0.631200 -0.466785
O7    O     O_3   0.177524 0.743469 0.680707 -0.616391
O8    O     O_3   0.611340 0.366290 0.463630 -0.492691
O9    O     O_3   0.108550 0.314140 0.595200 -0.486785
O10   O     O_2   0.199289 0.124082 0.553396 -0.502303
O11   O     O_3   0.103212 0.158924 0.684152 -0.594364
O12   O     O_3   0.122420 0.434370 0.414380 -0.475520
O13   O     O_3   0.578370 0.633800 0.536380 -0.471385
O14   O     O_2   0.341510 0.231850 0.465510 -0.494708
O15   O     O_3   0.515136 0.190857 0.346068 -0.620534
O16   O     O_2   0.422010 0.458390 0.756548 -0.488146
O17   O     O_3   0.490810 0.266021 0.747421 -0.595638
O18   O     O_3   0.659500 0.627100 0.368810 -0.474813
O19   O     O_2   0.777120 0.536265 0.245804 -0.497917
O20   O     O_3   0.999367 0.256075 0.317564 -0.640590
O21   O     O_3   0.710515 0.724333 0.244657 -0.600685
O22   O     O_2   0.848200 0.768190 0.534530 -0.475574
O23   O     O_3   0.081160 0.685950 0.404810 -0.443268
O24   O     O_2   0.989007 0.873466 0.447699 -0.505994
P1    P     P_3+3 0.041040 0.394770 0.336330 0.983186
P2    P     P_3+3 0.672880 0.754030 0.556100 0.978888
P3    P     P_3+3 0.121288 0.819619 0.404081 0.978490
P4    P     P_3+3 0.148670 0.605320 0.663680 1.018656
P5    P     P_3+3 0.064529 0.177291 0.595856 0.935176
P6    P     P_3+3 0.645628 0.605295 0.274033 0.940758
P7    P     P_3+3 0.523564 0.231796 0.440321 0.930875
P8    P     P_3+3 0.553058 0.390625 0.724734 0.954289
C53   C     C_2   0.175248 0.952344 0.693567 0.675346
H51   H     H_    0.050466 0.949154 0.672185 -0.025870
O25   O     O_2   0.212017 0.993181 0.756529 -0.568846
I1    I     I_    0.372236 0.755252 0.816102 -0.450916
C54   C     C_2   0.383429 0.514956 0.362877 0.558959
H52   H     H_    0.462613 0.465457 0.382568 0.010339
O26   O     O_2   0.344788 0.588782 0.404872 -0.577342
C55   C     C_2   0.306310 0.026569 0.388444 0.580267
H53   H     H_    0.204071 0.065382 0.408696 0.009227
O27   O     O_2   0.324669 0.009624 0.323521 -0.604788

loop_
_geom_bond_atom_site_label_1
_geom_bond_atom_site_label_2
_ccdc_geom_bond_type
O21   P6    S    
C8    H31   S    
C14   H36   S    
C32   C35   A    
C46   P7    S    
O6    P8    S    
C17   C29   A    
C38   H45   S    
Ba2   O14   S    
C5    C6    S    
Ba2   O5    S    
C19   H35   S    
C43   C44   A    
C36   C54   S    
C13   C17   A    
C53   O25   D    
C8    H34   S    
C24   C25   A    
C27   C28   A    
C2    O21   S    
C10   C26   A    
C34   H49   S    
C23   H23   S    
C21   C27   A    
C35   C36   A    
C22   C24   A    
C12   H33   S    
C32   C33   A    
C3    H18   S    
Ba1   P1    S    
C50   H7    S    
C54   O26   D    
Ba1   O8    S    
C36   C37   A    
C51   H10   S    
C23   H48   S    
C52   H14   S    
O22   P2    D    
C42   P2    S    
C38   C47   A    
C9    C22   A    
C15   C18   A    
C34   C45   S    
C38   C46   A    
Ba1   Ba2   S    
C40   C44   A    
C5    O11   S    
Ba1   O18   S    
O18   P6    S    
C50   H6    S    
Ba1   O5    S    
C9    C13   A    
C51   O2    S    
C24   C32   A    
C8    H32   S    
O12   P1    S    
C25   C37   A    
C14   C15   A    
Ba2   P4    S    
Ba1   O12   S    
C7    C8    S    
C33   H38   S    
C12   C23   S    
O9    P5    S    
C19   C20   A    
C49   O20   S    
C39   C41   A    
C10   H40   S    
C1    H11   S    
Ba2   O12   S    
O5    P4    S    
C12   H42   S    
C2    H15   S    
Ba2   O13   S    
C4    H20   S    
C44   C46   A    
C48   H44   S    
O19   P6    D    
C16   C21   A    
C4    H21   S    
C1    H16   S    
Ba1   O22   S    
C55   O27   D    
Ba1   P2    S    
C16   C17   A    
O1    P1    D    
C52   H13   S    
O11   P5    S    
C51   C52   S    
O15   P7    S    
C6    H27   S    
C11   H39   S    
O16   P8    D    
C22   C30   A    
C28   H41   S    
C1    H22   S    
C45   H3    S    
C7    O17   S    
C29   C30   A    
C28   C29   A    
Ba2   O8    S    
C45   C53   S    
C34   O7    S    
C15   C16   A    
C39   H46   S    
C49   H4    S    
Ba1   O13   S    
C18   P8    S    
O13   P2    S    
C7    H29   S    
C5    H24   S    
O3    P3    S    
C12   O3    S    
C3    O15   S    
C11   C13   A    
C2    H1    S    
C40   C55   S    
C39   C42   A    
C6    H28   S    
C49   H5    S    
C40   C41   A    
O8    P7    S    
C1    C2    S    
O24   P3    D    
C42   C43   A    
C4    H19   S    
C5    H25   S    
Ba2   O9    S    
O2    P2    S    
C27   I1    S    
C47   P5    S    
Ba2   O6    S    
C20   P4    S    
C20   C21   A    
Ba1   O23   S    
C55   H53   S    
C9    C10   A    
C52   H12   S    
C37   P1    S    
C53   H51   S    
C34   H50   S    
C30   C31   A    
C41   P3    S    
C49   C50   S    
C3    H17   S    
C50   H8    S    
C54   H52   S    
C51   H9    S    
C23   H47   S    
C3    C4    S    
C43   C48   A    
Ba2   O4    S    
C31   C33   A    
O10   P5    D    
O20   P1    S    
C26   H37   S    
C31   H43   S    
O17   P8    S    
O23   P3    S    
O4    P4    D    
C7    H30   S    
O7    P4    S    
C18   C19   A    
C47   C48   A    
C11   C14   A    
C25   C26   A    
C6    H26   S    
C35   P6    S    
O14   P7    D    
Ba1   O1    S    
C45   H2    S    
