data_mof_unit_4599.cif
_audit_creation_date              2012-12-10T18:47:02-0500
_audit_creation_method            fapswitch 2.2
_symmetry_space_group_name_H-M    P1
_symmetry_Int_Tables_number       1
_space_group_crystal_system       triclinic
_cell_length_a                    10.654881
_cell_length_b                    9.851225
_cell_length_c                    14.87008
_cell_angle_alpha                 90.277538
_cell_angle_beta                  90.611552
_cell_angle_gamma                 89.814811
_cell_volume                      1560.7024637

loop_
_atom_site_label
_atom_site_type_symbol
_atom_type_description
_atom_site_fract_x
_atom_site_fract_y
_atom_site_fract_z
_atom_type_partial_charge
C1    C     C_R   0.260019 0.500146 0.500016 0.855132
C2    C     C_R   0.739981 0.499854 0.499984 0.855131
C3    C     C_R   0.282173 0.424183 0.045648 -0.264092
C4    C     C_R   0.717838 0.575792 0.954353 -0.264082
C5    C     C_R   0.065213 0.391268 0.539042 -0.190165
C6    C     C_R   0.934787 0.608731 0.460958 -0.190160
C7    C     C_R   0.936641 0.390982 0.538871 -0.201346
C8    C     C_R   0.063359 0.609018 0.461129 -0.201329
C9    C     C_R   0.872365 0.499727 0.499843 -0.013739
C10   C     C_R   0.127635 0.500273 0.500157 -0.013740
C11   C     C_R   0.580947 0.072034 0.554255 -0.067639
C12   C     C_R   0.419053 0.927966 0.445744 -0.067640
C13   C     C_R   0.419064 0.071797 0.445739 -0.069047
C14   C     C_R   0.580935 0.928203 0.554261 -0.069047
C15   C     C_R   0.499038 0.499666 0.327077 0.880568
C16   C     C_R   0.500962 0.500334 0.672924 0.880566
C17   C     C_R   0.607008 0.543590 0.814320 -0.266272
C18   C     C_R   0.392994 0.456407 0.185681 -0.266312
C19   C     C_R   0.500283 0.501364 0.768090 -0.042953
C20   C     C_R   0.499718 0.498636 0.231910 -0.042940
C21   C     C_R   0.392439 0.460529 0.811760 -0.264182
C22   C     C_R   0.607565 0.539464 0.188241 -0.264192
C23   C     C_R   0.388189 0.464389 0.905248 0.069054
C24   C     C_R   0.611817 0.535599 0.094753 0.069050
C25   C     C_R   0.499051 0.501384 0.953212 0.040499
C26   C     C_R   0.500953 0.498612 0.046789 0.040509
C27   C     C_R   0.608269 0.541264 0.907295 0.118636
C28   C     C_R   0.391736 0.458729 0.092706 0.118633
C29   C     C_R   0.277858 0.429404 0.951981 -0.007879
C30   C     C_R   0.722154 0.570565 0.048021 -0.007879
H1    H     H_    0.689609 0.574468 0.777608 0.123296
H2    H     H_    0.310393 0.425528 0.222392 0.123297
H3    H     H_    0.312932 0.426299 0.771825 0.149142
H4    H     H_    0.687072 0.573691 0.228176 0.149137
H5    H     H_    0.198650 0.396116 0.082095 0.160249
H6    H     H_    0.801365 0.603838 0.917905 0.160229
H7    H     H_    0.645701 0.126572 0.597646 0.121217
H8    H     H_    0.354299 0.873428 0.402354 0.121221
H9    H     H_    0.354344 0.126147 0.402328 0.126276
H10   H     H_    0.645656 0.873853 0.597672 0.126276
N1    N     N_R   0.500000 0.857200 0.500000 -0.080222
N2    N     N_R   0.500000 0.142800 0.500000 -0.080221
O1    O     O_R   0.316770 0.614620 0.499990 -0.624393
O2    O     O_R   0.683230 0.385380 0.500010 -0.624393
O3    O     O_R   0.683230 0.614620 0.500010 -0.628824
O4    O     O_R   0.316770 0.385380 0.499990 -0.628824
O5    O     O_R   0.499980 0.614680 0.367850 -0.620039
O6    O     O_R   0.500020 0.385320 0.632150 -0.620037
O7    O     O_R   0.500020 0.614680 0.632150 -0.613888
O8    O     O_R   0.499980 0.385320 0.367850 -0.613888
Zn1   Zn    Zn3+2 0.500000 0.653120 0.500000 0.945541
Zn2   Zn    Zn3+2 0.500000 0.346880 0.500000 0.945541
C31   C     C_R   0.155884 0.402721 0.905839 0.135226
C32   C     C_R   0.101001 0.501414 0.849637 -0.158660
C33   C     C_R   0.986422 0.475926 0.806146 -0.158440
C34   C     C_R   0.924262 0.353259 0.819967 -0.108920
C35   C     C_R   0.976666 0.255828 0.877267 -0.130029
C36   C     C_R   0.091951 0.280275 0.920152 -0.156904
H11   H     H_    0.147322 0.597685 0.839211 0.134371
H12   H     H_    0.945384 0.551651 0.762175 0.129992
H13   H     H_    0.835258 0.333990 0.786594 0.126138
H14   H     H_    0.928111 0.161111 0.888269 0.124886
H15   H     H_    0.131797 0.203504 0.963946 0.123535
C37   C     C_R   0.844139 0.597191 0.094163 0.135220
C38   C     C_R   0.908133 0.719598 0.079841 -0.156925
C39   C     C_R   0.023444 0.743972 0.122709 -0.130003
C40   C     C_R   0.075811 0.646514 0.180004 -0.108957
C41   C     C_R   0.013581 0.523894 0.193844 -0.158467
C42   C     C_R   0.898979 0.498475 0.150367 -0.158630
H16   H     H_    0.868314 0.796395 0.036055 0.123531
H17   H     H_    0.072048 0.838654 0.111697 0.124894
H18   H     H_    0.164841 0.665724 0.213358 0.126159
H19   H     H_    0.054581 0.448150 0.237819 0.130001
H20   H     H_    0.852609 0.402237 0.160805 0.134379
H21   H     H_    0.115639 0.307775 0.570174 0.157019
H22   H     H_    0.884361 0.692225 0.429827 0.157015
H23   H     H_    0.887693 0.307392 0.569946 0.146864
H24   H     H_    0.112307 0.692608 0.430054 0.146868

loop_
_geom_bond_atom_site_label_1
_geom_bond_atom_site_label_2
_ccdc_geom_bond_type
C33   C34   A    
C4    H6    S    
C30   C37   S    
C15   O5    A    
C16   O6    A    
C6    C9    A    
C35   H14   S    
C31   C32   A    
C23   C29   A    
C3    C28   A    
C19   C21   A    
C24   C26   A    
C11   C14   A    
C1    O4    A    
C21   H3    S    
O3    Zn1   S    
C38   H16   S    
O4    Zn2   S    
C34   C35   A    
C11   N2    A    
C3    C29   A    
C40   H18   S    
C15   O8    A    
C11   H7    S    
C1    O1    A    
C2    O2    A    
C41   C42   A    
O7    Zn1   S    
O8    Zn2   S    
C7    H23   S    
O2    Zn2   S    
C39   C40   A    
C33   H12   S    
C8    H24   S    
C13   N2    A    
C32   H11   S    
C2    O3    A    
C15   C20   S    
C22   H4    S    
C40   C41   A    
C17   C27   A    
C18   C28   A    
C16   O7    A    
C5    C7    A    
C6    C8    A    
C25   C26   A    
C5    H21   S    
C12   N1    A    
C39   H17   S    
C3    H5    S    
C42   H20   S    
C37   C42   A    
C14   N1    A    
C20   C22   A    
C21   C23   A    
C17   H1    S    
C22   C24   A    
C18   H2    S    
C4    C27   A    
C36   H15   S    
C7    C9    A    
C32   C33   A    
C1    C10   S    
O5    Zn1   S    
C31   C36   A    
C6    H22   S    
C25   C27   A    
C26   C28   A    
C37   C38   A    
C41   H19   S    
C5    C10   A    
O1    Zn1   S    
C35   C36   A    
C29   C31   S    
C16   C19   S    
C17   C19   A    
C18   C20   A    
C23   C25   A    
C12   H8    S    
C24   C30   A    
C13   H9    S    
C14   H10   S    
O6    Zn2   S    
C12   C13   A    
C8    C10   A    
C38   C39   A    
C34   H13   S    
C2    C9    S    
N1    Zn1   S    
C4    C30   A    
N2    Zn2   S    
