data_mof_unit_457.cif
_audit_creation_date              2012-10-26T20:20:45-0400
_audit_creation_method            fapswitch 2.2
_symmetry_space_group_name_H-M    P1
_symmetry_Int_Tables_number       1
_space_group_crystal_system       triclinic
_cell_length_a                    8.728466
_cell_length_b                    10.771646
_cell_length_c                    9.634255
_cell_angle_alpha                 89.397944
_cell_angle_beta                  97.602816
_cell_angle_gamma                 92.247703
_cell_volume                      897.145441933

loop_
_atom_site_label
_atom_site_type_symbol
_atom_type_description
_atom_site_fract_x
_atom_site_fract_y
_atom_site_fract_z
_atom_type_partial_charge
C1    C     C_R   0.497601 0.262936 0.500175 0.511451
C2    C     C_R   0.363855 0.059151 0.525939 -0.031844
C3    C     C_R   0.502000 0.871224 0.499224 -0.012594
C4    C     C_R   0.498000 0.128775 0.500776 -0.012591
C5    C     C_R   0.396321 0.425909 0.062782 0.117124
C6    C     C_R   0.603682 0.574089 0.937219 0.117111
C7    C     C_R   0.397125 0.425332 0.914462 0.124392
C8    C     C_R   0.602871 0.574671 0.085538 0.124407
C9    C     C_2   0.769399 0.149149 0.442158 0.240566
C10   C     C_2   0.230601 0.850851 0.557841 0.240569
C11   C     C_3   0.786950 0.878621 0.461766 -0.339740
C12   C     C_R   0.502399 0.737064 0.499825 0.511448
C13   C     C_3   0.213048 0.121379 0.538228 -0.339748
C14   C     C_2   0.284378 0.343183 0.124569 0.315352
C15   C     C_2   0.715639 0.656803 0.875435 0.315321
C16   C     C_2   0.293024 0.336242 0.829559 0.285190
C17   C     C_2   0.706954 0.663774 0.170439 0.285222
C18   C     C_R   0.204210 0.498332 0.464237 0.534058
C19   C     C_R   0.795790 0.501667 0.535763 0.534058
C20   C     C_2   0.038236 0.493089 0.445207 -0.126096
C21   C     C_2   0.961764 0.506910 0.554793 -0.126109
C22   C     C_R   0.632405 0.071147 0.471639 0.013752
C23   C     C_R   0.367595 0.928853 0.528360 0.013754
C24   C     C_R   0.636145 0.940849 0.474059 -0.031849
Cu1   Cu    Cu3+1 0.500000 0.500020 0.640660 0.998867
Cu2   Cu    Cu3+1 0.500000 0.499980 0.359340 0.998895
H1    H     H_    0.978745 0.475810 0.340549 0.217761
H2    H     H_    0.181251 0.108175 0.645188 0.188603
H3    H     H_    0.321727 0.258865 0.178709 0.107058
H4    H     H_    0.678301 0.741106 0.821260 0.107082
H5    H     H_    0.339280 0.254195 0.789865 0.105631
H6    H     H_    0.660688 0.745835 0.210091 0.105607
H7    H     H_    0.021255 0.524188 0.659452 0.217750
H8    H     H_    0.803342 0.232279 0.502882 0.121488
H9    H     H_    0.196658 0.767721 0.497117 0.121490
H10   H     H_    0.783750 0.777627 0.484323 0.136856
H11   H     H_    0.818743 0.891825 0.354804 0.188614
H12   H     H_    0.879958 0.920666 0.538413 0.186097
H13   H     H_    0.216248 0.222372 0.515671 0.136846
H14   H     H_    0.120042 0.079333 0.461579 0.186103
N1    N     N_R   0.500040 0.500030 0.852080 -0.284658
N2    N     N_R   0.499960 0.499970 0.147920 -0.284655
O1    O     O_R   0.499990 0.319660 0.618740 -0.523927
O2    O     O_2   0.159444 0.875476 0.654222 -0.512361
O3    O     O_2   0.147441 0.366575 0.109955 -0.422401
O4    O     O_2   0.852578 0.633417 0.890090 -0.422405
O5    O     O_2   0.153718 0.349891 0.811281 -0.478652
O6    O     O_2   0.846258 0.650117 0.188762 -0.478661
O7    O     O_R   0.500010 0.680340 0.381260 -0.523919
O8    O     O_R   0.499990 0.319630 0.381170 -0.521107
O9    O     O_R   0.500010 0.680370 0.618830 -0.521113
O10   O     O_R   0.274840 0.500010 0.591370 -0.488910
O11   O     O_R   0.725160 0.499990 0.408630 -0.488883
O12   O     O_R   0.274830 0.499980 0.353800 -0.461959
O13   O     O_R   0.725170 0.500020 0.646200 -0.461981
O14   O     O_2   0.840555 0.124524 0.345777 -0.512359

loop_
_geom_bond_atom_site_label_1
_geom_bond_atom_site_label_2
_ccdc_geom_bond_type
C11   H12   S    
C2    C4    A    
C5    N2    A    
Cu1   O9    S    
C13   H2    S    
C10   H9    S    
C20   H1    S    
C10   C23   S    
C4    C22   A    
C1    O8    A    
C3    C23   A    
C8    C17   S    
C17   O6    D    
C1    C4    S    
C19   O11   A    
Cu2   O8    S    
C12   O7    A    
C3    C24   A    
Cu1   O10   S    
C18   O10   A    
C9    O14   D    
Cu1   Cu2   S    
C16   H5    S    
Cu1   O1    S    
C5    C14   S    
Cu2   O12   S    
C16   O5    D    
C7    C16   S    
C19   C21   S    
C8    N2    A    
C14   O3    D    
C18   C20   S    
C7    N1    A    
C9    H8    S    
C17   H6    S    
C22   C24   A    
C9    C22   S    
C13   H13   S    
C21   H7    S    
C18   O12   A    
C14   H3    S    
Cu1   N1    S    
Cu2   O11   S    
C11   C24   S    
C12   O9    A    
C20   C21   D    
Cu2   N2    S    
C15   H4    S    
C5    C7    A    
Cu2   O7    S    
C19   O13   A    
C2    C23   A    
C11   H11   S    
C2    C13   S    
C11   H10   S    
C13   H14   S    
C6    C8    A    
C3    C12   S    
C15   O4    D    
C6    C15   S    
C10   O2    D    
C1    O1    A    
Cu1   O13   S    
C6    N1    A    
