data_mof_unit_4624.cif
_audit_creation_date              2012-12-10T16:48:06-0500
_audit_creation_method            fapswitch 2.2
_symmetry_space_group_name_H-M    P1
_symmetry_Int_Tables_number       1
_space_group_crystal_system       triclinic
_cell_length_a                    15.852661
_cell_length_b                    8.729725
_cell_length_c                    7.481286
_cell_angle_alpha                 102.54552
_cell_angle_beta                  94.714916
_cell_angle_gamma                 93.009672
_cell_volume                      1004.55305518

loop_
_atom_site_label
_atom_site_type_symbol
_atom_type_description
_atom_site_fract_x
_atom_site_fract_y
_atom_site_fract_z
_atom_type_partial_charge
C1    C     C_R   0.499434 0.200865 0.454734 0.777385
C2    C     C_R   0.500533 0.799131 0.545267 0.776764
C3    C     C_R   0.340118 0.499506 0.501437 0.774236
C4    C     C_R   0.659882 0.500500 0.498564 0.774233
C5    C     C_2   0.511701 0.036722 0.434600 0.191383
C6    C     C_2   0.488236 0.963275 0.565402 0.191409
C7    C     C_3   0.965450 0.355020 0.437472 0.357246
C8    C     C_3   0.034551 0.645004 0.562532 0.357225
C9    C     C_3   0.020992 0.445761 0.331626 0.365420
C10   C     C_3   0.979009 0.554263 0.668378 0.365446
C11   C     C_1   0.250769 0.499422 0.504655 -0.143434
C12   C     C_1   0.749231 0.500592 0.495348 -0.143460
C13   C     C_3   0.028362 0.405398 0.612961 -0.395165
C14   C     C_3   0.971639 0.594626 0.387043 -0.395220
C15   C     C_3   0.083853 0.498336 0.504562 0.011173
C16   C     C_3   0.916148 0.501688 0.495442 0.011178
C17   C     C_1   0.175355 0.499038 0.505514 0.099987
C18   C     C_1   0.824645 0.500982 0.494489 0.099995
Cu1   Cu    Cu3+1 0.509330 0.517380 0.684380 1.078084
Cu2   Cu    Cu3+1 0.490670 0.482620 0.315620 1.078198
H1    H     H_    0.948897 0.671237 0.295302 0.199563
H2    H     H_    0.051104 0.328787 0.704702 0.199571
N1    N     N_2   0.476600 0.456420 0.038510 0.154066
N2    N     N_2   0.523400 0.543580 0.961490 0.154050
O1    O     O_R   0.506070 0.286130 0.619780 -0.521142
O2    O     O_R   0.493930 0.713870 0.380220 -0.521135
O3    O     O_R   0.490300 0.256770 0.308360 -0.577254
O4    O     O_R   0.509700 0.743230 0.691640 -0.577475
O5    O     O_R   0.386960 0.514660 0.655680 -0.535889
O6    O     O_R   0.613040 0.485340 0.344320 -0.535724
O7    O     O_R   0.371190 0.485310 0.344260 -0.600979
O8    O     O_R   0.628810 0.514690 0.655740 -0.600967
O9    O     O_3   0.044785 0.385222 0.155682 -0.712045
H3    H     H_    0.991146 0.364823 0.073610 0.348563
O10   O     O_3   0.955217 0.614805 0.844322 -0.712030
H4    H     H_    0.008855 0.635183 0.926388 0.348573
O11   O     O_3   0.927228 0.203483 0.367480 -0.711189
H5    H     H_    0.974793 0.134476 0.346247 0.341489
O12   O     O_3   0.072772 0.796540 0.632530 -0.711204
H6    H     H_    0.025210 0.865564 0.653609 0.341495
O13   O     O_3   0.547671 0.958151 0.280444 -0.545110
C19   C     C_3   0.634707 0.008177 0.297482 -0.196350
H7    H     H_    0.668239 0.984325 0.424253 0.132222
H8    H     H_    0.644391 0.134884 0.295608 0.150761
H9    H     H_    0.664209 0.941252 0.178174 0.195305
O14   O     O_3   0.452251 0.041899 0.719523 -0.545058
C20   C     C_3   0.365338 0.991127 0.703136 -0.197098
H10   H     H_    0.356089 0.864766 0.706925 0.151869
H11   H     H_    0.331589 0.013256 0.575663 0.132024
H12   H     H_    0.335708 0.058853 0.821761 0.195312
O15   O     O_3   0.413201 0.368116 0.928619 -0.573112
H13   H     H_    0.381712 0.316962 0.011319 0.335027
O16   O     O_3   0.586801 0.631879 0.071380 -0.573230
H14   H     H_    0.618290 0.683033 0.988680 0.335018

loop_
_geom_bond_atom_site_label_1
_geom_bond_atom_site_label_2
_ccdc_geom_bond_type
C3    O7    A    
C9    C14   S    
C15   C17   S    
C10   O10   S    
Cu2   O3    S    
C8    C15   S    
C6    O14   S    
O13   C19   S    
N1    O15   S    
Cu1   Cu2   S    
Cu2   N1    S    
N1    N2    D    
C1    O3    A    
C2    C6    S    
Cu1   N2    S    
C7    O11   S    
C2    O2    A    
Cu2   O6    S    
O16   H14   S    
C1    O1    A    
Cu1   O4    S    
C3    O5    A    
C4    O8    A    
C19   H8    S    
C9    O9    S    
C1    C5    S    
Cu1   O8    S    
C14   H1    S    
C16   C18   S    
C7    C16   S    
C8    O12   S    
O11   H5    S    
C13   H2    S    
O9    H3    S    
C20   H12   S    
C13   C15   S    
C9    C15   S    
C5    C6    D    
Cu1   O1    S    
C14   C16   S    
C3    C11   S    
C19   H7    S    
C19   H9    S    
O15   H13   S    
Cu1   O5    S    
C7    C9    S    
C7    C13   S    
C20   H11   S    
C12   C18   T    
O12   H6    S    
C10   C16   S    
C5    O13   S    
O14   C20   S    
C11   C17   T    
C2    O4    A    
O10   H4    S    
C8    C14   S    
N2    O16   S    
C4    C12   S    
C10   C13   S    
C8    C10   S    
C4    O6    A    
C20   H10   S    
Cu2   O2    S    
Cu2   O7    S    
