data_mof_unit_1374.cif
_audit_creation_date              2012-12-10T18:44:21-0500
_audit_creation_method            fapswitch 2.2
_symmetry_space_group_name_H-M    P1
_symmetry_Int_Tables_number       1
_space_group_crystal_system       triclinic
_cell_length_a                    12.871795
_cell_length_b                    10.652619
_cell_length_c                    9.885932
_cell_angle_alpha                 89.438217
_cell_angle_beta                  98.040842
_cell_angle_gamma                 90.528513
_cell_volume                      1342.10887069

loop_
_atom_site_label
_atom_site_type_symbol
_atom_type_description
_atom_site_fract_x
_atom_site_fract_y
_atom_site_fract_z
_atom_type_partial_charge
C1    C     C_R   0.503444 0.260431 0.500997 0.925326
C2    C     C_R   0.496556 0.739569 0.499003 0.925325
C3    C     C_R   0.494188 0.872096 0.498905 -0.110186
C4    C     C_R   0.505812 0.127904 0.501095 -0.110186
C5    C     C_R   0.543887 0.597992 0.076838 0.035384
C6    C     C_R   0.456112 0.402008 0.923162 0.035384
C7    C     C_R   0.542950 0.597472 0.933445 -0.060789
C8    C     C_R   0.457050 0.402528 0.066555 -0.060789
C9    C     C_R   0.298028 0.497379 0.471676 0.935628
C10   C     C_R   0.701972 0.502621 0.528324 0.935627
C11   C     C_R   0.814989 0.506837 0.548641 -0.142238
C12   C     C_R   0.185011 0.493163 0.451359 -0.142239
C13   C     C_R   0.017819 0.417841 0.336692 -0.077662
C14   C     C_R   0.982181 0.582159 0.663308 -0.077662
C15   C     C_R   0.126353 0.432570 0.338969 -0.105907
C16   C     C_R   0.873647 0.567430 0.661031 -0.105907
C17   C     C_R   0.136748 0.544051 0.554949 -0.142621
C18   C     C_R   0.863252 0.455949 0.445050 -0.142621
C19   C     C_R   0.029862 0.532637 0.554599 0.074057
C20   C     C_R   0.970138 0.467363 0.445401 0.074057
C21   C     C_R   0.436045 0.068357 0.400575 -0.199210
C22   C     C_R   0.563955 0.931643 0.599425 -0.199211
C23   C     C_R   0.428060 0.939302 0.398891 -0.021418
C24   C     C_R   0.571940 0.060698 0.601109 -0.021417
H1    H     H_    0.815251 0.409518 0.361417 0.195132
H2    H     H_    0.184749 0.590482 0.638583 0.195132
H3    H     H_    0.384674 0.123366 0.326700 0.189817
H4    H     H_    0.615326 0.876633 0.673299 0.189816
H5    H     H_    0.577890 0.674649 0.883196 0.153842
H6    H     H_    0.422110 0.325351 0.116804 0.153842
N1    N     N_R   0.499970 0.499970 0.857200 -0.128249
N2    N     N_R   0.500030 0.500030 0.142800 -0.128250
O1    O     O_R   0.499990 0.316750 0.614620 -0.608871
O2    O     O_R   0.500010 0.683250 0.385380 -0.608870
O3    O     O_R   0.499990 0.316780 0.385290 -0.630142
O4    O     O_R   0.500010 0.683220 0.614710 -0.630142
O5    O     O_R   0.346360 0.499970 0.595710 -0.582049
O6    O     O_R   0.653640 0.500030 0.404290 -0.582049
O7    O     O_R   0.346360 0.499990 0.366380 -0.598804
O8    O     O_R   0.653640 0.500010 0.633620 -0.598804
Zn1   Zn    Zn3+2 0.500000 0.499980 0.653120 1.028723
Zn2   Zn    Zn3+2 0.500000 0.500020 0.346880 1.028723
C25   C     C_2   0.822121 0.624375 0.770398 0.961048
O9    O     O_2   0.795475 0.558095 0.861413 -0.559989
O10   O     O_R   0.806870 0.754032 0.770599 -0.797867
H7    H     H_    0.771752 0.781980 0.850743 0.355373
C26   C     C_2   0.177879 0.375625 0.229602 0.961048
O11   O     O_2   0.204525 0.441904 0.138586 -0.559990
O12   O     O_R   0.193131 0.245968 0.229402 -0.797867
H8    H     H_    0.228249 0.218019 0.149258 0.355373
C27   C     C_2   0.955884 0.348973 0.221736 0.933011
O13   O     O_2   0.954735 0.386900 0.104377 -0.531689
O14   O     O_R   0.900741 0.239800 0.248116 -0.772122
H9    H     H_    0.861933 0.201389 0.161864 0.371091
C28   C     C_2   0.044116 0.651027 0.778264 0.933012
O15   O     O_2   0.045265 0.613100 0.895623 -0.531690
O16   O     O_R   0.099260 0.760199 0.751883 -0.772123
H10   H     H_    0.138068 0.798611 0.838135 0.371092
C29   C     C_2   0.346829 0.879301 0.297474 0.976718
O17   O     O_2   0.323390 0.927242 0.184488 -0.571234
O18   O     O_R   0.294316 0.770846 0.332322 -0.803204
H11   H     H_    0.240472 0.739785 0.254885 0.369734
C30   C     C_2   0.653171 0.120699 0.702526 0.976718
O19   O     O_2   0.676609 0.072758 0.815512 -0.571233
O20   O     O_R   0.705685 0.229154 0.667678 -0.803204
H12   H     H_    0.759528 0.260214 0.745115 0.369734
C31   C     C_2   0.593613 0.706679 0.151137 0.952171
O21   O     O_2   0.557693 0.811503 0.125787 -0.594400
O22   O     O_R   0.684988 0.691423 0.243741 -0.766100
H13   H     H_    0.712010 0.773406 0.287172 0.347696
C32   C     C_2   0.406387 0.293321 0.848863 0.952171
O23   O     O_2   0.442307 0.188497 0.874213 -0.594400
O24   O     O_R   0.315012 0.308576 0.756259 -0.766100
H14   H     H_    0.287990 0.226594 0.712828 0.347696

loop_
_geom_bond_atom_site_label_1
_geom_bond_atom_site_label_2
_ccdc_geom_bond_type
C12   C17   A    
C14   C28   S    
C6    C8    A    
C25   O9    D    
C30   O20   S    
C11   C18   A    
O14   H9    S    
C7    H5    S    
C14   C16   A    
O4    Zn1   S    
O7    Zn2   S    
C5    C7    A    
O24   H14   S    
C3    C23   A    
C19   C20   A    
O2    Zn2   S    
C12   C15   A    
C15   C26   S    
C10   O6    A    
C1    C4    S    
O1    Zn1   S    
C5    N2    A    
C28   O15   D    
C9    O5    A    
C2    C3    S    
C21   H3    S    
C8    H6    S    
C32   O23   D    
C26   O12   S    
C22   H4    S    
O10   H7    S    
O20   H12   S    
C23   C29   S    
C4    C21   A    
C25   O10   S    
C16   C25   S    
C2    O2    A    
O16   H10   S    
O22   H13   S    
C18   H1    S    
C5    C31   S    
C17   H2    S    
C14   C19   A    
O8    Zn1   S    
C17   C19   A    
O6    Zn2   S    
C24   C30   S    
C18   C20   A    
C28   O16   S    
C13   C15   A    
O5    Zn1   S    
O18   H11   S    
C4    C24   A    
C9    C12   S    
C22   C24   A    
C29   O18   S    
C7    N1    A    
C10   C11   S    
C30   O19   D    
C1    O1    A    
C31   O21   D    
C8    N2    A    
C26   O11   D    
C29   O17   D    
C1    O3    A    
C10   O8    A    
O12   H8    S    
C11   C16   A    
C2    O4    A    
C32   O24   S    
O3    Zn2   S    
N2    Zn2   S    
C3    C22   A    
C6    N1    A    
N1    Zn1   S    
C13   C20   A    
C27   O14   S    
C13   C27   S    
C21   C23   A    
C9    O7    A    
C27   O13   D    
C6    C32   S    
C31   O22   S    
