data_mof_unit_1648.cif
_audit_creation_date              2012-12-11T15:23:57-0500
_audit_creation_method            fapswitch 2.2
_symmetry_space_group_name_H-M    P1
_symmetry_Int_Tables_number       1
_space_group_crystal_system       triclinic
_cell_length_a                    17.30645
_cell_length_b                    24.332594
_cell_length_c                    14.961091
_cell_angle_alpha                 90.171112
_cell_angle_beta                  125.554688
_cell_angle_gamma                 89.404172
_cell_volume                      5125.34571481

loop_
_atom_site_label
_atom_site_type_symbol
_atom_type_description
_atom_site_fract_x
_atom_site_fract_y
_atom_site_fract_z
_atom_type_partial_charge
C1    C     C_R   0.352769 0.347953 0.909804 -0.123152
C2    C     C_R   0.540398 0.497779 0.713832 0.042873
C3    C     C_R   0.065030 0.998530 0.366313 0.045809
C4    C     C_R   0.040398 0.997779 0.713831 0.042875
C5    C     C_R   0.203034 0.499601 0.630714 0.170397
C6    C     C_R   0.825632 0.496129 0.314791 0.148648
C7    C     C_R   0.703030 0.999609 0.630718 0.170345
C8    C     C_R   0.325631 0.996125 0.314786 0.148678
C9    C     C_2   0.980947 0.468805 0.358570 0.228917
C10   C     C_2   0.082527 0.459954 0.447788 0.220953
C11   C     C_2   0.480954 0.968816 0.358561 0.228932
C12   C     C_R   0.648012 0.347385 0.090476 -0.133510
C13   C     C_2   0.582544 0.959978 0.447767 0.220918
C14   C     C_2   0.927606 0.492986 0.387307 -0.373029
C15   C     C_2   0.128673 0.503261 0.512933 -0.366743
C16   C     C_2   0.427605 0.992973 0.387311 -0.373025
C17   C     C_2   0.628658 0.003280 0.512944 -0.366789
C18   C     C_R   0.155038 0.685011 0.898920 -0.167843
C19   C     C_R   0.835644 0.693210 0.102239 -0.171597
C20   C     C_R   0.655038 0.185011 0.898922 -0.167843
C21   C     C_R   0.335644 0.193210 0.102240 -0.171607
C22   C     C_R   0.607927 0.231234 0.899222 -0.171441
C23   C     C_R   0.852769 0.847953 0.909804 -0.123153
C24   C     C_R   0.389332 0.234601 0.102030 -0.170439
C25   C     C_R   0.107928 0.731235 0.899220 -0.171443
C26   C     C_R   0.889332 0.734601 0.102030 -0.170438
C27   C     C_R   0.640857 0.257395 0.998936 0.141128
C28   C     C_R   0.359361 0.259430 0.002234 0.142567
C29   C     C_R   0.140856 0.757395 0.998934 0.141131
C30   C     C_R   0.859361 0.759430 0.002233 0.142566
C31   C     C_R   0.707375 0.230370 0.098150 -0.169466
C32   C     C_R   0.290424 0.234036 0.902937 -0.168640
C33   C     C_R   0.207373 0.730369 0.098148 -0.169468
C34   C     C_R   0.148011 0.847385 0.090475 -0.133540
C35   C     C_R   0.790424 0.734035 0.902937 -0.168641
C36   C     C_R   0.254234 0.684021 0.097736 -0.165718
C37   C     C_R   0.736903 0.692498 0.903157 -0.169171
C38   C     C_R   0.754236 0.184022 0.097739 -0.165716
C39   C     C_R   0.236904 0.192498 0.903157 -0.169171
C40   C     C_R   0.400051 0.623115 0.090547 -0.123463
C41   C     C_R   0.591592 0.633367 0.910331 -0.129919
C42   C     C_R   0.900052 0.123115 0.090547 -0.123466
C43   C     C_R   0.091592 0.133367 0.910331 -0.129920
C44   C     C_R   0.235542 0.665293 0.998234 0.143084
C45   C     C_R   0.309575 0.635751 0.998325 0.039914
C46   C     C_R   0.752812 0.676756 0.002629 0.148267
C47   C     C_R   0.735544 0.165293 0.998236 0.143083
C48   C     C_R   0.252812 0.176755 0.002630 0.148270
C49   C     C_R   0.601215 0.546707 0.622387 -0.169041
C50   C     C_R   0.607451 0.547022 0.534408 -0.173462
C51   C     C_R   0.101215 0.046707 0.622387 -0.169041
C52   C     C_R   0.107452 0.047022 0.534408 -0.173463
C53   C     C_R   0.597607 0.497627 0.480524 0.142642
C54   C     C_R   0.583922 0.497103 0.654949 0.146432
C55   C     C_R   0.097607 0.997627 0.480524 0.142641
C56   C     C_R   0.679740 0.647855 0.002230 0.043390
C57   C     C_R   0.083922 0.997103 0.654949 0.146432
C58   C     C_R   0.602513 0.447507 0.529655 -0.171571
C59   C     C_R   0.595481 0.447246 0.616911 -0.170599
C60   C     C_R   0.102513 0.947507 0.529655 -0.171571
C61   C     C_R   0.095481 0.947246 0.616911 -0.170599
C62   C     C_R   0.547585 0.453136 0.301879 -0.120716
C63   C     C_R   0.515201 0.452360 0.746685 -0.133543
C64   C     C_R   0.047585 0.953136 0.301879 -0.120714
C65   C     C_R   0.015201 0.952360 0.746685 -0.133551
C66   C     C_R   0.247965 0.544981 0.694951 -0.160591
C67   C     C_R   0.809576 0.135751 0.998326 0.039917
C68   C     C_R   0.769892 0.543331 0.279388 -0.131344
C69   C     C_R   0.747964 0.044986 0.694959 -0.160535
C70   C     C_R   0.269895 0.043329 0.279384 -0.131297
C71   C     C_R   0.549052 0.544589 0.303357 -0.142772
C72   C     C_R   0.508585 0.544093 0.738138 -0.123878
C73   C     C_R   0.049052 0.044589 0.303357 -0.142773
C74   C     C_R   0.008585 0.044093 0.738138 -0.123878
C75   C     C_R   0.247797 0.453717 0.696593 -0.119321
C76   C     C_R   0.767384 0.451369 0.270173 -0.148672
C77   C     C_R   0.747790 0.953721 0.696589 -0.119395
C78   C     C_R   0.179740 0.147855 0.002230 0.043394
C79   C     C_R   0.267381 0.951367 0.270171 -0.148747
C80   C     C_R   0.308268 0.623107 0.906647 -0.125399
C81   C     C_R   0.684226 0.631360 0.093430 -0.126582
C82   C     C_R   0.808268 0.123108 0.906648 -0.125401
C83   C     C_R   0.184226 0.131360 0.093431 -0.126574
C84   C     C_R   0.444183 0.348037 0.092866 -0.123303
C85   C     C_R   0.556253 0.347388 0.908088 -0.139894
C86   C     C_R   0.944183 0.848037 0.092866 -0.123300
C87   C     C_R   0.056253 0.847388 0.908088 -0.139890
C88   C     C_R   0.383953 0.316174 0.001593 0.042861
C89   C     C_R   0.565030 0.498530 0.366313 0.045809
C90   C     C_R   0.617749 0.315296 0.999328 0.050218
C91   C     C_R   0.883953 0.816174 0.001593 0.042859
C92   C     C_R   0.117749 0.815296 0.999327 0.050221
C93   C     C_3   0.998880 0.459822 0.208800 -0.929416
C94   C     C_3   0.065640 0.358702 0.423411 -0.935295
C95   C     C_3   0.498813 0.960029 0.208718 -0.929343
C96   C     C_3   0.565787 0.858733 0.423073 -0.935190
H1    H     H_    0.313872 0.334716 0.825340 0.085439
H2    H     H_    0.854736 0.678254 0.180658 0.107231
H3    H     H_    0.634387 0.169018 0.820509 0.106605
H4    H     H_    0.354736 0.178253 0.180658 0.107232
H5    H     H_    0.552575 0.248950 0.820844 0.104737
H6    H     H_    0.447063 0.250605 0.180364 0.105150
H7    H     H_    0.052578 0.748951 0.820842 0.104738
H8    H     H_    0.947063 0.750605 0.180363 0.105149
H9    H     H_    0.730417 0.247472 0.176653 0.106554
H10   H     H_    0.270306 0.249624 0.824484 0.106873
H11   H     H_    0.230414 0.747470 0.176651 0.106546
H12   H     H_    0.686004 0.333641 0.174678 0.082634
H13   H     H_    0.770306 0.749624 0.824484 0.106875
H14   H     H_    0.311572 0.667138 0.175998 0.108371
H15   H     H_    0.678432 0.676740 0.824954 0.103848
H16   H     H_    0.811576 0.167140 0.176000 0.108373
H17   H     H_    0.178433 0.176740 0.824954 0.103848
H18   H     H_    0.600770 0.585720 0.656880 0.104607
H19   H     H_    0.610332 0.586309 0.503035 0.106449
H20   H     H_    0.100770 0.085720 0.656879 0.104608
H21   H     H_    0.110333 0.086309 0.503035 0.106449
H22   H     H_    0.601432 0.408377 0.494700 0.105918
H23   H     H_    0.813872 0.834717 0.825340 0.085440
H24   H     H_    0.589459 0.408006 0.645863 0.107623
H25   H     H_    0.101432 0.908377 0.494700 0.105919
H26   H     H_    0.089459 0.908006 0.645863 0.107624
H27   H     H_    0.427197 0.627937 0.175708 0.094197
H28   H     H_    0.559158 0.647138 0.827515 0.084182
H29   H     H_    0.927198 0.127937 0.175709 0.094197
H30   H     H_    0.059159 0.147138 0.827515 0.084182
H31   H     H_    0.563935 0.410638 0.327415 0.082463
H32   H     H_    0.525816 0.409523 0.737788 0.093426
H33   H     H_    0.063935 0.910638 0.327415 0.082464
H34   H     H_    0.186003 0.833640 0.174677 0.082633
H35   H     H_    0.025816 0.909523 0.737788 0.093428
H36   H     H_    0.239066 0.586724 0.665405 0.095426
H37   H     H_    0.793950 0.584378 0.309435 0.090795
H38   H     H_    0.739067 0.086731 0.665419 0.095419
H39   H     H_    0.293958 0.084374 0.309433 0.090784
H40   H     H_    0.567465 0.586489 0.331510 0.086140
H41   H     H_    0.505175 0.585298 0.710662 0.083124
H42   H     H_    0.067465 0.086489 0.331510 0.086140
H43   H     H_    0.005175 0.085298 0.710661 0.083125
H44   H     H_    0.238823 0.411264 0.671952 0.108055
H45   H     H_    0.959710 0.508544 0.469884 0.151909
H46   H     H_    0.787633 0.408414 0.285566 0.106211
H47   H     H_    0.738797 0.911268 0.671941 0.108016
H48   H     H_    0.287627 0.908411 0.285565 0.106179
H49   H     H_    0.250067 0.627856 0.821198 0.093773
H50   H     H_    0.737742 0.641319 0.177708 0.086030
H51   H     H_    0.750068 0.127858 0.821200 0.093769
H52   H     H_    0.237742 0.141319 0.177708 0.086028
H53   H     H_    0.490021 0.334956 0.177631 0.082106
H54   H     H_    0.509016 0.333754 0.824104 0.081833
H55   H     H_    0.990021 0.834956 0.177631 0.082106
H56   H     H_    0.097572 0.544091 0.483615 0.139118
H57   H     H_    0.009016 0.833754 0.824103 0.081834
H58   H     H_    0.870879 0.459021 0.190573 0.188069
H59   H     H_    0.962310 0.443110 0.124394 0.252365
H60   H     H_    0.069005 0.438847 0.261500 0.258291
H61   H     H_    0.009230 0.504650 0.206374 0.252030
H62   H     H_    0.189853 0.404278 0.484591 0.162495
H63   H     H_    0.108096 0.321060 0.466383 0.239943
H64   H     H_    0.038519 0.355782 0.335716 0.267968
H65   H     H_    0.005457 0.360577 0.430920 0.255455
H66   H     H_    0.370859 0.958973 0.190584 0.188068
H67   H     H_    0.459702 0.008509 0.469902 0.151906
H68   H     H_    0.462293 0.943312 0.124322 0.252355
H69   H     H_    0.569041 0.939162 0.261407 0.258283
H70   H     H_    0.508940 0.004883 0.206249 0.252036
H71   H     H_    0.689998 0.904380 0.484684 0.162539
H72   H     H_    0.608245 0.821085 0.465998 0.239930
H73   H     H_    0.538849 0.855901 0.335428 0.267974
H74   H     H_    0.505480 0.860518 0.430369 0.255438
H75   H     H_    0.597530 0.044108 0.483655 0.139152
H76   H     H_    0.134388 0.669019 0.820506 0.106605
N1    N     N_R   0.395440 0.396300 0.944370 -0.038650
N2    N     N_R   0.474910 0.470990 0.794360 -0.040102
N3    N     N_R   0.025090 0.970990 0.205640 -0.038087
N4    N     N_R   0.974910 0.970990 0.794360 -0.040102
N5    N     N_R   0.320240 0.527820 0.794510 -0.042199
N6    N     N_R   0.679760 0.527820 0.205490 -0.042550
N7    N     N_R   0.820240 0.027820 0.794510 -0.042200
N8    N     N_R   0.179760 0.027820 0.205490 -0.042553
N9    N     N_R   0.524580 0.527810 0.205160 -0.038140
N10   N     N_R   0.475420 0.527810 0.794840 -0.037811
N11   N     N_R   0.024580 0.027810 0.205160 -0.038141
N12   N     N_R   0.604560 0.396300 0.055630 -0.038300
N13   N     N_R   0.975420 0.027810 0.794840 -0.037811
N14   N     N_R   0.320750 0.470990 0.794990 -0.047777
N15   N     N_R   0.679250 0.470990 0.205010 -0.044072
N16   N     N_R   0.820750 0.970990 0.794990 -0.047760
N17   N     N_R   0.179250 0.970990 0.205010 -0.044060
N18   N     N_R   0.393580 0.602500 0.942610 -0.041428
N19   N     N_R   0.606420 0.602500 0.057390 -0.039762
N20   N     N_R   0.893580 0.102500 0.942610 -0.041430
N21   N     N_R   0.106420 0.102500 0.057390 -0.039764
N22   N     N_R   0.451750 0.396300 0.057540 -0.038116
N23   N     N_R   0.895440 0.896300 0.944370 -0.038649
N24   N     N_R   0.548250 0.396300 0.942460 -0.036930
N25   N     N_R   0.951750 0.896300 0.057540 -0.038116
N26   N     N_R   0.048250 0.896300 0.942460 -0.036928
N27   N     N_2   0.941643 0.450201 0.249002 -0.104756
N28   N     N_2   0.125277 0.406405 0.473616 -0.111087
N29   N     N_2   0.441664 0.950243 0.248980 -0.104757
N30   N     N_2   0.625349 0.906444 0.473540 -0.111093
N31   N     N_R   0.104560 0.896300 0.055630 -0.038296
N32   N     N_R   0.449890 0.602500 0.055780 -0.041857
N33   N     N_R   0.550110 0.602500 0.944220 -0.038982
N34   N     N_R   0.949890 0.102500 0.055780 -0.041857
N35   N     N_R   0.050110 0.102500 0.944220 -0.038982
N36   N     N_R   0.525090 0.470990 0.205640 -0.038088
Ni1   Ni    Ni4+2 0.435420 0.434250 0.870220 0.204691
Ni2   Ni    Ni4+2 0.564580 0.434250 0.129780 0.205638
Ni3   Ni    Ni4+2 0.935420 0.934250 0.870220 0.204693
Ni4   Ni    Ni4+2 0.064580 0.934250 0.129780 0.205640
Ni5   Ni    Ni4+2 0.563400 0.564580 0.128670 0.211731
Ni6   Ni    Ni4+2 0.436600 0.564580 0.871330 0.212538
Ni7   Ni    Ni4+2 0.063400 0.064580 0.128670 0.211731
Ni8   Ni    Ni4+2 0.936600 0.064580 0.871330 0.212539

loop_
_geom_bond_atom_site_label_1
_geom_bond_atom_site_label_2
_ccdc_geom_bond_type
N34   Ni7   S    
C83   N21   A    
C69   H38   S    
N21   N35   A    
N2    Ni1   S    
C71   N9    A    
C33   H11   S    
C70   N8    A    
N2    N10   A    
C82   H51   S    
C19   C46   A    
C56   C81   A    
C12   N12   A    
C3    C64   A    
C2    C63   A    
C43   C78   A    
C1    N1    A    
C94   H63   S    
C22   H5    S    
C30   C35   A    
C41   H28   S    
C12   C90   A    
C68   H37   S    
C35   C37   A    
N8    N17   A    
C23   H23   S    
C4    C65   A    
C73   N11   A    
N16   Ni3   S    
H71   N30   S    
N22   Ni2   S    
C73   H42   S    
C49   C54   A    
C62   C89   A    
C29   C33   A    
C58   H22   S    
C33   C36   A    
C13   N30   S    
C27   C90   S    
C50   H19   S    
N19   N33   A    
C32   C39   A    
C48   C78   S    
C49   C50   A    
C19   C26   A    
C85   H54   S    
C81   N19   A    
C42   H29   S    
C26   H8    S    
C3    C55   S    
C78   C83   A    
C6    C76   A    
C40   N32   A    
C84   N22   A    
C7    C17   S    
N7    Ni8   S    
C28   C88   S    
C8    C79   A    
H62   N28   S    
C96   H72   S    
C51   C57   A    
C9    C10   S    
C4    C74   A    
C63   H32   S    
C35   H13   S    
C52   C55   A    
C7    C77   A    
C74   N13   A    
C82   N20   A    
C84   H53   S    
C1    C88   A    
C6    C68   A    
C49   H18   S    
C14   H45   S    
C86   H55   S    
C8    C16   S    
C32   H10   S    
C87   C92   A    
C25   C29   A    
C31   H9    S    
C18   C25   A    
C80   N18   A    
C2    C72   A    
C95   H69   S    
C43   H30   S    
C62   N36   A    
C15   H56   S    
C65   H35   S    
C19   H2    S    
N21   Ni7   S    
C66   H36   S    
C54   C59   A    
C93   H60   S    
C16   H67   S    
N11   Ni7   S    
C40   C45   A    
C66   N5    A    
C50   C53   A    
C5    C15   S    
H66   N29   S    
C27   C31   A    
C51   C52   A    
C24   C28   A    
C28   C32   A    
N9    N36   A    
N4    N13   A    
C2    C54   S    
C1    H1    S    
C71   H40   S    
C12   H12   S    
C21   H4    S    
C25   H7    S    
N7    N16   A    
C39   H17   S    
C58   C59   A    
N12   N24   A    
C69   N7    A    
C43   N35   A    
N32   Ni5   S    
N5    N14   A    
C60   C61   A    
C59   H24   S    
C5    C75   A    
C93   H61   S    
C9    C14   D    
C77   H47   S    
C41   C56   A    
N23   Ni3   S    
C18   C44   A    
C6    C14   S    
C11   C16   D    
C79   H48   S    
C71   C89   A    
N15   Ni2   S    
C93   H59   S    
C34   N31   A    
C53   C58   A    
C87   H57   S    
C21   C24   A    
C47   C67   S    
N3    Ni4   S    
C64   N3    A    
C57   C61   A    
N26   Ni3   S    
N18   Ni6   S    
C94   H65   S    
C38   C47   A    
C96   H74   S    
C76   N15   A    
N6    N15   A    
C72   H41   S    
C20   C22   A    
N33   Ni6   S    
C26   C30   A    
C96   H73   S    
C65   N4    A    
C36   H14   S    
C70   H39   S    
C23   C91   A    
N31   Ni4   S    
C36   C44   A    
C75   N14   A    
C86   C91   A    
N24   Ni1   S    
C38   H16   S    
C95   H70   S    
N26   N31   A    
C44   C45   S    
C63   N2    A    
N3    N11   A    
C40   H27   S    
C80   H49   S    
C94   H64   S    
N6    Ni5   S    
C93   N27   S    
C10   C15   D    
N20   N34   A    
N5    Ni6   S    
N8    Ni7   S    
N1    Ni1   S    
C84   C88   A    
C30   C91   S    
N17   Ni4   S    
C10   N28   S    
C7    C69   A    
N9    Ni5   S    
C85   C90   A    
C17   H75   S    
C85   N24   A    
N12   Ni2   S    
C18   H76   S    
C95   N29   S    
C74   H43   S    
C46   C56   S    
C22   C27   A    
C51   H20   S    
C8    C70   A    
N4    Ni3   S    
C13   C17   D    
C75   H44   S    
C21   C48   A    
C31   C38   A    
C72   N10   A    
C96   N30   S    
N25   Ni4   S    
C95   H68   S    
C5    C66   A    
C53   C89   S    
H58   N27   S    
C11   C13   S    
N18   N32   A    
C42   C67   A    
C20   H3    S    
C68   N6    A    
N35   Ni8   S    
C42   N34   A    
C45   C80   A    
C24   H6    S    
C41   N33   A    
C60   H25   S    
C3    C73   A    
C34   C92   A    
C37   H15   S    
C20   C47   A    
C86   N25   A    
C83   H52   S    
C94   N28   S    
C62   H31   S    
N10   Ni6   S    
C64   H33   S    
C34   H34   S    
C67   C82   A    
N36   Ni2   S    
C81   H50   S    
C79   N17   A    
N14   Ni1   S    
C23   N23   A    
N1    N22   A    
N13   Ni8   S    
C77   N16   A    
C52   H21   S    
C61   H26   S    
C11   N29   S    
C87   N26   A    
C37   C46   A    
C55   C60   A    
N20   Ni8   S    
C29   C92   S    
N19   Ni5   S    
C9    N27   S    
C4    C57   S    
C39   C48   A    
N23   N25   A    
C76   H46   S    
