data_mof_unit_471.cif
_audit_creation_date              2012-10-26T19:06:49-0400
_audit_creation_method            fapswitch 2.2
_symmetry_space_group_name_H-M    P1
_symmetry_Int_Tables_number       1
_space_group_crystal_system       triclinic
_cell_length_a                    12.312927
_cell_length_b                    13.166687
_cell_length_c                    27.773425
_cell_angle_alpha                 77.710952
_cell_angle_beta                  101.168121
_cell_angle_gamma                 116.566606
_cell_volume                      3909.87811056

loop_
_atom_site_label
_atom_site_type_symbol
_atom_type_description
_atom_site_fract_x
_atom_site_fract_y
_atom_site_fract_z
_atom_type_partial_charge
C1    C     C_R   0.854886 0.286531 0.504235 0.531313
C2    C     C_R   0.899787 0.408376 0.026067 0.033782
C3    C     C_R   0.094830 0.580639 0.025144 0.039419
C4    C     C_R   0.999236 0.499577 0.592435 0.550144
C5    C     C_R   0.998082 0.494073 0.050998 0.010709
C6    C     C_R   0.795915 0.336619 0.050998 -0.099562
C7    C     C_R   0.795499 0.338954 0.100799 -0.121309
C8    C     C_R   0.897976 0.415096 0.127146 0.026199
C9    C     C_R   0.999254 0.493612 0.102198 -0.030669
C10   C     C_R   0.101443 0.572032 0.128365 0.018237
C11   C     C_R   0.100288 0.570758 0.178913 0.438631
C12   C     C_R   0.091609 0.489422 0.730560 -0.058093
C13   C     C_R   0.900733 0.416510 0.177749 0.384386
C14   C     C_R   0.079381 0.459310 0.290155 0.313537
C15   C     C_R   0.080548 0.463431 0.340201 -0.132704
C16   C     C_R   0.145089 0.713476 0.492677 0.551828
C17   C     C_R   0.920998 0.530824 0.318532 -0.166043
C18   C     C_R   0.921688 0.529485 0.268570 -0.107134
C19   C     C_R   0.001029 0.494502 0.254106 0.243397
C20   C     C_R   0.907060 0.400062 0.976679 0.030888
C21   C     C_R   0.994989 0.495535 0.949248 -0.051244
C22   C     C_R   0.084228 0.590229 0.972664 0.057525
C23   C     C_R   0.994494 0.497047 0.746272 0.243559
C24   C     C_R   0.831377 0.299495 0.954151 0.250165
C25   C     C_R   0.152905 0.690714 0.891842 -0.103676
C26   C     C_R   0.199917 0.652451 0.053019 -0.092605
C27   C     C_R   0.202679 0.648834 0.103656 -0.124211
C28   C     C_R   0.000397 0.499832 0.407594 0.550797
C29   C     C_R   0.157035 0.691565 0.942587 0.226164
C30   C     C_R   0.275696 0.021368 0.433288 -0.126783
C31   C     C_R   0.227959 0.834667 0.482264 0.000515
C32   C     C_R   0.815353 0.084901 0.536379 -0.129143
C33   C     C_R   0.736493 0.969844 0.545927 -0.134402
C34   C     C_R   0.993947 0.496323 0.898133 -0.055550
C35   C     C_R   0.613174 0.932231 0.528443 -0.116857
C36   C     C_R   0.566563 0.009271 0.499079 0.033920
C37   C     C_R   0.650179 0.123769 0.484467 0.023728
C38   C     C_R   0.439941 0.976136 0.483251 0.030199
C39   C     C_R   0.400422 0.053348 0.449283 0.052146
C40   C     C_R   0.914847 0.401654 0.824686 0.401706
C41   C     C_R   0.485918 0.160506 0.430742 -0.133838
C42   C     C_R   0.609025 0.194689 0.447484 -0.117429
C43   C     C_R   0.350983 0.868686 0.500560 -0.130900
C44   C     C_R   0.189764 0.912041 0.449433 -0.132663
C45   C     C_R   0.913355 0.399612 0.875364 -0.008256
C46   C     C_R   0.773070 0.163441 0.506847 -0.002438
C47   C     C_R   0.346501 0.328412 0.578953 -0.145409
C48   C     C_R   0.759640 0.645442 0.433042 0.048042
C49   C     C_R   0.663109 0.677173 0.418507 -0.153617
C50   C     C_R   0.559569 0.622304 0.443672 -0.131433
C51   C     C_R   0.551397 0.534515 0.484001 -0.006425
C52   C     C_R   0.072460 0.592183 0.819126 0.402563
C53   C     C_R   0.652985 0.505184 0.497644 0.179975
C54   C     C_R   0.446986 0.475083 0.511350 -0.012504
C55   C     C_R   0.446675 0.388052 0.551496 0.036373
C56   C     C_R   0.836325 0.301440 0.903723 -0.103193
C57   C     C_R   0.546421 0.361091 0.564216 -0.174153
C58   C     C_R   0.647219 0.418502 0.538038 -0.101366
C59   C     C_R   0.342052 0.497803 0.500879 0.039831
C60   C     C_R   0.246600 0.355041 0.566801 0.041985
C61   C     C_R   0.898661 0.505173 0.711620 -0.058894
C62   C     C_R   0.900154 0.506254 0.661430 -0.148352
C63   C     C_R   0.093066 0.489896 0.680454 -0.143488
C64   C     C_3   0.107875 0.305409 0.282169 -0.017060
C65   C     C_3   0.191684 0.267975 0.264289 -0.355817
C66   C     C_3   0.652174 0.131168 0.962328 -0.029942
C67   C     C_R   0.074374 0.593474 0.869712 0.000904
C68   C     C_3   0.577896 0.042989 0.002417 -0.361235
C69   C     C_R   0.997486 0.498654 0.645388 0.003595
C70   C     C_R   0.000728 0.498196 0.354785 -0.040776
Cu1   Cu    Cu3+1 0.098270 0.475420 0.511360 0.930609
Cu2   Cu    Cu3+1 0.901730 0.524580 0.488640 0.919189
H1    H     H_    0.169241 0.483974 0.669202 0.132157
H2    H     H_    0.245080 0.079815 0.407220 0.105730
H3    H     H_    0.165824 0.482954 0.757265 0.128499
H4    H     H_    0.374797 0.808602 0.528080 0.120996
H5    H     H_    0.909262 0.112831 0.553174 0.131016
H6    H     H_    0.557600 0.841806 0.537608 0.106438
H7    H     H_    0.770431 0.909819 0.568368 0.125773
H8    H     H_    0.671323 0.276281 0.429883 0.154781
H9    H     H_    0.168869 0.309381 0.587813 0.123010
H10   H     H_    0.546920 0.294864 0.594990 0.119718
H11   H     H_    0.345590 0.261717 0.609664 0.102705
H12   H     H_    0.823395 0.511173 0.723619 0.127200
H13   H     H_    0.334179 0.562247 0.471039 0.121199
H14   H     H_    0.839684 0.688535 0.413321 0.123927
H15   H     H_    0.782740 0.224607 0.886734 0.155080
H16   H     H_    0.487673 0.650381 0.430829 0.108275
H17   H     H_    0.668561 0.744543 0.387630 0.114131
H18   H     H_    0.718878 0.391899 0.551123 0.184343
H19   H     H_    0.143264 0.438397 0.367474 0.137551
H20   H     H_    0.714083 0.281196 0.118457 0.162589
H21   H     H_    0.711573 0.281844 0.031919 0.158891
H22   H     H_    0.825034 0.512649 0.635302 0.128919
H23   H     H_    0.210376 0.767623 0.869463 0.151524
H24   H     H_    0.267192 0.855167 0.936040 0.318970
H25   H     H_    0.016750 0.270342 0.259891 0.158188
H26   H     H_    0.098282 0.268501 0.321962 0.117044
H27   H     H_    0.283106 0.300416 0.286181 0.163056
H28   H     H_    0.152332 0.172813 0.268945 0.101375
H29   H     H_    0.201828 0.302282 0.224440 0.174248
H30   H     H_    0.655214 0.082944 0.934681 0.146429
H31   H     H_    0.604219 0.186590 0.944542 0.124907
H32   H     H_    0.568643 0.086341 0.030542 0.147868
H33   H     H_    0.485176 0.989493 0.985535 0.123978
H34   H     H_    0.283347 0.708983 0.036822 0.179181
H35   H     H_    0.623378 0.986336 0.020956 0.175173
H36   H     H_    0.858695 0.558226 0.328687 0.140168
H37   H     H_    0.284648 0.706699 0.123334 0.163673
H38   H     H_    0.860696 0.556030 0.240931 0.140663
H39   H     H_    0.094600 0.886585 0.434759 0.122040
H40   H     H_    0.457548 0.218377 0.403158 0.112344
N1    N     N_R   0.993619 0.497061 0.797788 -0.392565
N2    N     N_R   0.000870 0.493691 0.202499 -0.383800
N3    N     N_R   0.246290 0.438210 0.528570 -0.234979
N4    N     N_R   0.754320 0.561170 0.471730 -0.236079
O1    O     O_R   0.972510 0.318140 0.514280 -0.501720
O2    O     O_R   0.082990 0.479230 0.439860 -0.505170
O3    O     O_R   0.917010 0.520730 0.420680 -0.510704
O4    O     O_2   0.838765 0.308927 0.802488 -0.503256
O5    O     O_3   0.223231 0.793335 0.962022 -0.726688
O6    O     O_3   0.159182 0.426389 0.276092 -0.528175
O7    O     O_3   0.771831 0.195719 0.983876 -0.558861
O8    O     O_2   0.804567 0.340897 0.202144 -0.513855
O9    O     O_2   0.148420 0.685274 0.791396 -0.500051
O10   O     O_2   0.197072 0.646691 0.204187 -0.468562
O11   O     O_R   0.806530 0.359640 0.495100 -0.527738
O12   O     O_R   0.082990 0.479270 0.579320 -0.501404
O13   O     O_R   0.917010 0.520770 0.560140 -0.518411
O14   O     O_R   0.193470 0.640360 0.504900 -0.506838
O15   O     O_R   0.027490 0.681860 0.485720 -0.501692

loop_
_geom_bond_atom_site_label_1
_geom_bond_atom_site_label_2
_ccdc_geom_bond_type
C10   C27   A    
C66   C68   S    
C42   H8    S    
C8    C13   A    
C14   O6    S    
C22   C29   A    
C41   C42   A    
C66   H30   S    
C35   C36   A    
C25   C67   A    
C65   H29   S    
C26   H34   S    
C1    O11   A    
C7    C8    A    
C39   C41   A    
C52   N1    A    
C16   C31   S    
C12   C23   A    
C26   C27   A    
C31   C43   A    
H24   O5    S    
C36   C37   A    
C38   C39   A    
C30   H2    S    
C1    C46   S    
C18   C19   A    
C37   C42   A    
C11   N2    A    
C16   O15   A    
C47   C60   A    
C63   C69   A    
C45   C56   A    
C8    C9    A    
C41   H40   S    
C29   O5    S    
C68   H35   S    
C47   H11   S    
C16   O14   A    
C9    C10   A    
C3    C22   A    
C13   N2    A    
C53   N4    A    
C50   H16   S    
C48   N4    A    
C64   H26   S    
C32   H5    S    
C17   C70   A    
C21   C22   A    
C30   C44   A    
C2    C6    A    
C14   C19   A    
C4    C69   S    
C17   C18   A    
C54   C59   A    
C25   C29   A    
C40   C45   A    
C31   C44   A    
Cu1   O1    S    
Cu2   O11   S    
C2    C20   A    
C20   C24   A    
Cu2   O13   S    
C11   O10   S    
C65   H27   S    
C17   H36   S    
C13   O8    S    
C4    O12   A    
C33   H7    S    
C56   H15   S    
C21   C34   A    
C63   H1    S    
C19   N2    S    
C61   H12   S    
C24   O7    S    
C62   C69   A    
C51   C53   A    
C59   H13   S    
C62   H22   S    
C5    C9    A    
C23   N1    S    
C60   H9    S    
C40   N1    A    
C14   C15   A    
C52   O9    S    
C6    H21   S    
C50   C51   A    
Cu1   N3    S    
C34   C45   A    
C1    O1    A    
C58   H18   S    
C6    C7    A    
C52   C67   A    
C48   C49   A    
C40   O4    S    
C25   H23   S    
C55   C57   A    
C48   H14   S    
Cu1   O12   S    
C2    C5    A    
C68   H33   S    
Cu2   O15   S    
C47   C55   A    
C43   H4    S    
C12   C63   A    
C15   C70   A    
C54   C55   A    
C64   H25   S    
Cu1   O2    S    
C66   O7    S    
C32   C46   A    
C66   H31   S    
C3    C26   A    
C28   C70   S    
C18   H38   S    
C65   H28   S    
C49   H17   S    
C3    C5    A    
C28   O3    A    
C34   C67   A    
C53   C58   A    
C4    O13   A    
C24   C56   A    
Cu2   N4    S    
C35   H6    S    
C51   C54   A    
C64   C65   S    
C68   H32   S    
C38   C43   A    
C28   O2    A    
C32   C33   A    
Cu1   O14   S    
C57   C58   A    
C64   O6    S    
C7    H20   S    
Cu2   O3    S    
C36   C38   A    
C33   C35   A    
C30   C39   A    
C61   C62   A    
C10   C11   A    
C15   H19   S    
C44   H39   S    
C23   C61   A    
Cu1   Cu2   S    
C20   C21   A    
C27   H37   S    
C59   N3    A    
C49   C50   A    
C12   H3    S    
C57   H10   S    
C60   N3    A    
C37   C46   A    
