data_mof_unit_2344.cif
_audit_creation_date              2012-12-10T18:00:50-0500
_audit_creation_method            fapswitch 2.2
_symmetry_space_group_name_H-M    P1
_symmetry_Int_Tables_number       1
_space_group_crystal_system       triclinic
_cell_length_a                    15.871413
_cell_length_b                    10.859646
_cell_length_c                    9.51102
_cell_angle_alpha                 89.476152
_cell_angle_beta                  89.997786
_cell_angle_gamma                 90.218658
_cell_volume                      1639.21923078

loop_
_atom_site_label
_atom_site_type_symbol
_atom_type_description
_atom_site_fract_x
_atom_site_fract_y
_atom_site_fract_z
_atom_type_partial_charge
C1    C     C_R   0.499625 0.262076 0.500867 0.846267
C2    C     C_R   0.553464 0.575041 0.073703 -0.008556
C3    C     C_R   0.339752 0.499820 0.499981 0.819677
C4    C     C_R   0.660248 0.500180 0.500019 0.819664
C5    C     C_3   0.971692 0.387458 0.522556 0.600656
C6    C     C_3   0.028308 0.612541 0.477443 0.600657
C7    C     C_3   0.027526 0.424994 0.396404 -0.301975
C8    C     C_3   0.972474 0.575005 0.603596 -0.301974
C9    C     C_1   0.250059 0.499305 0.500011 -0.167575
C10   C     C_1   0.749942 0.500694 0.499989 -0.167576
C11   C     C_3   0.027697 0.458591 0.626806 -0.298769
C12   C     C_R   0.500383 0.737924 0.499135 0.846322
C13   C     C_3   0.972303 0.541408 0.373194 -0.298768
C14   C     C_3   0.082872 0.498324 0.500216 0.051538
C15   C     C_3   0.917128 0.501675 0.499783 0.051537
C16   C     C_1   0.174526 0.498818 0.500087 0.011317
C17   C     C_1   0.825473 0.501182 0.499913 0.011314
C18   C     C_R   0.516290 0.066818 0.376925 -0.341275
C19   C     C_R   0.483740 0.933180 0.623083 -0.341269
C20   C     C_3   0.999448 0.182171 0.561048 -0.323346
C21   C     C_3   0.000553 0.817828 0.438949 -0.323331
C22   C     C_3   0.467168 0.889211 0.154630 -0.298452
C23   C     C_R   0.515183 0.939037 0.372245 0.506790
C24   C     C_3   0.533074 0.110901 0.845200 -0.298505
C25   C     C_R   0.484862 0.060958 0.627763 0.506790
C26   C     C_R   0.500232 0.871775 0.497361 -0.192848
C27   C     C_R   0.499792 0.128224 0.502644 -0.192868
C28   C     C_R   0.446556 0.424853 0.075170 -0.036797
C29   C     C_R   0.553446 0.575145 0.924830 -0.036842
C30   C     C_R   0.446538 0.424955 0.926297 -0.008494
Cu1   Cu    Cu3+1 0.500000 0.500020 0.640660 0.960374
Cu2   Cu    Cu3+1 0.500000 0.499980 0.359340 0.960403
H1    H     H_    0.051265 0.363031 0.313233 0.154341
H2    H     H_    0.596167 0.635312 0.129269 0.153339
H3    H     H_    0.041557 0.203358 0.651180 0.161256
H4    H     H_    0.036579 0.173815 0.462479 0.155560
H5    H     H_    0.969851 0.091271 0.582707 0.187259
H6    H     H_    0.963414 0.826177 0.537512 0.155554
H7    H     H_    0.958451 0.796646 0.348807 0.161262
H8    H     H_    0.030151 0.908731 0.417306 0.187257
H9    H     H_    0.409005 0.848281 0.201347 0.173196
H10   H     H_    0.482271 0.836318 0.058700 0.178138
H11   H     H_    0.455586 0.986101 0.121367 0.152280
H12   H     H_    0.948734 0.636968 0.686766 0.154341
H13   H     H_    0.518012 0.163703 0.941215 0.178153
H14   H     H_    0.591134 0.152011 0.798326 0.173259
H15   H     H_    0.544814 0.014023 0.878353 0.152236
H16   H     H_    0.948455 0.576465 0.270736 0.156028
H17   H     H_    0.051545 0.423534 0.729264 0.156028
H18   H     H_    0.530892 0.117774 0.281452 0.184723
H19   H     H_    0.469152 0.882232 0.718568 0.184754
H20   H     H_    0.403865 0.364484 0.131895 0.125705
H21   H     H_    0.596136 0.635513 0.868105 0.125700
H22   H     H_    0.403838 0.364681 0.870731 0.153317
N1    N     N_R   0.500020 0.500030 0.852070 -0.161135
N2    N     N_R   0.499980 0.499970 0.147930 -0.161133
O1    O     O_R   0.500000 0.319660 0.618740 -0.540053
O2    O     O_3   0.064795 0.729537 0.453554 -0.570874
O3    O     O_3   0.535923 0.880599 0.248260 -0.576245
O4    O     O_3   0.464205 0.119384 0.751790 -0.576250
O5    O     O_R   0.500000 0.680340 0.381260 -0.540022
O6    O     O_R   0.499990 0.319630 0.381170 -0.600264
O7    O     O_R   0.500010 0.680370 0.618830 -0.600276
O8    O     O_R   0.379080 0.500000 0.618760 -0.578001
O9    O     O_R   0.620920 0.500000 0.381240 -0.577998
O10   O     O_R   0.379080 0.499970 0.381190 -0.582311
O11   O     O_R   0.620920 0.500030 0.618810 -0.582331
O12   O     O_3   0.935206 0.270463 0.546448 -0.570878

loop_
_geom_bond_atom_site_label_1
_geom_bond_atom_site_label_2
_ccdc_geom_bond_type
C4    O11   A    
Cu1   O11   S    
C11   H17   S    
C25   O4    S    
C1    O1    A    
C6    C14   S    
Cu1   O7    S    
C7    H1    S    
C30   N1    A    
C6    O2    S    
C13   H16   S    
Cu1   Cu2   S    
C21   H7    S    
C24   O4    S    
C24   H14   S    
C1    O6    A    
Cu1   O1    S    
C28   C30   A    
C28   N2    A    
Cu2   O6    S    
C21   O2    S    
C2    N2    A    
C3    O8    A    
C6    C13   S    
C23   O3    S    
C20   H5    S    
C28   H20   S    
C2    H2    S    
C22   H10   S    
C21   H8    S    
C29   H21   S    
C2    C29   A    
C8    C11   S    
C3    C9    S    
C24   H13   S    
Cu2   O10   S    
C9    C16   T    
C5    O12   S    
Cu2   O5    S    
C5    C11   S    
C8    C15   S    
C5    C7    S    
C13   C15   S    
Cu2   N2    S    
C4    O9    A    
C19   C25   A    
C11   C14   S    
C14   C16   S    
C30   H22   S    
C5    C15   S    
C3    O10   A    
C25   C27   A    
C21   H6    S    
C10   C17   T    
C4    C10   S    
C18   C23   A    
C22   H9    S    
C19   H19   S    
C7    C13   S    
C12   O5    A    
C18   H18   S    
C1    C27   S    
C23   C26   A    
C22   O3    S    
C15   C17   S    
C19   C26   A    
C20   H3    S    
C6    C8    S    
C29   N1    A    
Cu1   N1    S    
C12   O7    A    
C24   H15   S    
Cu1   O8    S    
C20   O12   S    
C7    C14   S    
C18   C27   A    
C22   H11   S    
C12   C26   S    
Cu2   O9    S    
C8    H12   S    
C20   H4    S    
