data_mof_unit_1805.cif
_audit_creation_date              2012-12-11T14:33:05-0500
_audit_creation_method            fapswitch 2.2
_symmetry_space_group_name_H-M    P1
_symmetry_Int_Tables_number       1
_space_group_crystal_system       triclinic
_cell_length_a                    6.961662
_cell_length_b                    13.753781
_cell_length_c                    18.017929
_cell_angle_alpha                 112.45781
_cell_angle_beta                  95.09308
_cell_angle_gamma                 90.4836
_cell_volume                      1586.38773733

loop_
_atom_site_label
_atom_site_type_symbol
_atom_type_description
_atom_site_fract_x
_atom_site_fract_y
_atom_site_fract_z
_atom_type_partial_charge
O1    O     O_R   0.484560 0.544530 0.414330 -0.531287
O2    O     O_R   0.197040 0.638810 0.585080 -0.537966
O3    O     O_R   0.026800 0.455470 0.585670 -0.541530
C1    C     C_R   0.373684 0.678604 0.610033 0.687018
O4    O     O_R   0.155000 0.556150 0.414940 -0.552788
O5    O     O_R   0.984450 0.372220 0.414320 -0.537153
C2    C     C_R   0.319018 0.566398 0.387387 0.758673
O6    O     O_R   0.526900 0.627780 0.585680 -0.538554
O7    O     O_3   0.339170 0.439750 0.499990 -0.373295
V1    V     V_3+5 0.064350 0.511180 0.500000 1.348404
O8    O     O_R   0.654880 0.361190 0.414920 -0.542061
C3    C     C_R   0.817107 0.324556 0.386532 0.751298
O9    O     O_R   0.696930 0.443850 0.585060 -0.540524
C4    C     C_R   0.872613 0.433044 0.612003 0.695189
V2    V     V_3+5 0.564340 0.488820 0.500000 1.362408
O10   O     O_3   0.839390 0.560250 0.500010 -0.382695
C5    C     C_R   0.043759 0.862416 0.824034 -0.049452
C6    C     C_R   0.904641 0.397147 0.679441 -0.050845
C7    C     C_R   0.927974 0.822082 0.684685 -0.129981
C8    C     C_R   0.979019 0.789168 0.747350 -0.145459
C9    C     C_R   0.052442 0.970439 0.838257 -0.216334
C10   C     C_R   0.999002 0.006447 0.775150 0.094697
C11   C     C_R   0.938014 0.929220 0.697697 0.127002
C12   C     C_R   0.002765 0.115543 0.785812 0.068401
C13   C     C_R   0.944226 0.144740 0.718866 0.058965
C14   C     C_R   0.885420 0.063923 0.643591 -0.198907
C15   C     C_R   0.886018 0.958696 0.633251 -0.196655
C16   C     C_R   0.063267 0.196328 0.860989 -0.180257
C17   C     C_R   0.068730 0.301384 0.870675 -0.219529
C18   C     C_R   0.013715 0.330876 0.806239 0.122595
C19   C     C_R   0.948641 0.253691 0.729247 0.094497
C20   C     C_R   0.025597 0.437797 0.818553 -0.129404
C21   C     C_R   0.973062 0.470395 0.755713 -0.143667
C22   C     C_R   0.893342 0.289411 0.666023 -0.212340
H1    H     H_    0.845644 0.899032 0.573723 0.110622
H2    H     H_    0.844664 0.236127 0.605552 0.093586
H3    H     H_    0.988062 0.553177 0.766536 0.091957
H4    H     H_    0.118367 0.360473 0.929504 0.115521
H5    H     H_    0.878224 0.763434 0.625765 0.139721
H6    H     H_    0.966059 0.706166 0.736041 0.093011
H7    H     H_    0.097408 0.023685 0.899161 0.091999
H8    H     H_    0.840518 0.079090 0.590499 0.119764
H9    H     H_    0.109793 0.181048 0.913913 0.121839
H10   H     H_    0.078094 0.496524 0.877038 0.138609
H11   H     H_    0.113955 0.223665 0.308794 0.155981
H12   H     H_    0.834620 0.034555 0.193943 0.155362
C23   C     C_2   0.135380 0.037349 0.184023 -0.351804
C24   C     C_2   0.972755 0.077731 0.217181 -0.130332
H13   H     H_    0.675265 0.177714 0.294802 0.125579
C25   C     C_2   0.813110 0.221010 0.318555 -0.348716
C26   C     C_2   0.975796 0.180530 0.285510 -0.131291
H14   H     H_    0.273200 0.080687 0.207734 0.125053
C27   C     C_R   0.408003 0.785542 0.674983 -0.082394
C28   C     C_R   0.539164 0.475540 0.823525 -0.059348
C29   C     C_R   0.529332 0.890945 0.812332 -0.126224
C30   C     C_R   0.478907 0.793369 0.751780 -0.134030
C31   C     C_R   0.393193 0.878453 0.658862 -0.205269
C32   C     C_R   0.446285 0.981395 0.719867 0.114029
C33   C     C_R   0.513426 0.983757 0.797613 0.116906
C34   C     C_R   0.438280 0.081521 0.708802 0.016404
C35   C     C_R   0.497420 0.178809 0.777338 0.015740
C36   C     C_R   0.558831 0.173100 0.851987 -0.157109
C37   C     C_R   0.566579 0.078398 0.861571 -0.215812
C38   C     C_R   0.373703 0.091201 0.634143 0.298685
C39   C     C_R   0.368014 0.190204 0.629307 -0.273226
C40   C     C_R   0.425773 0.282603 0.694732 0.070394
C41   C     C_R   0.492659 0.279854 0.770077 0.097781
C42   C     C_R   0.413663 0.378538 0.684562 -0.105094
C43   C     C_R   0.468355 0.473474 0.748050 -0.143169
C44   C     C_R   0.549918 0.379196 0.834797 -0.192523
H15   H     H_    0.616928 0.079380 0.920589 0.115904
H16   H     H_    0.600537 0.385301 0.894670 0.087659
H17   H     H_    0.452852 0.545891 0.738236 0.089372
H18   H     H_    0.314422 0.194684 0.572325 0.128395
H19   H     H_    0.583203 0.893803 0.871467 0.137190
H20   H     H_    0.496931 0.723504 0.765038 0.093277
H21   H     H_    0.342093 0.864663 0.597947 0.166992
H22   H     H_    0.603703 0.241347 0.905365 0.121430
H23   H     H_    0.359522 0.380196 0.626908 0.147656
H24   H     H_    0.339076 0.631764 0.179073 0.122947
C45   C     C_2   0.318452 0.597095 0.316394 -0.425131
C46   C     C_2   0.477880 0.635724 0.296212 0.342059
H25   H     H_    0.773854 0.690684 0.226873 0.158525
C47   C     C_2   0.635792 0.674935 0.190858 -0.328892
C48   C     C_2   0.475396 0.646859 0.216891 -0.160211
H26   H     H_    0.187631 0.578703 0.275177 0.096311
O11   O     O_R   0.421600 0.630430 0.917010 -0.539681
O12   O     O_R   0.793840 0.702190 0.087630 -0.544297
O13   O     O_R   0.964010 0.886170 0.088190 -0.536710
C49   C     C_R   0.630850 0.695928 0.116677 0.744284
O14   O     O_R   0.751460 0.619510 0.917500 -0.539620
O15   O     O_R   0.921330 0.802900 0.916840 -0.541430
C50   C     C_R   0.574635 0.580034 0.891692 0.683109
O16   O     O_R   0.464290 0.713700 0.088350 -0.534942
O17   O     O_3   0.609200 0.818520 0.002630 -0.374131
V3    V     V_3+5 0.884140 0.747190 0.002530 1.372588
O18   O     O_R   0.251150 0.814630 0.917340 -0.542491
C51   C     C_R   0.075503 0.825874 0.890870 0.689793
O19   O     O_R   0.293530 0.897310 0.087470 -0.542357
C52   C     C_R   0.131346 0.933860 0.115962 0.763844
V4    V     V_3+5 0.384070 0.769710 0.002370 1.375771
O20   O     O_3   0.109180 0.698190 0.002460 -0.375835
N1    N     N_2   0.300082 0.004542 0.563480 -0.535211
H27   H     H_    0.166012 0.016750 0.540169 0.263267
C53   C     C_3   0.429945 0.968416 0.501001 -0.607915
H28   H     H_    0.360519 0.900165 0.448939 0.203260
H29   H     H_    0.563676 0.941950 0.523655 0.208176
H30   H     H_    0.465586 0.031935 0.479942 0.199946
N2    N     N_2   0.646616 0.672091 0.351653 -0.515904
H31   H     H_    0.626642 0.707246 0.412076 0.248955
C54   C     C_3   0.808403 0.604752 0.333842 -0.471780
H32   H     H_    0.800274 0.545865 0.361348 0.232320
H33   H     H_    0.941757 0.655474 0.357835 0.191778
H34   H     H_    0.812328 0.559419 0.268186 0.161064

loop_
_geom_bond_atom_site_label_1
_geom_bond_atom_site_label_2
_ccdc_geom_bond_type
C13   C19   A    
C38   N1    S    
C40   C42   A    
C29   C30   A    
O12   V3    S    
V4    O20   S    
C30   H20   S    
V3    O20   S    
C1    C27   S    
C4    C6    S    
O2    C1    A    
O17   V3    S    
C1    O6    A    
C45   C46   D    
O15   C51   A    
C53   H29   S    
C14   C15   A    
H24   C48   S    
H25   C47   S    
C16   C17   A    
C29   C33   A    
N2    C54   S    
O5    C3    A    
C18   C19   A    
C8    H6    S    
H11   C26   S    
C32   C34   A    
V2    O10   S    
O18   C51   A    
O15   V3    S    
C5    C8    A    
C28   C50   S    
O14   V3    S    
O11   V4    S    
O8    V2    S    
C24   C26   S    
C23   C24   D    
O16   V4    S    
C42   C43   A    
C17   H4    S    
C43   H17   S    
O1    V2    S    
C11   C15   A    
O7    V1    S    
C45   H26   S    
C29   H19   S    
C42   H23   S    
C40   C41   A    
O9    C4    A    
C47   C49   S    
C49   O16   A    
C53   H30   S    
H12   C24   S    
O13   C52   A    
C46   N2    S    
C31   H21   S    
C47   C48   D    
C54   H33   S    
O4    C2    A    
C27   C31   A    
C15   H1    S    
C13   C14   A    
C21   H3    S    
C23   C52   S    
C34   C35   A    
C7    C11   A    
C17   C18   A    
O14   C50   A    
C35   C41   A    
O19   C52   A    
C28   C44   A    
C36   C37   A    
C25   C26   D    
C20   H10   S    
C19   C22   A    
N1    C53   S    
C12   C13   A    
C6    C22   A    
O3    C4    A    
C7    H5    S    
C9    H7    S    
O19   V4    S    
O12   C49   A    
H13   C25   S    
O6    V2    S    
O9    V2    S    
C10   C12   A    
O2    V1    S    
C14   H8    S    
C5    C51   S    
C27   C30   A    
C54   H32   S    
C2    C45   S    
O1    C2    A    
C36   H22   S    
C12   C16   A    
C37   H15   S    
O5    V1    S    
C3    C25   S    
O8    C3    A    
C23   H14   S    
C46   C48   S    
C53   H28   S    
C16   H9    S    
C33   C37   A    
C34   C38   A    
C41   C44   A    
C20   C21   A    
C7    C8    A    
C32   C33   A    
O4    V1    S    
O3    V1    S    
V1    O10   S    
N2    H31   S    
C38   C39   A    
C18   C20   A    
C31   C32   A    
C28   C43   A    
O13   V3    S    
O11   C50   A    
C54   H34   S    
C22   H2    S    
O7    V2    S    
C35   C36   A    
C6    C21   A    
C5    C9    A    
C39   H18   S    
C39   C40   A    
N1    H27   S    
C10   C11   A    
C44   H16   S    
C9    C10   A    
O18   V4    S    
O17   V4    S    
