data_mof_unit_3485.cif
_audit_creation_date              2012-12-11T15:43:03-0500
_audit_creation_method            fapswitch 2.2
_symmetry_space_group_name_H-M    P1
_symmetry_Int_Tables_number       1
_space_group_crystal_system       triclinic
_cell_length_a                    19.082662
_cell_length_b                    10.931262
_cell_length_c                    18.795757
_cell_angle_alpha                 90.141475
_cell_angle_beta                  89.997586
_cell_angle_gamma                 90.04242
_cell_volume                      3920.7363564

loop_
_atom_site_label
_atom_site_type_symbol
_atom_type_description
_atom_site_fract_x
_atom_site_fract_y
_atom_site_fract_z
_atom_type_partial_charge
C1    C     C_R   0.727133 0.369972 0.143200 0.543965
C2    C     C_R   0.269685 0.376993 0.853819 0.537412
C3    C     C_R   0.227064 0.869865 0.143136 0.542771
C4    C     C_R   0.769707 0.876499 0.853825 0.538344
C5    C     C_R   0.487903 0.405042 0.935417 0.234830
C6    C     C_R   0.454574 0.365704 0.079039 0.233448
C7    C     C_R   0.987126 0.904518 0.935463 0.235136
C8    C     C_R   0.953648 0.863654 0.078886 0.233102
C9    C     C_R   0.963080 0.999760 0.978613 -0.138978
C10   C     C_R   0.943908 0.978401 0.048619 -0.130513
C11   C     C_R   0.465080 0.501158 0.978611 -0.139649
C12   C     C_R   0.446055 0.480666 0.048740 -0.131307
C13   C     C_R   0.750747 0.909083 0.925390 0.018319
C14   C     C_R   0.235923 0.884722 0.067323 0.020148
C15   C     C_R   0.245405 0.423804 0.921523 0.019325
C16   C     C_R   0.736132 0.384467 0.067421 0.020422
C17   C     C_R   0.728137 0.815217 0.970777 0.025255
C18   C     C_R   0.299653 0.860345 0.034325 -0.006775
C19   C     C_R   0.200189 0.353535 0.963904 0.006031
C20   C     C_R   0.800648 0.364656 0.035040 -0.008035
C21   C     C_R   0.727853 0.830289 0.043695 0.019002
C22   C     C_R   0.306138 0.872918 0.961472 0.004509
C23   C     C_R   0.197554 0.370767 0.036683 -0.002281
C24   C     C_R   0.807353 0.377695 0.962273 0.005897
C25   C     C_R   0.776600 0.032493 0.027828 -0.145992
C26   C     C_R   0.182278 0.908623 0.951257 -0.160304
C27   C     C_R   0.277047 0.540691 0.025473 -0.141136
C28   C     C_R   0.682843 0.403023 0.950777 -0.168395
C29   C     C_R   0.777782 0.016396 0.954789 -0.151725
C30   C     C_R   0.175781 0.897943 0.024511 -0.153437
C31   C     C_R   0.278763 0.525201 0.952055 -0.145512
C32   C     C_R   0.676036 0.392379 0.024083 -0.160268
C33   C     C_3   0.659956 0.747660 0.972513 -0.260190
C34   C     C_3   0.369730 0.914982 0.048709 -0.281314
C35   C     C_3   0.194358 0.217724 0.971703 -0.242778
C36   C     C_3   0.869264 0.424356 0.049901 -0.277896
C37   C     C_3   0.661579 0.760053 0.052974 -0.284295
C38   C     C_3   0.376837 0.930436 0.968924 -0.244027
C39   C     C_3   0.190732 0.237388 0.051439 -0.276522
C40   C     C_3   0.876619 0.440001 0.970143 -0.239945
C41   C     C_R   0.749367 0.940993 0.072902 0.050608
C42   C     C_R   0.248501 0.907529 0.919757 0.009438
C43   C     C_R   0.241619 0.455857 0.068893 0.041425
C44   C     C_R   0.749283 0.407992 0.920048 0.011939
C45   C     C_R   0.533144 0.154525 0.145398 0.603276
C46   C     C_R   0.469887 0.157607 0.852424 0.561508
C47   C     C_R   0.033548 0.654390 0.145200 0.603667
C48   C     C_R   0.970014 0.657567 0.852352 0.561785
C49   C     C_R   0.481861 0.163089 0.569528 0.018042
C50   C     C_R   0.494857 0.163058 0.420786 0.023517
C51   C     C_R   0.981867 0.663089 0.569530 0.018102
C52   C     C_R   0.994851 0.663064 0.420785 0.023617
C53   C     C_R   0.475695 0.055240 0.530472 0.038615
C54   C     C_R   0.481485 0.054408 0.457879 0.028320
C55   C     C_R   0.975683 0.555245 0.530469 0.038579
C56   C     C_R   0.981463 0.554414 0.457875 0.028387
C57   C     C_R   0.487868 0.274383 0.457599 -0.169184
C58   C     C_R   0.483100 0.274419 0.532149 -0.168233
C59   C     C_R   0.987877 0.774389 0.457602 -0.169196
C60   C     C_R   0.983117 0.774422 0.532153 -0.168216
C61   C     C_3   0.513521 0.937038 0.539417 -0.277305
C62   C     C_3   0.519515 0.934192 0.459300 -0.269808
C63   C     C_3   0.013476 0.437002 0.539404 -0.277200
C64   C     C_3   0.019455 0.434151 0.459285 -0.269854
C65   C     C_R   0.748340 0.922484 0.578545 0.015806
C66   C     C_R   0.250780 0.935641 0.418847 0.021174
C67   C     C_R   0.248335 0.422497 0.578549 0.015773
C68   C     C_R   0.750779 0.435639 0.418848 0.021292
C69   C     C_R   0.784333 0.017850 0.545368 0.017779
C70   C     C_R   0.202007 0.006808 0.456340 0.023113
C71   C     C_R   0.284327 0.517863 0.545373 0.017903
C72   C     C_R   0.702008 0.506814 0.456340 0.023114
C73   C     C_R   0.784148 0.026697 0.472548 0.040183
C74   C     C_R   0.205337 0.015413 0.528966 0.029727
C75   C     C_R   0.284143 0.526709 0.472552 0.040064
C76   C     C_R   0.705335 0.515409 0.528967 0.029808
C77   C     C_R   0.702788 0.859498 0.462942 -0.172686
C78   C     C_R   0.314016 0.904960 0.529203 -0.152898
C79   C     C_R   0.202777 0.359520 0.462947 -0.172774
C80   C     C_R   0.814010 0.404938 0.529206 -0.152927
C81   C     C_R   0.702713 0.849712 0.537103 -0.164823
C82   C     C_R   0.311183 0.896675 0.454758 -0.153028
C83   C     C_R   0.202704 0.349732 0.537108 -0.164817
C84   C     C_R   0.811179 0.396661 0.454761 -0.152984
C85   C     C_3   0.859267 0.058303 0.549733 -0.268464
C86   C     C_3   0.123517 0.001047 0.458559 -0.270374
C87   C     C_3   0.359258 0.558323 0.549737 -0.268506
C88   C     C_3   0.623514 0.501084 0.458553 -0.270358
C89   C     C_R   0.741052 0.971789 0.146855 0.587407
C90   C     C_R   0.258786 0.968148 0.851991 0.543556
C91   C     C_R   0.239340 0.476979 0.144799 0.586079
C92   C     C_R   0.758933 0.468451 0.852146 0.550338
C93   C     C_3   0.859365 0.063254 0.469388 -0.265685
C94   C     C_3   0.127925 0.010842 0.538514 -0.276116
C95   C     C_3   0.359357 0.563272 0.469392 -0.265678
C96   C     C_3   0.627921 0.510859 0.538510 -0.276137
C97   C     C_R   0.747342 0.943915 0.429910 0.023117
C98   C     C_R   0.257188 0.955137 0.567187 0.018488
C99   C     C_R   0.247336 0.443929 0.429914 0.022764
C100  C     C_R   0.757182 0.455121 0.567189 0.018630
C101  C     C_R   0.730138 0.381144 0.351423 0.547594
C102  C     C_R   0.270065 0.378660 0.647799 0.543925
C103  C     C_R   0.230138 0.881145 0.351423 0.547270
C104  C     C_R   0.770067 0.878656 0.647797 0.543085
C105  C     C_R   0.531042 0.156832 0.352776 0.564413
C106  C     C_R   0.465277 0.156866 0.644791 0.548153
C107  C     C_R   0.031041 0.656832 0.352776 0.564705
C108  C     C_R   0.965281 0.656867 0.644793 0.547995
C109  C     C_R   0.741091 0.973333 0.355220 0.560778
C110  C     C_R   0.260479 0.977818 0.643088 0.549229
C111  C     C_R   0.241090 0.473338 0.355222 0.561370
C112  C     C_R   0.760477 0.477809 0.643091 0.548524
C113  C     C_R   0.504488 0.175514 0.921828 0.018807
C114  C     C_R   0.509879 0.160360 0.070861 0.017414
C115  C     C_R   0.005118 0.675520 0.921539 0.018948
C116  C     C_R   0.011089 0.659929 0.070481 0.016670
C117  C     C_R   0.493127 0.283821 0.963841 -0.006968
C118  C     C_R   0.485501 0.269617 0.038943 -0.019804
C119  C     C_R   0.993219 0.783351 0.963729 -0.004781
C120  C     C_R   0.985631 0.768606 0.038741 -0.018359
C121  C     C_R   0.531610 0.062724 0.027566 -0.166811
C122  C     C_R   0.528401 0.069620 0.954639 -0.172592
C123  C     C_R   0.034270 0.563185 0.027068 -0.166784
C124  C     C_R   0.030350 0.570146 0.954071 -0.171100
Cr1   Cr    Cr6+3 0.772010 0.169670 0.250090 1.039323
Cr2   Cr    Cr6+3 0.227990 0.169670 0.749910 1.043565
Cr3   Cr    Cr6+3 0.272010 0.669670 0.250090 1.039675
Cr4   Cr    Cr6+3 0.727990 0.669670 0.749910 1.045155
Cr5   Cr    Cr6+3 0.615000 0.323260 0.249260 1.053584
Cr6   Cr    Cr6+3 0.385000 0.323260 0.750740 1.084686
Cr7   Cr    Cr6+3 0.115000 0.823260 0.249260 1.052481
Cr8   Cr    Cr6+3 0.885000 0.823260 0.750740 1.086840
Cr9   Cr    Cr6+3 0.616710 0.010760 0.250840 1.014631
Cr10  Cr    Cr6+3 0.383290 0.010760 0.749160 1.019851
Cr11  Cr    Cr6+3 0.116710 0.510760 0.250840 1.018571
Cr12  Cr    Cr6+3 0.883290 0.510760 0.749160 1.021905
H1    H     H_    0.551513 0.979037 0.050099 0.137499
H2    H     H_    0.540352 0.988308 0.923865 0.133531
H3    H     H_    0.055758 0.480119 0.049530 0.149725
H4    H     H_    0.043017 0.489388 0.923064 0.141554
H5    H     H_    0.492179 0.360345 0.429679 0.121452
H6    H     H_    0.483484 0.360314 0.560502 0.121775
H7    H     H_    0.992199 0.860350 0.429684 0.121352
H8    H     H_    0.983516 0.860316 0.560508 0.121763
H9    H     H_    0.979791 0.363034 0.560927 0.134199
H10   H     H_    0.074368 0.441559 0.440977 0.171658
H11   H     H_    0.479855 0.863044 0.560935 0.134170
H12   H     H_    0.574422 0.941661 0.440999 0.171795
H13   H     H_    0.564695 0.948562 0.566901 0.144181
H14   H     H_    0.488666 0.859225 0.434329 0.126357
H15   H     H_    0.064660 0.448475 0.566880 0.144330
H16   H     H_    0.988573 0.359214 0.434317 0.126335
H17   H     H_    0.669738 0.799409 0.431625 0.124570
H18   H     H_    0.359010 0.869023 0.556911 0.127616
H19   H     H_    0.169727 0.299432 0.431631 0.124496
H20   H     H_    0.859002 0.368994 0.556916 0.127597
H21   H     H_    0.671878 0.777968 0.561145 0.140443
H22   H     H_    0.353098 0.852186 0.426102 0.119212
H23   H     H_    0.171868 0.277988 0.561150 0.140464
H24   H     H_    0.853096 0.352172 0.426106 0.119249
H25   H     H_    0.895276 0.988096 0.570589 0.164228
H26   H     H_    0.103896 0.910754 0.441040 0.168263
H27   H     H_    0.395269 0.488122 0.570595 0.164191
H28   H     H_    0.603878 0.410800 0.441026 0.168237
H29   H     H_    0.864621 0.149591 0.575205 0.130603
H30   H     H_    0.098522 0.081687 0.433108 0.131185
H31   H     H_    0.364609 0.649611 0.575208 0.130638
H32   H     H_    0.598532 0.581746 0.433106 0.131237
H33   H     H_    0.867178 0.156194 0.448056 0.138143
H34   H     H_    0.105874 0.097583 0.559629 0.137926
H35   H     H_    0.367167 0.656209 0.448059 0.138170
H36   H     H_    0.605877 0.597603 0.559630 0.137857
H37   H     H_    0.892619 0.991892 0.444286 0.142925
H38   H     H_    0.110456 0.926761 0.566583 0.146109
H39   H     H_    0.392612 0.491913 0.444291 0.143006
H40   H     H_    0.610442 0.426775 0.566572 0.146055
H41   H     H_    0.958272 0.091441 0.957417 0.143422
H42   H     H_    0.921551 0.052142 0.079752 0.152767
H43   H     H_    0.461175 0.592939 0.957374 0.141369
H44   H     H_    0.424897 0.555267 0.080008 0.148431
H45   H     H_    0.795371 0.118511 0.048957 0.142433
H46   H     H_    0.136807 0.931507 0.920684 0.199467
H47   H     H_    0.306275 0.615685 0.048413 0.140646
H48   H     H_    0.637110 0.420486 0.919438 0.198289
H49   H     H_    0.800387 0.086928 0.921453 0.139859
H50   H     H_    0.123927 0.905647 0.047566 0.152278
H51   H     H_    0.311765 0.584872 0.920540 0.144205
H52   H     H_    0.623915 0.395710 0.046802 0.152660
H53   H     H_    0.242851 0.169323 0.954944 0.151238
H54   H     H_    0.907962 0.359361 0.072695 0.139440
H55   H     H_    0.665388 0.651858 0.954028 0.176608
H56   H     H_    0.407026 0.847106 0.071096 0.137576
H57   H     H_    0.616593 0.799641 0.947187 0.133794
H58   H     H_    0.366610 0.003301 0.078106 0.157157
H59   H     H_    0.144795 0.181425 0.948799 0.165116
H60   H     H_    0.863848 0.512476 0.079130 0.163494
H61   H     H_    0.618077 0.815310 0.075108 0.142440
H62   H     H_    0.376977 0.028050 0.952490 0.155294
H63   H     H_    0.138789 0.213879 0.074443 0.143713
H64   H     H_    0.874829 0.537460 0.953490 0.157953
H65   H     H_    0.670621 0.671527 0.080483 0.157402
H66   H     H_    0.418839 0.872709 0.945359 0.147738
H67   H     H_    0.236605 0.199410 0.080457 0.158347
H68   H     H_    0.919913 0.384813 0.946989 0.149967
O1    O     O_R   0.787520 0.042810 0.170440 -0.488366
O2    O     O_R   0.212480 0.042810 0.829560 -0.496511
O3    O     O_R   0.287520 0.542810 0.170440 -0.485220
O4    O     O_R   0.712480 0.542810 0.829560 -0.493427
O5    O     O_R   0.556610 0.252880 0.323980 -0.492226
O6    O     O_R   0.443390 0.252880 0.676020 -0.491510
O7    O     O_R   0.056610 0.752880 0.323980 -0.492365
O8    O     O_R   0.943390 0.752880 0.676020 -0.491901
O9    O     O_R   0.545950 0.051210 0.330860 -0.524304
O10   O     O_R   0.454050 0.051210 0.669140 -0.520032
O11   O     O_R   0.045950 0.551210 0.330860 -0.524327
O12   O     O_R   0.954050 0.551210 0.669140 -0.519997
O13   O     O_R   0.681390 0.959480 0.325510 -0.512219
O14   O     O_R   0.318610 0.959480 0.674490 -0.509885
O15   O     O_R   0.181390 0.459480 0.325510 -0.512114
O16   O     O_R   0.818610 0.459480 0.674490 -0.510429
O17   O     O_3   0.667900 0.167900 0.250060 -0.268692
O18   O     O_3   0.332100 0.167900 0.749940 -0.267310
O19   O     O_3   0.167900 0.667900 0.250060 -0.270917
O20   O     O_3   0.832100 0.667900 0.749940 -0.267085
O21   O     O_R   0.765640 0.292100 0.175020 -0.506175
O22   O     O_R   0.234360 0.292100 0.824980 -0.504540
O23   O     O_R   0.265640 0.792100 0.175020 -0.506772
O24   O     O_R   0.734360 0.792100 0.824980 -0.503662
O25   O     O_R   0.670190 0.408840 0.168540 -0.525025
O26   O     O_R   0.329810 0.408840 0.831460 -0.493256
O27   O     O_R   0.170190 0.908840 0.168540 -0.524453
O28   O     O_R   0.829810 0.908840 0.831460 -0.490251
O29   O     O_R   0.556620 0.251410 0.175160 -0.456985
O30   O     O_R   0.443380 0.251410 0.824840 -0.433949
O31   O     O_R   0.056620 0.751410 0.175160 -0.457522
O32   O     O_R   0.943380 0.751410 0.824840 -0.433267
O33   O     O_R   0.545960 0.049620 0.170320 -0.533769
O34   O     O_R   0.454040 0.049620 0.829680 -0.536723
O35   O     O_R   0.045960 0.549620 0.170320 -0.531486
O36   O     O_R   0.954040 0.549620 0.829680 -0.536141
O37   O     O_R   0.681390 0.958010 0.176690 -0.515089
O38   O     O_R   0.318610 0.958010 0.823310 -0.503114
O39   O     O_R   0.181390 0.458010 0.176690 -0.508872
O40   O     O_R   0.818610 0.458010 0.823310 -0.503469
O41   O     O_R   0.787510 0.044390 0.330970 -0.499800
O42   O     O_R   0.212490 0.044390 0.669030 -0.505694
O43   O     O_R   0.287510 0.544390 0.330970 -0.498943
O44   O     O_R   0.712490 0.544390 0.669030 -0.506346
O45   O     O_R   0.765630 0.293570 0.323840 -0.505701
O46   O     O_R   0.234370 0.293570 0.676160 -0.511500
O47   O     O_R   0.265630 0.793570 0.323840 -0.505834
O48   O     O_R   0.734370 0.793570 0.676160 -0.512442
O49   O     O_R   0.670190 0.410420 0.329080 -0.522547
O50   O     O_R   0.329810 0.410420 0.670920 -0.519221
O51   O     O_R   0.170190 0.910420 0.329080 -0.522656
O52   O     O_R   0.829810 0.910420 0.670920 -0.519572
Cl1   Cl    Cl    0.520441 0.450839 0.851311 -0.632471
Cl2   Cl    Cl    0.415834 0.343266 0.163338 -0.614403
Cl3   Cl    Cl    0.019865 0.951320 0.851612 -0.632160
Cl4   Cl    Cl    0.915136 0.839953 0.163184 -0.612837

loop_
_geom_bond_atom_site_label_1
_geom_bond_atom_site_label_2
_ccdc_geom_bond_type
C25   C41   A    
C87   H27   S    
C55   C56   A    
C88   C96   S    
C67   C83   A    
C98   C110  S    
C116  C123  A    
C39   H67   S    
Cr2   O42   S    
C103  O51   A    
C14   C18   A    
C7    Cl3   S    
C86   H30   S    
C73   C93   S    
C72   C76   A    
Cr4   O20   S    
C84   H24   S    
C75   C95   S    
C123  C124  A    
C74   C98   A    
C22   C42   A    
C53   C54   A    
C65   C69   A    
C15   C19   A    
Cr8   O8    S    
C8    C120  A    
Cr4   O48   S    
C17   C33   S    
C64   H16   S    
C59   H7    S    
C36   H54   S    
C30   H50   S    
C13   C29   A    
C65   C104  S    
C45   O29   A    
C33   H55   S    
C5    C11   A    
Cr7   O19   S    
C6    C12   A    
C82   H22   S    
Cr7   O51   S    
C101  O49   A    
C107  O7    A    
Cr6   O26   S    
C11   H43   S    
Cr7   O27   S    
Cr11  O19   S    
C22   C38   S    
C123  H3    S    
C105  O5    A    
Cr6   O30   S    
C112  O44   A    
C121  H1    S    
C4    C13   S    
Cr3   O3    S    
C85   H25   S    
Cr10  O38   S    
C95   H39   S    
C86   C94   S    
Cr9   O37   S    
C79   C99   A    
C114  C121  A    
C85   C93   S    
C45   C114  S    
C89   O1    A    
C113  C122  A    
C40   H68   S    
C52   C107  S    
C29   H49   S    
C51   C108  S    
Cr10  O18   S    
C55   C63   S    
C70   C74   A    
C50   C105  S    
Cr9   O17   S    
C56   C64   S    
C69   C73   A    
C99   C111  S    
C86   H26   S    
C37   H61   S    
Cr1   O45   S    
C96   H40   S    
C9    C10   A    
C67   C102  S    
Cr3   O47   S    
C44   C92   S    
C16   C20   A    
C58   H6    S    
C77   H17   S    
C34   H58   S    
Cr2   O46   S    
C46   O34   A    
C72   C88   S    
C109  O41   A    
C59   C60   A    
C35   H53   S    
C62   H12   S    
C80   C100  A    
Cr3   O23   S    
Cr10  O34   S    
Cr8   O20   S    
Cr2   O22   S    
Cr9   O33   S    
C14   C30   A    
C111  O15   A    
Cr1   O21   S    
Cr8   O28   S    
C75   C99   A    
C34   C38   S    
C108  O8    A    
Cr1   O1    S    
C25   H45   S    
C5    Cl1   S    
C80   H20   S    
C47   O31   A    
Cr11  O39   S    
C25   C29   A    
C47   C116  S    
C106  O10   A    
Cr11  O11   S    
C71   C75   A    
C105  O9    A    
C32   H52   S    
C27   C31   A    
C80   C84   A    
C10   H42   S    
C20   C24   A    
C76   C100  A    
C28   C32   A    
Cr6   O18   S    
C81   H21   S    
C68   C101  S    
C122  H2    S    
Cr5   O17   S    
Cr3   O19   S    
C3    O27   A    
Cr12  O40   S    
C19   C23   A    
C78   H18   S    
C20   C36   S    
C54   C62   S    
C51   C55   A    
Cr7   O31   S    
C42   C90   S    
Cr10  O14   S    
C79   H19   S    
C15   C31   A    
C28   C44   A    
C43   C91   S    
C49   C58   A    
C116  C120  A    
Cr5   O29   S    
C68   C72   A    
C102  O50   A    
C68   C84   A    
C8    Cl4   S    
C35   C39   S    
C17   C21   A    
C36   H60   S    
C78   C98   A    
C92   O4    A    
C52   C59   A    
C7    C119  A    
C66   C82   A    
C97   C109  S    
C78   C82   A    
C65   C81   A    
Cr12  O20   S    
C36   C40   S    
Cr4   O24   S    
Cr3   O43   S    
Cr11  O15   S    
C46   O30   A    
C38   H62   S    
C112  O16   A    
Cr1   O17   S    
C83   H23   S    
C1    C16   S    
C108  O12   A    
Cr5   O25   S    
C77   C97   A    
C2    C15   S    
C18   C34   S    
C63   H15   S    
C121  C122  A    
C114  C118  A    
Cr4   O44   S    
C38   H66   S    
C94   H38   S    
C48   C115  S    
C21   C41   A    
C26   H46   S    
C45   O33   A    
C8    C10   A    
C103  O47   A    
C12   H44   S    
Cr5   O49   S    
C73   C97   A    
C115  C119  A    
C94   H34   S    
C90   O38   A    
C102  O46   A    
Cr7   O7    S    
C24   C44   A    
C89   O37   A    
Cr6   O6    S    
C3    C14   S    
Cr8   O52   S    
Cr5   O5    S    
C70   C86   S    
C3    O23   A    
C9    H41   S    
C26   C42   A    
C4    O28   A    
C33   C37   S    
C113  C117  A    
C1    O21   A    
C104  O48   A    
C7    C9    A    
C27   C43   A    
C39   H63   S    
C87   C95   S    
C93   H33   S    
C115  C124  A    
C62   H14   S    
C46   C113  S    
C64   H10   S    
C41   C89   S    
C18   C22   A    
C50   C57   A    
C66   C103  S    
C69   C85   S    
C101  O45   A    
C124  H4    S    
C90   O2    A    
C91   O39   A    
C63   C64   S    
Cr6   O50   S    
C107  O11   A    
Cr10  O10   S    
C91   O3    A    
C119  C120  A    
Cr2   O18   S    
C100  C112  S    
C49   C106  S    
Cr12  O16   S    
C35   H59   S    
C16   C32   A    
C87   H31   S    
C40   H64   S    
C48   O36   A    
C104  O52   A    
C57   H5    S    
C6    Cl2   S    
C85   H29   S    
Cr12  O36   S    
C61   H11   S    
Cr9   O9    S    
C50   C54   A    
C88   H28   S    
C117  C118  A    
C60   H8    S    
C79   C83   A    
C92   O40   A    
C110  O42   A    
C57   C58   A    
C66   C70   A    
C61   H13   S    
C34   H56   S    
Cr2   O2    S    
C23   C39   S    
C88   H32   S    
C93   H37   S    
C48   O32   A    
C47   O35   A    
Cr11  O35   S    
C67   C71   A    
C53   C61   S    
C4    O24   A    
C28   H48   S    
C61   C62   S    
C110  O14   A    
C27   H47   S    
C24   C40   S    
C49   C53   A    
C109  O13   A    
C2    O26   A    
C33   H57   S    
C13   C17   A    
Cr8   O32   S    
C1    O25   A    
C21   C37   S    
C2    O22   A    
C111  O43   A    
C77   C81   A    
C96   H36   S    
C5    C117  A    
C74   C94   S    
C37   H65   S    
C71   C87   S    
C19   C35   S    
C51   C60   A    
Cr4   O4    S    
Cr1   O41   S    
C31   H51   S    
C23   C43   A    
C95   H35   S    
C63   H9    S    
C76   C96   S    
C52   C56   A    
C11   C12   A    
C6    C118  A    
Cr9   O13   S    
Cr12  O12   S    
C26   C30   A    
C106  O6    A    
