data_mof_unit_3217.cif
_audit_creation_date              2012-12-11T16:11:11-0500
_audit_creation_method            fapswitch 2.2
_symmetry_space_group_name_H-M    P1
_symmetry_Int_Tables_number       1
_space_group_crystal_system       triclinic
_cell_length_a                    12.803909
_cell_length_b                    13.304673
_cell_length_c                    26.957275
_cell_angle_alpha                 97.404629
_cell_angle_beta                  89.922348
_cell_angle_gamma                 118.961431
_cell_volume                      3974.56289681

loop_
_atom_site_label
_atom_site_type_symbol
_atom_type_description
_atom_site_fract_x
_atom_site_fract_y
_atom_site_fract_z
_atom_type_partial_charge
C1    C     C_R   0.628280 0.894676 0.424384 0.541826
C2    C     C_R   0.602910 0.375900 0.236378 -0.121127
C3    C     C_R   0.585968 0.350788 0.285444 0.003575
C4    C     C_R   0.683616 0.363706 0.315040 0.015324
C5    C     C_R   0.714325 0.411933 0.216511 0.016407
C6    C     C_1   0.725246 0.439149 0.166390 -0.059608
C7    C     C_1   0.665744 0.324988 0.363092 -0.055457
C8    C     C_1   0.731544 0.462212 0.124552 -0.010427
C9    C     C_1   0.113511 0.806180 0.135219 -0.004814
C10   C     C_1   0.140427 0.826024 0.179540 -0.040027
C11   C     C_1   0.161465 0.840700 0.231912 -0.010336
C12   C     C_R   0.602516 0.224393 0.443557 0.547549
C13   C     C_1   0.176348 0.848042 0.276576 -0.019166
C14   C     C_1   0.196253 0.853635 0.328472 -0.053020
C15   C     C_1   0.221783 0.860402 0.372168 -0.008756
C16   C     C_1   0.688752 0.798289 0.136241 -0.011538
C17   C     C_1   0.672305 0.807655 0.180097 -0.045470
C18   C     C_1   0.661511 0.816838 0.232188 -0.004056
C19   C     C_1   0.656210 0.826204 0.276939 -0.003779
C20   C     C_1   0.651041 0.841787 0.329301 -0.044449
C21   C     C_1   0.643844 0.861549 0.373574 -0.009276
C22   C     C_1   0.693968 0.384038 0.874866 -0.012885
C23   C     C_R   0.268690 0.875792 0.422376 0.543701
C24   C     C_1   0.685113 0.357339 0.830112 -0.053520
C25   C     C_1   0.676666 0.336387 0.777379 -0.019039
C26   C     C_1   0.668133 0.321276 0.732294 -0.012120
C27   C     C_1   0.653731 0.300655 0.679586 -0.042429
C28   C     C_1   0.635006 0.274431 0.634838 -0.006048
C29   C     C_1   0.217902 0.864373 0.609507 -0.012132
C30   C     C_R   0.206638 0.772737 0.725022 -0.110683
C31   C     C_R   0.206188 0.770716 0.776737 -0.004525
C32   C     C_R   0.144209 0.919969 0.786429 -0.002775
C33   C     C_R   0.147262 0.921039 0.734485 -0.113177
C34   C     C_R   0.631008 0.898153 0.563419 0.548270
C35   C     C_R   0.176060 0.846249 0.704036 0.009565
C36   C     C_R   0.171609 0.842403 0.807547 0.019933
C37   C     C_1   0.148819 0.824501 0.858792 -0.056144
C38   C     C_1   0.191538 0.855160 0.652002 -0.058431
C39   C     C_1   0.116459 0.801417 0.899600 -0.012481
C40   C     C_1   0.654864 0.860108 0.606694 -0.009708
C41   C     C_R   0.762667 0.911741 0.732331 0.008197
C42   C     C_R   0.761378 0.893709 0.782253 -0.110056
C43   C     C_R   0.622269 0.688506 0.758630 -0.101355
C44   C     C_R   0.619557 0.705691 0.708815 -0.117953
C45   C     C_R   0.602999 0.227182 0.582998 0.542664
C46   C     C_R   0.689320 0.816653 0.695530 0.026714
C47   C     C_R   0.692658 0.782913 0.795224 0.023978
C48   C     C_1   0.701908 0.767044 0.845962 -0.079265
C49   C     C_1   0.671895 0.835800 0.645996 -0.058315
C50   C     C_1   0.717946 0.758989 0.888653 -0.036735
C51   C     C_R   0.065098 0.771792 0.084267 0.538761
C52   C     C_R   0.737942 0.492402 0.075459 0.561555
C53   C     C_R   0.719823 0.782231 0.086082 0.549043
C54   C     C_R   0.061047 0.765577 0.944650 0.540804
C55   C     C_R   0.709473 0.431887 0.926631 0.547835
C56   C     C_R   0.268083 0.879521 0.562153 0.544387
C57   C     C_R   0.745394 0.752915 0.938793 0.559014
C58   C     C_1   0.641772 0.284081 0.401358 -0.009244
C59   C     C_R   0.795426 0.400329 0.295372 -0.121968
C60   C     C_R   0.812214 0.423916 0.245842 0.005815
Cr1   Cr    Cr6+3 0.416010 0.828400 0.490230 1.026193
Cr2   Cr    Cr6+3 0.676380 0.087280 0.505260 1.032748
Cr3   Cr    Cr6+3 0.407590 0.084280 0.504540 1.029558
Cr4   Cr    Cr6+3 0.914090 0.832340 0.018020 1.015453
Cr5   Cr    Cr6+3 0.923310 0.576840 0.003860 1.022940
Cr6   Cr    Cr6+3 0.654200 0.573160 0.004700 1.022164
H1    H     H_    0.868452 0.406018 0.318102 0.114180
H2    H     H_    0.815472 0.966072 0.810988 0.118538
H3    H     H_    0.569125 0.602324 0.768640 0.118238
H4    H     H_    0.561634 0.633005 0.680800 0.114741
H5    H     H_    0.528554 0.367148 0.213448 0.117740
H6    H     H_    0.234837 0.719469 0.701115 0.117027
H7    H     H_    0.128058 0.980816 0.717814 0.111962
O1    O     O_R   0.294740 0.800910 0.434410 -0.509751
O2    O     O_R   0.664100 0.185180 0.560770 -0.492052
O3    O     O_R   0.500290 0.202770 0.565360 -0.509865
O4    O     O_R   0.310570 0.979360 0.548520 -0.495470
O5    O     O_3   0.499990 0.999990 0.500010 -0.248433
O6    O     O_R   0.819910 0.858260 0.073860 -0.498652
O7    O     O_R   0.018180 0.827180 0.067430 -0.495082
O8    O     O_R   0.044260 0.672570 0.062730 -0.509285
O9    O     O_R   0.818270 0.481940 0.049130 -0.490222
O10   O     O_R   0.635480 0.460400 0.052590 -0.501865
O11   O     O_R   0.662650 0.681410 0.060750 -0.505347
O12   O     O_R   0.526010 0.837250 0.440870 -0.496403
O13   O     O_R   0.814500 0.852290 0.965490 -0.514853
O14   O     O_R   0.013160 0.821640 0.966980 -0.510507
O15   O     O_R   0.038850 0.666600 0.954370 -0.500913
O16   O     O_R   0.813260 0.476410 0.948680 -0.490339
O17   O     O_R   0.630060 0.454430 0.944230 -0.508945
O18   O     O_R   0.657630 0.675880 0.960300 -0.491582
O19   O     O_3   0.830530 0.660780 0.008860 -0.290185
O20   O     O_R   0.704290 0.994500 0.446090 -0.507313
O21   O     O_R   0.662870 0.181760 0.460430 -0.495946
O22   O     O_R   0.498970 0.199080 0.457120 -0.504348
O23   O     O_R   0.309350 0.975930 0.448180 -0.491020
O24   O     O_R   0.296060 0.804610 0.542650 -0.506778
O25   O     O_R   0.527240 0.840670 0.541200 -0.496352
O26   O     O_R   0.705610 0.998200 0.554330 -0.504159
C61   C     C_R   0.931221 0.457895 0.225732 0.031052
C62   C     C_R   0.941256 0.400901 0.179726 -0.080656
C63   C     C_R   0.053605 0.432422 0.161447 -0.099083
C64   C     C_R   0.157042 0.519687 0.189180 -0.095481
C65   C     C_R   0.148332 0.575282 0.235336 -0.101694
C66   C     C_R   0.036104 0.544748 0.253576 -0.094235
H8    H     H_    0.862403 0.331102 0.158242 0.118246
H9    H     H_    0.060496 0.388534 0.125921 0.114804
H10   H     H_    0.243968 0.543748 0.175051 0.116218
H11   H     H_    0.228601 0.642395 0.256941 0.122006
H12   H     H_    0.030998 0.589318 0.289283 0.112823
C67   C     C_R   0.464678 0.307040 0.304172 0.032965
C68   C     C_R   0.446522 0.363528 0.348369 -0.079891
C69   C     C_R   0.332270 0.320867 0.366129 -0.099205
C70   C     C_R   0.235344 0.221987 0.339866 -0.094157
C71   C     C_R   0.252408 0.165785 0.295698 -0.102378
C72   C     C_R   0.366487 0.208132 0.277793 -0.094495
H13   H     H_    0.520706 0.440570 0.368971 0.110523
H14   H     H_    0.318871 0.364529 0.400253 0.110050
H15   H     H_    0.146999 0.189021 0.353697 0.114740
H16   H     H_    0.177262 0.089248 0.275378 0.120427
H17   H     H_    0.378525 0.163107 0.243722 0.112027
C73   C     C_R   0.246725 0.696298 0.797590 0.037884
C74   C     C_R   0.197794 0.578416 0.777438 -0.096905
C75   C     C_R   0.240682 0.510189 0.795367 -0.119346
C76   C     C_R   0.332759 0.559007 0.833417 -0.104470
C77   C     C_R   0.381752 0.675965 0.853735 -0.098041
C78   C     C_R   0.339375 0.744569 0.835848 -0.081058
H18   H     H_    0.126676 0.539526 0.747839 0.097185
H19   H     H_    0.202892 0.419627 0.779565 0.107808
H20   H     H_    0.366595 0.506492 0.847055 0.109308
H21   H     H_    0.453261 0.713749 0.883097 0.126554
H22   H     H_    0.380056 0.835692 0.851265 0.112642
C79   C     C_R   0.118048 0.004662 0.817633 0.032509
C80   C     C_R   0.025018 0.968147 0.850277 -0.084219
C81   C     C_R   0.003458 0.049531 0.880008 -0.118507
C82   C     C_R   0.072439 0.167572 0.876553 -0.104832
C83   C     C_R   0.163733 0.204562 0.843629 -0.102111
C84   C     C_R   0.186606 0.123730 0.814288 -0.092858
H23   H     H_    0.968337 0.876802 0.852366 0.117883
H24   H     H_    0.931902 0.020918 0.905126 0.139285
H25   H     H_    0.054937 0.230327 0.899270 0.115708
H26   H     H_    0.217263 0.295946 0.841046 0.103334
H27   H     H_    0.258572 0.154101 0.789315 0.107397
C85   C     C_R   0.841570 0.030045 0.719868 0.035646
C86   C     C_R   0.924660 0.047402 0.683268 -0.084050
C87   C     C_R   0.001398 0.159202 0.672611 -0.104855
C88   C     C_R   0.996329 0.254549 0.698506 -0.104515
C89   C     C_R   0.914792 0.238354 0.735254 -0.105858
C90   C     C_R   0.837768 0.126673 0.746018 -0.089102
H28   H     H_    0.930956 0.974591 0.663415 0.107629
H29   H     H_    0.065205 0.171965 0.644412 0.109807
H30   H     H_    0.055896 0.341000 0.690206 0.101801
H31   H     H_    0.911415 0.312394 0.755452 0.116701
H32   H     H_    0.774940 0.115505 0.774558 0.108602

loop_
_geom_bond_atom_site_label_1
_geom_bond_atom_site_label_2
_ccdc_geom_bond_type
Cr5   O19   S    
C66   H12   S    
C1    C21   S    
C62   C63   A    
C41   C42   A    
C67   C68   A    
C9    C51   S    
C83   H26   S    
C70   C71   A    
Cr5   O9    S    
C22   C55   S    
C81   C82   A    
Cr6   O17   S    
C54   O14   A    
C57   O13   A    
Cr5   O16   S    
C46   C49   S    
C61   C66   A    
C77   C78   A    
C30   C35   A    
C53   O11   A    
C34   C40   S    
C5    C6    S    
C32   C36   A    
C36   C37   S    
C53   O6    A    
C69   C70   A    
C55   O17   A    
C84   H27   S    
C32   C79   S    
C39   C54   S    
Cr3   O3    S    
C40   C49   T    
Cr3   O22   S    
C23   O23   A    
C18   C19   T    
C73   C78   A    
C78   H22   S    
C68   C69   A    
C59   H1    S    
Cr6   O10   S    
C16   C53   S    
C76   H20   S    
C88   C89   A    
C3    C67   S    
C16   C17   T    
C29   C38   T    
C41   C46   A    
C12   O22   A    
C44   H4    S    
C64   H10   S    
C57   O18   A    
C9    C10   T    
C8    C52   S    
C7    C58   T    
C70   H15   S    
C12   C58   S    
C15   C23   S    
C48   C50   T    
C76   C77   A    
C59   C60   A    
C43   H3    S    
C13   C14   S    
C42   H2    S    
Cr4   O7    S    
C12   O21   A    
C56   O24   A    
C4    C7    S    
Cr4   O13   S    
C65   C66   A    
C44   C46   A    
C86   C87   A    
C1    O12   A    
C81   H24   S    
C28   C45   S    
C72   H17   S    
C74   C75   A    
C35   C38   S    
C89   C90   A    
C41   C85   S    
C80   H23   S    
C82   C83   A    
Cr6   O19   S    
C25   C26   T    
Cr3   O23   S    
C1    O20   A    
C56   O4    A    
Cr2   O26   S    
C87   H29   S    
C52   O10   A    
C90   H32   S    
C85   C90   A    
Cr5   O8    S    
C47   C48   S    
Cr1   O5    S    
C17   C18   S    
C26   C27   S    
C63   H9    S    
C24   C25   S    
C52   O9    A    
Cr6   O18   S    
Cr1   O12   S    
C6    C8    T    
C33   H7    S    
Cr2   O21   S    
C43   C44   A    
C79   C80   A    
Cr4   O6    S    
C22   C24   T    
Cr2   O2    S    
C2    C5    A    
C89   H31   S    
Cr4   O19   S    
C23   O1    A    
C2    H5    S    
C27   C28   T    
Cr5   O15   S    
C87   C88   A    
Cr3   O4    S    
C62   H8    S    
C51   O8    A    
C30   C31   A    
Cr4   O14   S    
C5    C60   A    
C31   C36   A    
C50   C57   S    
Cr2   O5    S    
Cr1   O24   S    
C86   H28   S    
C31   C73   S    
C85   C86   A    
C60   C61   S    
C30   H6    S    
C80   C81   A    
C29   C56   S    
Cr1   O1    S    
C34   O26   A    
C83   C84   A    
C68   H13   S    
C45   O2    A    
C67   C72   A    
C32   C33   A    
C34   O25   A    
C19   C20   S    
C2    C3    A    
C37   C39   T    
C54   O15   A    
C11   C13   T    
Cr1   O25   S    
C74   H18   S    
C65   H11   S    
C77   H21   S    
C51   O7    A    
C4    C59   A    
C45   O3    A    
C61   C62   A    
C33   C35   A    
C82   H25   S    
C75   H19   S    
C88   H30   S    
C42   C47   A    
C63   C64   A    
C10   C11   S    
Cr6   O11   S    
C69   H14   S    
C79   C84   A    
C20   C21   T    
C55   O16   A    
C71   H16   S    
Cr2   O20   S    
C64   C65   A    
C14   C15   T    
C71   C72   A    
C73   C74   A    
C43   C47   A    
C3    C4    A    
C75   C76   A    
Cr3   O5    S    
