data_mof_unit_774.cif
_audit_creation_date              2012-10-26T18:29:54-0400
_audit_creation_method            fapswitch 2.2
_symmetry_space_group_name_H-M    P1
_symmetry_Int_Tables_number       1
_space_group_crystal_system       triclinic
_cell_length_a                    10.818378
_cell_length_b                    12.974315
_cell_length_c                    11.665096
_cell_angle_alpha                 100.148448
_cell_angle_beta                  92.905216
_cell_angle_gamma                 91.219716
_cell_volume                      1608.87637275

loop_
_atom_site_label
_atom_site_type_symbol
_atom_type_description
_atom_site_fract_x
_atom_site_fract_y
_atom_site_fract_z
_atom_type_partial_charge
C1    C     C_R   0.500796 0.299108 0.478489 0.536392
C2    C     C_R   0.487090 0.030822 0.553313 0.048060
C3    C     C_R   0.523219 0.969560 0.448468 0.046360
C4    C     C_R   0.259472 0.502146 0.500758 0.548780
C5    C     C_R   0.528885 0.861568 0.439464 -0.130543
C6    C     C_R   0.467022 0.875498 0.638976 -0.133456
C7    C     C_R   0.459863 0.983453 0.648316 -0.136814
C8    C     C_R   0.399997 0.390292 0.020312 -0.172748
C9    C     C_R   0.405049 0.401573 0.143061 0.425926
C10   C     C_R   0.543093 0.549104 0.158185 0.033402
C11   C     C_R   0.539504 0.540803 0.034996 0.019142
C12   C     C_3   0.876244 0.492772 0.492275 -0.018205
C13   C     C_R   0.467584 0.459086 0.965818 -0.055433
C14   C     C_R   0.462266 0.449143 0.842974 0.041294
C15   C     C_R   0.594373 0.598613 0.855654 0.072251
C16   C     C_R   0.501595 0.700931 0.521609 0.536836
C17   C     C_R   0.604350 0.611192 0.978253 0.041523
C18   C     C_R   0.739459 0.494275 0.497394 0.559849
C19   C     C_3   0.073796 0.442030 0.597384 0.124899
C20   C     C_3   0.930836 0.447466 0.597849 -0.228653
C21   C     C_3   0.068312 0.612716 0.526401 -0.242988
C22   C     C_3   0.063927 0.435616 0.377378 0.170348
C23   C     C_3   0.926887 0.606884 0.501959 -0.249684
C24   C     C_3   0.120879 0.500299 0.498856 0.019354
C25   C     C_3   0.140837 0.419186 0.787552 0.017256
C26   C     C_3   0.021730 0.401050 0.848294 -0.289468
C27   C     C_3   0.045586 0.336799 0.944050 -0.468557
C28   C     C_3   0.347844 0.233431 0.167295 0.016448
C29   C     C_3   0.236827 0.175217 0.096137 -0.284355
C30   C     C_3   0.242940 0.057132 0.092005 -0.480018
C31   C     C_3   0.137577 0.556413 0.250101 0.075506
C32   C     C_3   0.038641 0.608176 0.183085 -0.270171
C33   C     C_3   0.088638 0.710424 0.152735 -0.481774
C34   C     C_3   0.921541 0.421330 0.380144 0.012049
C35   C     C_R   0.500100 0.814324 0.534172 -0.001762
C36   C     C_R   0.507417 0.185917 0.466867 -0.008068
C37   C     C_R   0.553118 0.017280 0.354425 -0.137181
C38   C     C_R   0.546568 0.125330 0.364132 -0.154410
C39   C     C_R   0.478689 0.138513 0.561455 -0.128834
Cu1   Cu    Cu3+1 0.509350 0.507730 0.615930 0.946923
Cu2   Cu    Cu3+1 0.490650 0.492270 0.384070 0.998481
H1    H     H_    0.110554 0.672772 0.483407 0.083397
H2    H     H_    0.099666 0.358332 0.574984 0.069794
H3    H     H_    0.643351 0.653063 0.812498 0.149803
H4    H     H_    0.340972 0.330090 0.967570 0.074600
H5    H     H_    0.599231 0.609657 0.213685 0.169972
H6    H     H_    0.890087 0.367683 0.596326 0.077730
H7    H     H_    0.904563 0.498115 0.679777 0.184038
H8    H     H_    0.088481 0.645863 0.620254 0.181982
H9    H     H_    0.883609 0.659645 0.573746 0.124148
H10   H     H_    0.098942 0.355482 0.377627 0.117116
H11   H     H_    0.901342 0.338995 0.390716 0.087440
H12   H     H_    0.902304 0.636160 0.420330 0.147682
H13   H     H_    0.210399 0.455882 0.856428 0.158405
H14   H     H_    0.179295 0.343583 0.746042 0.103906
H15   H     H_    0.983755 0.477634 0.886572 0.183618
H16   H     H_    0.951535 0.356843 0.785070 0.156554
H17   H     H_    0.079516 0.258952 0.905469 0.131561
H18   H     H_    0.957887 0.324557 0.985659 0.200674
H19   H     H_    0.114349 0.377723 0.011637 0.192018
H20   H     H_    0.356519 0.203048 0.250115 0.168373
H21   H     H_    0.434931 0.214617 0.121498 0.109129
H22   H     H_    0.149445 0.203483 0.135315 0.204318
H23   H     H_    0.555877 0.814386 0.358828 0.136616
H24   H     H_    0.236089 0.189967 0.005580 0.138193
H25   H     H_    0.329747 0.027167 0.053190 0.153314
H26   H     H_    0.162826 0.017008 0.037642 0.158228
H27   H     H_    0.239385 0.038476 0.181194 0.154198
H28   H     H_    0.218418 0.546178 0.194775 0.167362
H29   H     H_    0.173202 0.609368 0.328041 0.128794
H30   H     H_    0.008805 0.554438 0.100923 0.201473
H31   H     H_    0.957192 0.625582 0.236016 0.200100
H32   H     H_    0.117353 0.766577 0.233531 0.148095
H33   H     H_    0.015545 0.746187 0.103701 0.196915
H34   H     H_    0.444299 0.839694 0.712719 0.137350
H35   H     H_    0.169217 0.695413 0.097393 0.149563
H36   H     H_    0.582247 0.971286 0.274067 0.139177
H37   H     H_    0.432597 0.029693 0.729281 0.103644
H38   H     H_    0.572906 0.161573 0.291801 0.131633
H39   H     H_    0.449428 0.185341 0.641390 0.108982
H40   H     H_    0.408099 0.385864 0.789362 0.108278
I1    I     I_    0.826516 0.414182 0.209443 -0.417233
I2    I     I_    0.715398 0.739268 0.069806 -0.537129
N1    N     N_R   0.523430 0.519360 0.790130 -0.241641
N2    N     N_R   0.476570 0.480640 0.209880 -0.229260
O1    O     O_R   0.506640 0.354460 0.582000 -0.519503
O2    O     O_3   0.326178 0.342001 0.197135 -0.512053
O3    O     O_3   0.100468 0.454439 0.265690 -0.513119
O4    O     O_R   0.490840 0.341410 0.386200 -0.476377
O5    O     O_R   0.325590 0.506510 0.597900 -0.460176
O6    O     O_R   0.309790 0.493450 0.402100 -0.467903
O7    O     O_R   0.509160 0.658590 0.613800 -0.512558
O8    O     O_R   0.493360 0.645540 0.418000 -0.529032
O9    O     O_R   0.690210 0.506550 0.597900 -0.520323
O10   O     O_R   0.674410 0.493490 0.402100 -0.467302
O11   O     O_3   0.124887 0.490727 0.709365 -0.552518

loop_
_geom_bond_atom_site_label_1
_geom_bond_atom_site_label_2
_ccdc_geom_bond_type
Cu2   O4    S    
C29   H22   S    
C10   N2    A    
C8    C13   A    
Cu1   N1    S    
C2    C7    A    
C14   N1    A    
C21   H8    S    
C6    H34   S    
C32   H31   S    
C12   C23   S    
C26   C27   S    
C37   C38   A    
C28   C29   S    
C15   H3    S    
C27   H19   S    
C16   C35   S    
C4    C24   S    
C38   H38   S    
C6    C35   A    
Cu1   O1    S    
C8    H4    S    
C9    N2    A    
C2    C39   A    
C31   H29   S    
Cu2   O8    S    
C19   C20   S    
C8    C9    A    
C10   H5    S    
C22   O3    S    
C30   H26   S    
C4    O6    A    
C28   H20   S    
C13   C14   A    
C18   O10   A    
C19   H2    S    
C23   H12   S    
C32   H30   S    
C4    O5    A    
C22   C34   S    
C25   H13   S    
C23   H9    S    
C25   C26   S    
C37   H36   S    
C32   C33   S    
C17   I2    S    
C29   C30   S    
C33   H35   S    
C31   C32   S    
C12   C20   S    
C28   O2    S    
C16   O8    A    
C30   H25   S    
Cu1   O7    S    
C6    C7    A    
C7    H37   S    
C29   H24   S    
C33   H32   S    
Cu1   Cu2   S    
Cu2   O6    S    
C16   O7    A    
C21   C23   S    
C18   O9    A    
C22   C24   S    
C12   C34   S    
C1    O1    A    
C15   C17   A    
C11   C17   A    
C1    O4    A    
C31   O3    S    
C20   H7    S    
C36   C39   A    
C25   H14   S    
Cu1   O9    S    
C3    C5    A    
C27   H17   S    
C26   H15   S    
C15   N1    A    
Cu2   N2    S    
C34   H11   S    
C5    H23   S    
C39   H39   S    
C36   C38   A    
C2    C3    A    
C27   H18   S    
C9    O2    S    
C11   C13   A    
Cu2   O10   S    
C5    C35   A    
C19   C24   S    
C26   H16   S    
C20   H6    S    
C10   C11   A    
C21   H1    S    
C33   H33   S    
C31   H28   S    
C3    C37   A    
C25   O11   S    
C21   C24   S    
C12   C18   S    
C34   I1    S    
C14   H40   S    
Cu1   O5    S    
C30   H27   S    
C19   O11   S    
C1    C36   S    
C22   H10   S    
C28   H21   S    
