data_mof_unit_575.cif
_audit_creation_date              2013-03-05T16:54:58-0500
_audit_creation_method            fapswitch 2.2
_symmetry_space_group_name_H-M    P1
_symmetry_Int_Tables_number       1
_space_group_crystal_system       triclinic
_cell_length_a                    17.637571
_cell_length_b                    16.864615
_cell_length_c                    10.539364
_cell_angle_alpha                 94.977111
_cell_angle_beta                  92.11421
_cell_angle_gamma                 92.341267
_cell_volume                      3117.93933148

loop_
_atom_site_label
_atom_site_type_symbol
_atom_site_description
_atom_site_fract_x
_atom_site_fract_y
_atom_site_fract_z
_atom_type_partial_charge
O1    O     O_R   0.389110 0.566570 0.499990 -0.552908
O2    O     O_R   0.610890 0.433430 0.500010 -0.628856
O3    O     O_R   0.610890 0.566570 0.500010 -0.569129
O4    O     O_R   0.389110 0.433430 0.499990 -0.572214
C1    C     C_R   0.352179 0.498485 0.502294 0.904712
C2    C     C_R   0.647623 0.500726 0.498663 0.884693
O5    O     O_R   0.499990 0.566540 0.316770 -0.578076
O6    O     O_R   0.500010 0.433460 0.683230 -0.580268
O7    O     O_R   0.500010 0.566540 0.683230 -0.583863
O8    O     O_R   0.499990 0.433460 0.316770 -0.601330
C3    C     C_R   0.510769 0.496841 0.259383 0.908365
C4    C     C_R   0.491692 0.503120 0.741990 0.878236
Zn1   Zn    Zn3+2 0.500000 0.588860 0.500000 1.087265
Zn2   Zn    Zn3+2 0.500000 0.411140 0.500000 1.072889
C5    C     C_R   0.603788 0.617995 0.128691 -0.158553
C6    C     C_R   0.409938 0.377224 0.875987 -0.154395
C7    C     C_R   0.501559 0.656189 0.934293 -0.120486
C8    C     C_R   0.516343 0.342181 0.066558 -0.078920
C9    C     C_R   0.602244 0.696898 0.094969 0.210144
C10   C     C_R   0.418901 0.297403 0.902663 0.241610
C11   C     C_R   0.547870 0.717249 0.003194 0.234001
C12   C     C_R   0.478401 0.279346 0.987089 0.295416
C13   C     C_R   0.510664 0.575534 0.958208 0.049651
C14   C     C_R   0.502136 0.422293 0.044837 -0.037717
C15   C     C_R   0.550337 0.560117 0.069833 0.081990
C16   C     C_R   0.462009 0.436904 0.933368 -0.018732
C17   C     C_R   0.477948 0.509422 0.879903 -0.135881
C18   C     C_R   0.531053 0.489168 0.124263 -0.138022
C19   C     C_R   0.850766 0.548121 0.624181 -0.095709
C20   C     C_R   0.147262 0.414357 0.511676 -0.081036
C21   C     C_R   0.147488 0.558569 0.562488 -0.093356
C22   C     C_R   0.840644 0.412633 0.519393 -0.073084
C23   C     C_R   0.776465 0.560997 0.579309 -0.170945
C24   C     C_R   0.226066 0.419195 0.497248 -0.084091
C25   C     C_R   0.226521 0.564553 0.546539 -0.089498
C26   C     C_R   0.767671 0.426847 0.470595 -0.021031
C27   C     C_R   0.732247 0.498815 0.509525 -0.051461
C28   C     C_R   0.267621 0.494344 0.515624 -0.124233
C29   C     C_R   0.882897 0.474887 0.589793 0.095243
C30   C     C_R   0.109388 0.483287 0.549376 0.078294
C31   C     C_1   0.963705 0.473293 0.588827 0.168070
C32   C     C_1   0.030552 0.476530 0.575298 0.143629
C33   C     C_R   0.449827 0.823554 0.404704 -0.213210
C34   C     C_R   0.548445 0.172843 0.583627 -0.212245
C35   C     C_R   0.526514 0.842749 0.599786 -0.226980
C36   C     C_R   0.436167 0.162890 0.442311 -0.156980
C37   C     C_R   0.453973 0.739333 0.409959 0.344158
C38   C     C_R   0.548705 0.257592 0.581078 0.320361
C39   C     C_R   0.540730 0.759824 0.588920 0.309197
C40   C     C_R   0.449008 0.244432 0.421872 0.379012
N1    N     N_R   0.500000 0.707230 0.500000 -0.174514
N2    N     N_R   0.500000 0.292770 0.500000 -0.172011
C41   C     C_R   0.485749 0.875941 0.502534 0.015022
C42   C     C_R   0.490565 0.124540 0.513664 0.026504
C43   C     C_1   0.485096 0.963758 0.504118 0.221339
C44   C     C_1   0.487639 0.036646 0.509701 0.251886
N3    N     N_R   0.504164 0.199162 0.984012 0.254184
O9    O     O_R   0.575626 0.186282 0.968738 -0.313344
O10   O     O_R   0.456117 0.138322 0.980371 -0.219733
N4    N     N_R   0.537941 0.799799 0.984813 0.200207
O11   O     O_R   0.471000 0.829112 0.992630 -0.320225
O12   O     O_R   0.596831 0.848328 0.980234 -0.281941
N5    N     N_R   0.372681 0.234379 0.835742 0.266688
O13   O     O_R   0.320465 0.197233 0.894915 -0.239718
O14   O     O_R   0.378228 0.218727 0.713548 -0.352375
N6    N     N_R   0.650954 0.757749 0.162493 0.228975
O15   O     O_R   0.723546 0.760099 0.144441 -0.308316
O16   O     O_R   0.622834 0.810342 0.243221 -0.301474
C45   C     C_2   0.664346 0.595722 0.218860 0.472554
H1    H     H_    0.694582 0.640862 0.282524 0.174218
O17   O     O_2   0.683694 0.527038 0.218455 -0.593925
C46   C     C_2   0.342994 0.401012 0.800275 0.586387
H2    H     H_    0.342086 0.459775 0.766171 0.026380
O18   O     O_2   0.285851 0.357585 0.782540 -0.475157
C47   C     C_2   0.436031 0.677721 0.854868 0.635524
H3    H     H_    0.440046 0.728752 0.799160 0.085896
O19   O     O_2   0.375630 0.639804 0.855683 -0.520388
C48   C     C_2   0.577219 0.325628 0.160211 0.579740
H4    H     H_    0.620425 0.371597 0.189031 0.089994
O20   O     O_2   0.578673 0.262394 0.208332 -0.519896
C49   C     C_2   0.895975 0.612642 0.703445 0.494200
H5    H     H_    0.885677 0.674888 0.694375 0.090734
O21   O     O_2   0.944373 0.596675 0.781991 -0.514948
C50   C     C_2   0.104595 0.335986 0.485710 0.457461
H6    H     H_    0.128095 0.282355 0.517834 0.121736
O22   O     O_2   0.044885 0.330350 0.422646 -0.520623
C51   C     C_2   0.105176 0.632147 0.595068 0.440570
H7    H     H_    0.131343 0.680560 0.658451 0.099058
O23   O     O_2   0.042213 0.640631 0.547421 -0.539887
C52   C     C_2   0.871699 0.331559 0.499865 0.552358
H8    H     H_    0.851813 0.289918 0.420379 0.121749
O24   O     O_2   0.917720 0.308937 0.576745 -0.504221
C53   C     C_2   0.748503 0.641393 0.600419 0.540534
H9    H     H_    0.751298 0.671027 0.696033 0.124148
O25   O     O_2   0.728574 0.677209 0.510095 -0.503073
C54   C     C_2   0.261059 0.344261 0.452394 0.471474
H10   H     H_    0.250238 0.319688 0.354508 0.101168
O26   O     O_2   0.296106 0.306290 0.526556 -0.506640
C55   C     C_2   0.262039 0.646292 0.555977 0.506790
H11   H     H_    0.238424 0.690404 0.498538 0.092546
O27   O     O_2   0.313103 0.667065 0.634027 -0.529701
C56   C     C_2   0.731719 0.368452 0.370946 0.405212
H12   H     H_    0.680471 0.334236 0.387893 0.137871
O28   O     O_2   0.761218 0.356913 0.268353 -0.506543
C57   C     C_2   0.405884 0.854656 0.297526 0.614625
H13   H     H_    0.360859 0.818084 0.246059 0.124584
O29   O     O_2   0.420698 0.920436 0.262523 -0.464018
C58   C     C_2   0.608031 0.137549 0.663073 0.592542
H14   H     H_    0.642995 0.175023 0.732823 0.161136
O30   O     O_2   0.620408 0.066702 0.650640 -0.554311
C59   C     C_2   0.552021 0.895156 0.715931 0.592962
H15   H     H_    0.609434 0.896120 0.755329 0.181192
O31   O     O_2   0.507588 0.939213 0.769456 -0.462118
C60   C     C_2   0.362766 0.121719 0.392374 0.643024
H16   H     H_    0.319824 0.154974 0.346504 0.106610
O32   O     O_2   0.347084 0.052000 0.406444 -0.535148
N7    N     N_R   0.412656 0.688104 0.313800 0.216951
O33   O     O_R   0.341892 0.668845 0.329877 -0.416255
O34   O     O_R   0.436003 0.684280 0.198120 -0.412037
N8    N     N_R   0.603259 0.306279 0.659842 0.213750
O35   O     O_R   0.588794 0.325015 0.778438 -0.393154
O36   O     O_R   0.673594 0.309255 0.627133 -0.435655
N9    N     N_R   0.603731 0.734867 0.663623 0.192993
O37   O     O_R   0.665126 0.780560 0.680996 -0.385650
O38   O     O_R   0.600588 0.669667 0.719567 -0.428589
N10   N     N_R   0.415766 0.270816 0.306505 0.176376
O39   O     O_R   0.406883 0.221057 0.205231 -0.380149
O40   O     O_R   0.387980 0.340270 0.301974 -0.387840

loop_
_geom_bond_atom_site_label_1
_geom_bond_atom_site_label_2
_geom_bond_distance
_ccdc_geom_bond_type
N6    O16   1.301043 A    
C43   C44   1.224432 T    
N5    O14   1.300086 A    
C53   H9    1.083787 S    
C31   C32   1.192428 T    
C59   H15   1.079146 S    
C6    C46   1.488803 S    
C51   H7    1.085226 S    
O3    C2    1.307578 A    
C12   N3    1.442161 S    
C60   H16   1.084718 S    
C52   H8    1.083549 S    
N9    O37   1.301005 A    
C29   C31   1.426999 S    
C58   H14   1.083601 S    
C15   C18   1.405951 A    
O5    C3    1.298855 A    
C57   O29   1.220428 D    
C16   C17   1.412600 A    
C7    C13   1.419103 A    
O1    C1    1.299301 A    
C22   C26   1.405806 A    
N4    O12   1.300818 A    
C26   C27   1.423469 A    
C9    C11   1.410376 A    
C14   C16   1.394602 A    
C38   N2    1.376781 A    
C45   H1    1.079802 S    
N7    O34   1.298357 A    
C48   O20   1.220763 D    
N9    O38   1.292174 A    
C39   N9    1.436292 S    
C19   C23   1.408378 A    
C21   C30   1.405542 A    
C9    N6    1.433128 S    
C26   C56   1.481662 S    
C33   C57   1.491043 S    
C22   C29   1.402952 A    
C45   O17   1.220537 D    
O7    Zn1   1.999263 S    
Zn1   N1    1.996264 S    
C52   O24   1.221224 D    
C33   C41   1.411757 A    
C22   C52   1.494154 S    
C39   N1    1.391078 A    
C54   O26   1.219270 D    
C40   N2    1.385804 A    
C40   N10   1.443168 S    
C13   C17   1.417677 A    
O3    Zn1   2.006649 S    
C8    C48   1.482951 S    
C41   C43   1.480166 S    
N6    O15   1.300832 A    
C35   C41   1.399616 A    
C53   O25   1.219442 D    
C8    C12   1.420908 A    
C1    C28   1.502504 S    
O4    Zn2   2.006651 S    
C19   C29   1.404478 A    
O2    C2    1.285066 A    
C25   C55   1.484479 S    
C49   O21   1.221385 D    
N8    O36   1.299916 A    
C49   H5    1.084361 S    
C34   C58   1.494176 S    
C6    C16   1.414244 A    
C5    C45   1.484878 S    
C42   C44   1.478002 S    
C21   C51   1.495060 S    
C20   C24   1.403595 A    
C4    C17   1.477850 S    
C25   C28   1.433253 A    
C50   H6    1.085313 S    
C11   N4    1.438940 S    
C46   O18   1.220319 D    
O8    Zn2   1.999264 S    
C36   C60   1.499328 S    
C48   H4    1.080634 S    
O4    C1    1.297501 A    
C37   N1    1.385970 A    
O6    Zn2   1.935144 S    
C23   C27   1.416300 A    
N4    O11   1.301138 A    
C5    C9    1.407839 A    
C47   H3    1.084506 S    
C19   C49   1.496645 S    
C30   C32   1.428829 S    
C55   H11   1.085460 S    
O5    Zn1   1.935145 S    
O6    C4    1.296048 A    
C54   H10   1.085045 S    
C36   C42   1.409326 A    
C35   C39   1.426449 A    
C2    C27   1.494602 S    
C20   C30   1.399420 A    
C59   O31   1.221452 D    
C6    C10   1.412763 A    
C56   O28   1.221053 D    
C47   O19   1.220601 D    
C55   O27   1.216599 D    
C10   C12   1.410685 A    
C51   O23   1.220727 D    
C8    C14   1.420427 A    
O1    Zn1   1.976486 S    
N8    O35   1.299557 A    
C38   N8    1.430858 S    
N10   O40   1.292022 A    
C24   C28   1.432468 A    
C14   C18   1.410867 A    
C24   C54   1.477508 S    
C46   H2    1.083619 S    
C23   C53   1.463364 S    
C60   O32   1.219709 D    
C35   C59   1.490336 S    
C57   H13   1.084185 S    
C36   C40   1.420690 A    
C10   N5    1.431240 S    
N7    O33   1.297684 A    
N3    O9    1.301163 A    
C3    C18   1.477212 S    
N10   O39   1.299813 A    
Zn2   N2    1.996264 S    
C58   O30   1.220113 D    
C21   C25   1.410769 A    
C13   C15   1.395881 A    
C20   C50   1.492935 S    
C56   H12   1.081239 S    
O2    Zn2   1.976484 S    
O7    C4    1.287555 A    
C7    C11   1.418683 A    
N3    O10   1.300799 A    
O8    C3    1.283952 A    
N5    O13   1.300989 A    
C34   C42   1.421873 A    
C37   N7    1.430639 S    
C5    C15   1.415248 A    
C7    C47   1.477846 S    
C50   O22   1.220288 D    
C33   C37   1.430963 A    
C34   C38   1.431665 A    
