data_mof_unit_733.cif
_audit_creation_date              2012-12-11T15:32:00-0500
_audit_creation_method            fapswitch 2.2
_symmetry_space_group_name_H-M    P1
_symmetry_Int_Tables_number       1
_space_group_crystal_system       triclinic
_cell_length_a                    13.58075
_cell_length_b                    13.668327
_cell_length_c                    27.576628
_cell_angle_alpha                 90.483716
_cell_angle_beta                  89.911679
_cell_angle_gamma                 120.078789
_cell_volume                      4429.43144602

loop_
_atom_site_label
_atom_site_type_symbol
_atom_type_description
_atom_site_fract_x
_atom_site_fract_y
_atom_site_fract_z
_atom_type_partial_charge
C1    C     C_R   0.619807 0.898655 0.431330 0.546842
C2    C     C_R   0.610341 0.369793 0.217613 0.021106
C3    C     C_R   0.608182 0.360486 0.268138 -0.110824
C4    C     C_R   0.668364 0.316328 0.291194 0.000187
C5    C     C_R   0.677188 0.337031 0.189913 0.044173
C6    C     C_1   0.688191 0.358095 0.138317 -0.074031
C7    C     C_1   0.653181 0.294301 0.342340 -0.067893
C8    C     C_1   0.698577 0.386211 0.096494 -0.030553
C9    C     C_1   0.228832 0.860982 0.383550 -0.024352
C10   C     C_R   0.196076 0.943714 0.264302 0.049111
C11   C     C_R   0.183782 0.936199 0.212732 0.051193
C12   C     C_R   0.600208 0.218840 0.431444 0.548259
C13   C     C_R   0.122889 0.735294 0.216640 -0.135536
C14   C     C_R   0.136684 0.743091 0.266675 -0.133006
C15   C     C_R   0.173600 0.845969 0.290681 0.032641
C16   C     C_R   0.146844 0.830472 0.189448 0.031397
C17   C     C_1   0.124338 0.814283 0.137951 -0.065254
C18   C     C_1   0.198544 0.851763 0.341877 -0.066338
C19   C     C_1   0.096739 0.794450 0.095896 -0.021699
C20   C     C_1   0.635221 0.867102 0.383523 -0.021272
C21   C     C_R   0.546742 0.766886 0.262247 0.033866
C22   C     C_R   0.556428 0.761530 0.211386 -0.091562
C23   C     C_R   0.279269 0.878641 0.430758 0.545748
C24   C     C_R   0.761172 0.881262 0.216880 -0.122435
C25   C     C_R   0.753366 0.888276 0.267007 -0.129041
C26   C     C_R   0.647346 0.831546 0.289896 0.034102
C27   C     C_R   0.662997 0.818349 0.189012 0.013477
C28   C     C_1   0.673987 0.804021 0.137968 -0.072787
C29   C     C_1   0.642645 0.847914 0.341390 -0.071774
C30   C     C_1   0.690758 0.789758 0.096315 -0.022840
C31   C     C_R   0.633725 0.279129 0.617242 0.012917
C32   C     C_R   0.749976 0.347834 0.627155 -0.152917
C33   C     C_R   0.786326 0.403896 0.671470 -0.146320
C34   C     C_R   0.619087 0.901744 0.569798 0.529267
C35   C     C_R   0.707139 0.396501 0.705738 0.021252
C36   C     C_R   0.588788 0.332234 0.696068 0.047130
C37   C     C_R   0.551611 0.267014 0.652774 0.019720
C38   C     C_R   0.747056 0.532237 0.773353 -0.132690
C39   C     C_R   0.740633 0.545307 0.823143 -0.174122
C40   C     C_R   0.738097 0.368427 0.837119 0.013238
C41   C     C_R   0.748028 0.358120 0.787164 -0.121486
C42   C     C_R   0.745489 0.435711 0.755290 -0.002257
C43   C     C_R   0.730238 0.461548 0.855121 0.023253
C44   C     C_R   0.212665 0.853828 0.612689 0.020825
C45   C     C_R   0.598207 0.218192 0.570309 0.536892
C46   C     C_R   0.185207 0.930506 0.633886 -0.148487
C47   C     C_R   0.152735 0.919240 0.682435 -0.137481
C48   C     C_R   0.146189 0.830028 0.709570 0.025205
C49   C     C_R   0.159697 0.745990 0.686375 -0.139537
C50   C     C_R   0.192208 0.757416 0.638393 -0.131961
C51   C     C_R   0.041895 0.713129 0.778293 -0.141738
C52   C     C_R   0.024917 0.691903 0.827064 -0.130323
C53   C     C_R   0.158949 0.888411 0.845334 -0.111796
C54   C     C_R   0.187443 0.909099 0.795815 0.030932
C55   C     C_R   0.123296 0.820220 0.761871 0.026649
C56   C     C_R   0.277682 0.880052 0.567604 0.530547
C57   C     C_R   0.080452 0.779566 0.860648 0.014008
C58   C     C_R   0.627964 0.866951 0.619302 0.005734
C59   C     C_R   0.525092 0.808182 0.645179 -0.123772
C60   C     C_R   0.523073 0.787601 0.694497 0.011825
C61   C     C_R   0.627126 0.825143 0.718574 0.017525
C62   C     C_R   0.729756 0.875865 0.692575 -0.117126
C63   C     C_R   0.732421 0.899530 0.642836 0.000319
C64   C     C_R   0.682907 0.912468 0.801851 0.045316
C65   C     C_R   0.706293 0.899330 0.850967 0.026539
C66   C     C_R   0.600275 0.694399 0.839184 -0.165877
C67   C     C_1   0.633220 0.266558 0.384138 -0.018489
C68   C     C_R   0.586419 0.708145 0.790749 -0.156997
C69   C     C_R   0.632247 0.815747 0.771340 0.020318
C70   C     C_R   0.669802 0.788347 0.868338 0.010201
C71   C     C_R   0.048947 0.760902 0.048217 0.546800
C72   C     C_R   0.713589 0.434767 0.049372 0.552222
C73   C     C_R   0.722950 0.771018 0.049230 0.544316
C74   C     C_R   0.043229 0.754976 0.910511 0.527063
C75   C     C_R   0.731490 0.484798 0.906965 0.553104
C76   C     C_R   0.715431 0.766847 0.912929 0.522388
C77   C     C_R   0.732204 0.281167 0.263985 -0.089585
C78   C     C_R   0.738233 0.291350 0.213007 0.020026
Cr1   Cr    Cr6+3 0.417720 0.831920 0.499820 1.010578
Cr2   Cr    Cr6+3 0.668190 0.085770 0.500360 1.013290
Cr3   Cr    Cr6+3 0.414060 0.082260 0.499840 1.001255
Cr4   Cr    Cr6+3 0.908000 0.821090 0.979770 1.000675
Cr5   Cr    Cr6+3 0.912420 0.571130 0.979880 1.003326
Cr6   Cr    Cr6+3 0.657970 0.566940 0.980940 1.007560
H1    H     H_    0.775669 0.244967 0.283104 0.120301
H2    H     H_    0.482421 0.712484 0.188740 0.111770
H3    H     H_    0.844036 0.924367 0.199830 0.111771
H4    H     H_    0.830289 0.938713 0.287991 0.111539
H5    H     H_    0.813013 0.356053 0.600879 0.123374
H6    H     H_    0.748104 0.594417 0.748973 0.123537
H7    H     H_    0.746689 0.622203 0.836939 0.115014
H8    H     H_    0.750328 0.285464 0.772709 0.110122
H9    H     H_    0.193679 0.001289 0.613607 0.114169
H10   H     H_    0.993007 0.644138 0.753125 0.118408
H11   H     H_    0.151240 0.674124 0.706137 0.105488
H12   H     H_    0.444659 0.784411 0.627696 0.145444
H13   H     H_    0.566314 0.609004 0.852344 0.138276
H14   H     H_    0.807585 0.901241 0.712464 0.117368
H15   H     H_    0.556994 0.385158 0.289551 0.109340
H16   H     H_    0.093365 0.654112 0.198954 0.116620
H17   H     H_    0.119696 0.668462 0.286775 0.115467
O1    O     O_R   0.302900 0.805360 0.446400 -0.506634
O2    O     O_R   0.657980 0.180990 0.549630 -0.501167
O3    O     O_R   0.503420 0.197810 0.553190 -0.519209
O4    O     O_R   0.320350 0.978840 0.548910 -0.516131
O5    O     O_3   0.499990 0.999990 0.500010 -0.243718
O6    O     O_R   0.819150 0.845650 0.033320 -0.510187
O7    O     O_R   0.006060 0.815720 0.028680 -0.493384
O8    O     O_R   0.028100 0.664460 0.032550 -0.505631
O9    O     O_R   0.811290 0.477490 0.029660 -0.490101
O10   O     O_R   0.638120 0.455970 0.034270 -0.505223
O11   O     O_R   0.667540 0.672320 0.030160 -0.493753
O12   O     O_R   0.522090 0.841370 0.450730 -0.493629
O13   O     O_R   0.814460 0.840990 0.926980 -0.520195
O14   O     O_R   0.001710 0.811400 0.930110 -0.500793
O15   O     O_R   0.023410 0.659800 0.926210 -0.527012
O16   O     O_R   0.806940 0.473170 0.931090 -0.510416
O17   O     O_R   0.633420 0.451310 0.927930 -0.516966
O18   O     O_R   0.663190 0.668000 0.931580 -0.520657
O19   O     O_3   0.826130 0.653050 0.980200 -0.263265
O20   O     O_R   0.693280 0.995650 0.447220 -0.508117
O21   O     O_R   0.657260 0.178740 0.451050 -0.492676
O22   O     O_R   0.502640 0.195380 0.446850 -0.508135
O23   O     O_R   0.319630 0.976590 0.450330 -0.494937
O24   O     O_R   0.303680 0.807790 0.552740 -0.527232
O25   O     O_R   0.522820 0.843620 0.549310 -0.506995
O26   O     O_R   0.694060 0.998080 0.553560 -0.523869
H18   H     H_    0.876583 0.451557 0.679555 0.111369
C79   C     C_3   0.736091 0.279228 0.869684 -0.263364
C80   C     C_3   0.856882 0.302010 0.878478 -0.423375
H19   H     H_    0.889911 0.281903 0.845297 0.129505
H20   H     H_    0.915467 0.391906 0.888347 0.184644
H21   H     H_    0.856503 0.249188 0.908825 0.132241
H22   H     H_    0.694276 0.274877 0.904829 0.173734
H23   H     H_    0.683780 0.194663 0.852789 0.120416
C81   C     C_3   0.504219 0.335726 0.731903 -0.261994
C82   C     C_3   0.481921 0.431401 0.719955 -0.438920
H24   H     H_    0.562932 0.512298 0.716023 0.153491
H25   H     H_    0.433514 0.414021 0.685693 0.148732
H26   H     H_    0.430836 0.439408 0.749541 0.123140
H27   H     H_    0.421646 0.256781 0.733443 0.131766
H28   H     H_    0.535172 0.346868 0.769781 0.156015
C83   C     C_3   0.807286 0.254012 0.182321 -0.271764
C84   C     C_3   0.863346 0.197655 0.209685 -0.455879
H29   H     H_    0.927064 0.257841 0.236078 0.142770
H30   H     H_    0.798065 0.121064 0.228674 0.163155
H31   H     H_    0.908062 0.171251 0.183519 0.139487
H32   H     H_    0.750180 0.192851 0.154357 0.152629
H33   H     H_    0.875056 0.328925 0.163234 0.149802
C85   C     C_3   0.426107 0.179387 0.646195 -0.237735
C86   C     C_3   0.359017 0.230782 0.623746 -0.399019
H34   H     H_    0.416035 0.318824 0.611467 0.162124
H35   H     H_    0.310891 0.181311 0.591393 0.150121
H36   H     H_    0.297630 0.230377 0.650503 0.113528
H37   H     H_    0.415864 0.106552 0.624450 0.173024
H38   H     H_    0.386453 0.135696 0.680364 0.106452
H39   H     H_    0.964390 0.607110 0.838561 0.141002
H40   H     H_    0.135195 0.980976 0.698896 0.103009
C87   C     C_3   0.287522 0.021276 0.779498 -0.280430
C88   C     C_3   0.373988 0.089631 0.819390 -0.456834
H41   H     H_    0.339650 0.130252 0.843853 0.149393
H42   H     H_    0.395913 0.034678 0.840751 0.150787
H43   H     H_    0.453406 0.157188 0.802918 0.134812
H44   H     H_    0.334915 0.004257 0.750905 0.148071
H45   H     H_    0.255162 0.074288 0.763785 0.128682
H46   H     H_    0.199247 0.954745 0.872368 0.110410
H47   H     H_    0.208827 0.694274 0.622676 0.126989
C89   C     C_3   0.538362 0.412392 0.194155 -0.283121
C90   C     C_3   0.608490 0.538453 0.183679 -0.411040
H48   H     H_    0.641684 0.587148 0.218047 0.164371
H49   H     H_    0.680949 0.557154 0.159368 0.167664
H50   H     H_    0.553461 0.565674 0.165525 0.142947
H51   H     H_    0.499294 0.364746 0.160054 0.151148
H52   H     H_    0.466522 0.397647 0.218256 0.126603
C91   C     C_3   0.702049 0.024712 0.782116 -0.277261
C92   C     C_3   0.589232 0.023756 0.779219 -0.444711
H53   H     H_    0.529754 0.957826 0.753682 0.161204
H54   H     H_    0.549408 0.007534 0.815613 0.145437
H55   H     H_    0.603077 0.105926 0.765966 0.131633
H56   H     H_    0.761624 0.098324 0.804201 0.134835
H57   H     H_    0.741739 0.041923 0.745747 0.145987
C93   C     C_3   0.767404 0.001193 0.884562 -0.259155
C94   C     C_3   0.895911 0.065802 0.875006 -0.416513
H58   H     H_    0.931258 0.008169 0.875253 0.187818
H59   H     H_    0.915646 0.108092 0.839324 0.125483
H60   H     H_    0.939907 0.131006 0.903646 0.127224
H61   H     H_    0.730911 0.057167 0.880997 0.126548
H62   H     H_    0.752007 0.976220 0.923203 0.159299
C95   C     C_3   0.409560 0.735329 0.720488 -0.284470
C96   C     C_3   0.332463 0.612173 0.705247 -0.449379
H63   H     H_    0.309258 0.605873 0.666319 0.141959
H64   H     H_    0.375956 0.563225 0.711430 0.150844
H65   H     H_    0.253300 0.574300 0.727087 0.132268
H66   H     H_    0.418633 0.739210 0.760478 0.160024
H67   H     H_    0.367681 0.784886 0.711864 0.143511
H68   H     H_    0.541734 0.634440 0.767873 0.119308
C97   C     C_3   0.843662 0.961600 0.614960 -0.261736
C98   C     C_3   0.947824 0.970553 0.640182 -0.464027
H69   H     H_    0.970670 0.025799 0.672864 0.135071
H70   H     H_    0.931889 0.885272 0.650184 0.168642
H71   H     H_    0.021058 0.009466 0.614942 0.135538
H72   H     H_    0.833512 0.916917 0.579834 0.155264
H73   H     H_    0.861900 0.048735 0.607246 0.170456
C99   C     C_3   0.233287 0.054041 0.291592 -0.281072
C100  C     C_3   0.361974 0.119484 0.298971 -0.425629
H74   H     H_    0.389702 0.069941 0.321001 0.169300
H75   H     H_    0.406234 0.138705 0.263489 0.154991
H76   H     H_    0.386759 0.200059 0.318384 0.141190
H77   H     H_    0.206146 0.108011 0.272832 0.134028
H78   H     H_    0.190979 0.037195 0.327522 0.148934
C101  C     C_3   0.209383 0.038645 0.182320 -0.272975
C102  C     C_3   0.102235 0.046345 0.174355 -0.442550
H79   H     H_    0.037142 0.970597 0.154301 0.165918
H80   H     H_    0.066032 0.052725 0.209571 0.137081
H81   H     H_    0.123510 0.122560 0.152727 0.136468
H82   H     H_    0.276874 0.118325 0.198931 0.135427
H83   H     H_    0.244510 0.034053 0.146513 0.146792
C103  C     C_3   0.432240 0.706078 0.287966 -0.268062
C104  C     C_3   0.329513 0.630533 0.255896 -0.456523
H84   H     H_    0.316127 0.681849 0.228492 0.156988
H85   H     H_    0.341379 0.564390 0.237662 0.143497
H86   H     H_    0.252069 0.587728 0.278732 0.137822
H87   H     H_    0.436862 0.651980 0.316718 0.149597
H88   H     H_    0.416535 0.770132 0.305903 0.158982

loop_
_geom_bond_atom_site_label_1
_geom_bond_atom_site_label_2
_ccdc_geom_bond_type
C57   C74   S    
C48   C55   S    
C66   C68   A    
C21   C26   A    
C40   C41   A    
C96   H63   S    
C22   H2    S    
C15   C18   S    
C41   C42   A    
C54   C55   A    
C19   C71   S    
C35   C36   A    
C75   O16   A    
C24   C27   A    
Cr4   O19   S    
C37   C85   S    
C40   C79   S    
C103  H87   S    
Cr2   O21   S    
C53   C54   A    
C89   H52   S    
C82   H25   S    
Cr6   O11   S    
Cr3   O22   S    
C62   H14   S    
C66   H13   S    
C46   H9    S    
C36   C37   A    
Cr4   O14   S    
C38   C42   A    
C10   C15   A    
C4    C7    S    
C87   C88   S    
C5    C6    S    
C73   O6    A    
C23   O1    A    
C44   C50   A    
C65   C70   A    
Cr2   O5    S    
C58   C63   A    
C102  H79   S    
C90   H48   S    
C86   H36   S    
C35   C42   S    
C44   C56   S    
C93   C94   S    
C81   H28   S    
C45   O2    A    
C96   H65   S    
C11   C101  S    
C54   C87   S    
C79   H23   S    
C95   H66   S    
C92   H55   S    
C47   C48   A    
C16   C17   S    
C99   H77   S    
C76   O13   A    
C86   H34   S    
Cr5   O8    S    
Cr1   O1    S    
C97   H73   S    
C98   H69   S    
Cr4   O7    S    
C61   C62   A    
C34   O25   A    
C91   H57   S    
C100  H75   S    
C101  H82   S    
Cr1   O24   S    
C72   O10   A    
C77   H1    S    
C59   C60   A    
C85   H38   S    
C13   C14   A    
C90   H49   S    
C95   C96   S    
C75   O17   A    
C1    O12   A    
C84   H31   S    
C36   C81   S    
C39   H7    S    
C12   C67   S    
C44   C46   A    
C60   C95   S    
Cr3   O4    S    
C20   C29   T    
C40   C43   A    
C43   C75   S    
C89   H51   S    
C101  H83   S    
C82   H26   S    
C72   O9    A    
C8    C72   S    
Cr6   O10   S    
Cr2   O2    S    
C63   C97   S    
C51   C52   A    
C76   O18   A    
C88   H43   S    
C24   C25   A    
Cr4   O13   S    
C84   H30   S    
C52   C57   A    
C94   H60   S    
C104  H84   S    
C30   C73   S    
C53   C57   A    
C34   O26   A    
C14   H17   S    
C6    C8    T    
Cr3   O23   S    
C58   C59   A    
C77   C78   A    
C83   H32   S    
C33   H18   S    
C31   C37   A    
Cr1   O5    S    
C60   C61   A    
C88   H42   S    
Cr5   O19   S    
C80   H20   S    
C94   H58   S    
C62   C63   A    
C45   O3    A    
C104  H85   S    
C11   C16   A    
C95   H67   S    
C101  C102  S    
C14   C15   A    
C102  H81   S    
Cr6   O19   S    
C74   O15   A    
C98   H71   S    
Cr5   O9    S    
C12   O21   A    
C97   H72   S    
C68   H68   S    
C93   H62   S    
C56   O24   A    
C49   H11   S    
C64   C91   S    
C23   O23   A    
C85   H37   S    
C89   C90   S    
Cr1   O25   S    
C102  H80   S    
Cr2   O20   S    
Cr1   O12   S    
C32   H5    S    
C70   C76   S    
C90   H50   S    
C87   H45   S    
C80   H21   S    
C59   H12   S    
C17   C19   T    
C3    C4    A    
C2    C89   S    
C50   H47   S    
C73   O11   A    
C79   C80   S    
C100  H76   S    
C61   C69   S    
C52   H39   S    
C100  H74   S    
Cr3   O5    S    
C92   H53   S    
C1    C20   S    
C96   H64   S    
C85   C86   S    
Cr5   O15   S    
C68   C69   A    
C31   C32   A    
C9    C23   S    
C21   C103  S    
C84   H29   S    
C39   C43   A    
C103  H88   S    
C91   H56   S    
Cr2   O26   S    
C66   C70   A    
C64   C69   A    
C82   H24   S    
C38   H6    S    
C22   C27   A    
C32   C33   A    
C65   C93   S    
C13   H16   S    
C94   H59   S    
C2    C3    A    
C25   C26   A    
C4    C77   A    
C91   C92   S    
C78   C83   S    
C88   H41   S    
C104  H86   S    
Cr5   O16   S    
C103  C104  S    
C38   C39   A    
C12   O22   A    
Cr6   O18   S    
C48   C49   A    
C74   O14   A    
C71   O8    A    
C64   C65   A    
C28   C30   T    
C33   C35   A    
C81   H27   S    
C80   H19   S    
C51   C55   A    
C93   H61   S    
C86   H35   S    
C25   H4    S    
C97   C98   S    
C24   H3    S    
C1    O20   A    
C56   O4    A    
C46   C47   A    
C10   C11   A    
C51   H10   S    
C7    C67   T    
C79   H22   S    
C2    C5    A    
C3    H15   S    
C9    C18   T    
C83   H33   S    
C41   H8    S    
C53   H46   S    
C99   C100  S    
C26   C29   S    
Cr6   O17   S    
C49   C50   A    
C31   C45   S    
C13   C16   A    
C99   H78   S    
C27   C28   S    
C34   C58   S    
C87   H44   S    
C81   C82   S    
C98   H70   S    
Cr4   O6    S    
C5    C78   A    
C21   C22   A    
C10   C99   S    
Cr3   O3    S    
C83   C84   S    
C71   O7    A    
C92   H54   S    
C47   H40   S    
