data_mof_unit_136.cif
_audit_creation_date              2012-12-10T20:30:59-0500
_audit_creation_method            fapswitch 2.2
_symmetry_space_group_name_H-M    P1
_symmetry_Int_Tables_number       1
_space_group_crystal_system       triclinic
_cell_length_a                    14.924856
_cell_length_b                    10.651103
_cell_length_c                    9.929642
_cell_angle_alpha                 90.675438
_cell_angle_beta                  90.814425
_cell_angle_gamma                 90.882897
_cell_volume                      1578.01657828

loop_
_atom_site_label
_atom_site_type_symbol
_atom_type_description
_atom_site_fract_x
_atom_site_fract_y
_atom_site_fract_z
_atom_type_partial_charge
C1    C     C_R   0.505031 0.260446 0.499367 0.885369
C2    C     C_R   0.906425 0.564488 0.399041 0.112670
C3    C     C_R   0.953932 0.353746 0.688744 -0.175816
C4    C     C_R   0.047069 0.354085 0.688614 -0.202124
C5    C     C_R   0.093406 0.423805 0.592534 0.121401
C6    C     C_R   0.046485 0.493302 0.494881 0.063852
C7    C     C_R   0.092818 0.562886 0.396876 0.116975
C8    C     C_R   0.045826 0.631714 0.300470 -0.202004
C9    C     C_R   0.952731 0.632703 0.301706 -0.181094
C10   C     C_R   0.186076 0.425830 0.592472 -0.225508
C11   C     C_R   0.231316 0.496148 0.496543 -0.049645
C12   C     C_R   0.326988 0.499099 0.499041 0.881743
C13   C     C_R   0.185554 0.563206 0.398078 -0.254618
C14   C     C_R   0.500637 0.065728 0.619220 0.116869
C15   C     C_R   0.520014 0.129061 0.500892 -0.177652
C16   C     C_R   0.556665 0.062834 0.390881 0.157055
C17   C     C_R   0.553903 0.932548 0.393034 -0.247040
C18   C     C_R   0.516970 0.871348 0.503891 -0.153467
C19   C     C_R   0.499653 0.938148 0.621071 0.195284
C20   C     C_3   0.420587 0.932241 0.711502 -0.425494
C21   C     C_3   0.421562 0.074579 0.709592 -0.488815
C22   C     C_R   0.436698 0.432799 0.068966 0.187080
C23   C     C_R   0.502518 0.739775 0.500730 0.912427
C24   C     C_R   0.566445 0.556456 0.076887 -0.157631
C25   C     C_R   0.567615 0.558697 0.934264 0.467763
C26   C     C_R   0.434948 0.436339 0.927122 0.066774
C27   C     C_3   0.335979 0.459786 0.926208 -0.012971
C28   C     C_3   0.338243 0.447904 0.078331 -0.496437
C29   C     C_R   0.673005 0.499446 0.500472 0.896401
C30   C     C_R   0.813844 0.566161 0.402153 -0.238128
C31   C     C_R   0.768629 0.497906 0.499987 -0.065380
C32   C     C_R   0.814243 0.425270 0.593627 -0.163034
C33   C     C_R   0.906954 0.423691 0.593275 0.105127
C34   C     C_R   0.953305 0.493734 0.495660 0.053771
H1    H     H_    0.776833 0.621231 0.329490 0.168510
H2    H     H_    0.576626 0.879921 0.306269 0.200464
H3    H     H_    0.360284 0.889064 0.661490 0.207279
H4    H     H_    0.438162 0.893574 0.811801 0.243809
H5    H     H_    0.361797 0.114489 0.658502 0.194959
H6    H     H_    0.439519 0.118144 0.808850 0.224877
H7    H     H_    0.618863 0.601828 0.136800 0.196443
H8    H     H_    0.297050 0.382508 0.875925 0.133501
H9    H     H_    0.319884 0.534719 0.133789 0.234365
H10   H     H_    0.777447 0.369304 0.665453 0.176590
H11   H     H_    0.304541 0.360987 0.114236 0.187107
H12   H     H_    0.918704 0.299756 0.763810 0.166024
H13   H     H_    0.082832 0.300406 0.763632 0.152528
H14   H     H_    0.223122 0.371793 0.665667 0.140047
H15   H     H_    0.222207 0.617465 0.324595 0.155044
H16   H     H_    0.081043 0.685151 0.224937 0.165902
H17   H     H_    0.916994 0.686883 0.227087 0.177363
N1    N     N_R   0.499390 0.499140 0.142800 -0.128196
N2    N     N_R   0.499390 0.499180 0.857150 -0.156575
O1    O     O_R   0.500010 0.316790 0.614690 -0.626438
O2    O     O_R   0.500000 0.316760 0.385350 -0.586251
O3    O     O_R   0.367850 0.499990 0.614680 -0.601593
O4    O     O_R   0.367840 0.499950 0.385340 -0.631670
O5    O     O_R   0.500000 0.683240 0.614650 -0.546082
O6    O     O_R   0.499990 0.683210 0.385310 -0.632822
O7    O     O_R   0.632160 0.500050 0.614660 -0.546109
O8    O     O_R   0.632150 0.500010 0.385320 -0.626477
Zn1   Zn    Zn3+2 0.500010 0.500020 0.653130 1.034827
Zn2   Zn    Zn3+2 0.499990 0.499980 0.346870 0.975998
S1    S     S_3+6 0.664399 0.636829 0.870555 0.038249
O9    O     O_2   0.703422 0.723679 0.977387 -0.324804
O10   O     O_2   0.733047 0.539392 0.840227 -0.322532
O11   O     O_3   0.646077 0.724270 0.734190 -0.531455
H18   H     H_    0.706431 0.749444 0.703037 0.368442
I1    I     I_    0.299300 0.647122 0.870390 -0.388719
I2    I     I_    0.613906 0.146031 0.217280 -0.316306

loop_
_geom_bond_atom_site_label_1
_geom_bond_atom_site_label_2
_ccdc_geom_bond_type
C24   N1    A    
C23   O5    A    
C11   C12   S    
S1    O11   S    
C24   C25   A    
O5    Zn1   S    
C6    C7    A    
C1    C15   S    
C17   H2    S    
C20   H4    S    
N2    Zn1   S    
C3    H12   S    
O6    Zn2   S    
C19   C20   S    
C21   H5    S    
C29   O7    A    
C7    C13   A    
C30   C31   A    
C2    C30   A    
C6    C34   A    
S1    O9    D    
C2    C34   A    
C17   C18   A    
C1    O2    A    
C5    C10   A    
C29   C31   S    
C22   C28   S    
C4    C5    A    
C32   C33   A    
C23   O6    A    
C20   H3    S    
C11   C13   A    
C27   H8    S    
S1    O10   D    
C26   C27   S    
C12   O3    A    
C21   H6    S    
C24   H7    S    
C30   H1    S    
C1    O1    A    
C13   H15   S    
C12   O4    A    
C14   C21   S    
O7    Zn1   S    
C25   N2    A    
C33   C34   A    
O3    Zn1   S    
C10   H14   S    
C5    C6    A    
C31   C32   A    
C29   O8    A    
C28   H11   S    
C16   C17   A    
C10   C11   A    
C3    C33   A    
C18   C23   S    
C26   N2    A    
C8    H16   S    
C7    C8    A    
C16   I2    S    
C20   C21   S    
C32   H10   S    
C22   N1    A    
C18   C19   A    
C22   C26   A    
C27   C28   S    
O8    Zn2   S    
C14   C15   A    
C9    H17   S    
C4    H13   S    
C28   H9    S    
C2    C9    A    
O1    Zn1   S    
C14   C19   A    
N1    Zn2   S    
C15   C16   A    
C3    C4    A    
O11   H18   S    
O4    Zn2   S    
O2    Zn2   S    
C8    C9    A    
C25   S1    S    
C27   I1    S    
