data_mof_unit_3029.cif
_audit_creation_date              2012-12-10T18:59:59-0500
_audit_creation_method            fapswitch 2.2
_symmetry_space_group_name_H-M    P1
_symmetry_Int_Tables_number       1
_space_group_crystal_system       triclinic
_cell_length_a                    10.70674
_cell_length_b                    10.702787
_cell_length_c                    9.817545
_cell_angle_alpha                 90.063591
_cell_angle_beta                  89.908049
_cell_angle_gamma                 90.348965
_cell_volume                      1124.98870547

loop_
_atom_site_label
_atom_site_type_symbol
_atom_type_description
_atom_site_fract_x
_atom_site_fract_y
_atom_site_fract_z
_atom_type_partial_charge
C1    C     C_R   0.499920 0.259831 0.499908 0.858399
C2    C     C_R   0.467963 0.063933 0.619315 -0.214184
C3    C     C_R   0.500108 0.872556 0.500106 -0.005284
C4    C     C_R   0.499884 0.127444 0.499894 -0.005284
C5    C     C_R   0.575618 0.580128 0.071963 -0.081433
C6    C     C_R   0.424382 0.419872 0.928036 -0.081436
C7    C     C_R   0.575586 0.580093 0.927908 -0.058610
C8    C     C_R   0.424414 0.419906 0.072092 -0.058604
C9    C     C_R   0.260052 0.503881 0.499891 0.872947
C10   C     C_R   0.739948 0.496120 0.500109 0.872948
C11   C     C_R   0.254755 0.792370 0.187512 -0.121321
C12   C     C_R   0.500078 0.740169 0.500092 0.858398
C13   C     C_R   0.745255 0.207615 0.812474 -0.121324
C14   C     C_R   0.193401 0.733887 0.296213 -0.105335
C15   C     C_R   0.806602 0.266109 0.703776 -0.105334
C16   C     C_R   0.122498 0.624841 0.273894 0.140635
C17   C     C_R   0.877502 0.375156 0.726103 0.140638
C18   C     C_R   0.112385 0.576454 0.141225 -0.169227
C19   C     C_R   0.887618 0.423533 0.858777 -0.169227
C20   C     C_R   0.174027 0.635174 0.032886 -0.139710
C21   C     C_R   0.825982 0.364803 0.967113 -0.139708
C22   C     C_R   0.245494 0.742791 0.056091 -0.106875
C23   C     C_R   0.872449 0.492931 0.500255 -0.079267
C24   C     C_R   0.754519 0.257184 0.943900 -0.106878
C25   C     C_R   0.933507 0.549992 0.390757 -0.260544
C26   C     C_R   0.066493 0.450012 0.609244 -0.260543
C27   C     C_R   0.127550 0.507073 0.499745 -0.079265
C28   C     C_R   0.938438 0.440955 0.610431 -0.002717
C29   C     C_R   0.061562 0.559049 0.389570 -0.002717
C30   C     C_R   0.531823 0.064036 0.380539 -0.208966
C31   C     C_R   0.468168 0.935964 0.619461 -0.208967
C32   C     C_R   0.532027 0.936067 0.380684 -0.214188
H1    H     H_    0.293751 0.787686 0.972256 0.118576
H2    H     H_    0.941145 0.507929 0.877644 0.122062
H3    H     H_    0.881195 0.591632 0.307950 0.155748
H4    H     H_    0.118804 0.408372 0.692051 0.155747
H5    H     H_    0.557509 0.112976 0.287946 0.149515
H6    H     H_    0.442483 0.887024 0.712053 0.149514
H7    H     H_    0.636137 0.643988 0.126656 0.117381
H8    H     H_    0.363863 0.356011 0.873344 0.117381
H9    H     H_    0.167277 0.596670 0.931124 0.132921
H10   H     H_    0.832734 0.403299 0.068879 0.132920
H11   H     H_    0.557771 0.887195 0.288145 0.148914
H12   H     H_    0.706268 0.212280 0.027733 0.118574
H13   H     H_    0.442218 0.112805 0.711854 0.148914
H14   H     H_    0.636170 0.643844 0.873105 0.125392
H15   H     H_    0.363830 0.356156 0.126895 0.125392
H16   H     H_    0.309875 0.875868 0.205233 0.128762
H17   H     H_    0.690139 0.124114 0.794747 0.128764
H18   H     H_    0.202206 0.772529 0.397796 0.103129
H19   H     H_    0.797796 0.227475 0.602190 0.103126
H20   H     H_    0.058857 0.492059 0.122364 0.122062
N1    N     N_R   0.499970 0.499970 0.857200 -0.074419
N2    N     N_R   0.500030 0.500030 0.142800 -0.074418
O1    O     O_R   0.499990 0.316750 0.614620 -0.623582
O2    O     O_R   0.500010 0.683250 0.385380 -0.623584
O3    O     O_R   0.499990 0.316780 0.385290 -0.631435
O4    O     O_R   0.500010 0.683220 0.614710 -0.631436
O5    O     O_R   0.316760 0.500000 0.614660 -0.631921
O6    O     O_R   0.683240 0.500000 0.385340 -0.631918
O7    O     O_R   0.316760 0.500020 0.385330 -0.605278
O8    O     O_R   0.683240 0.499980 0.614670 -0.605278
Zn1   Zn    Zn3+2 0.500000 0.499980 0.653120 0.945730
Zn2   Zn    Zn3+2 0.500000 0.500020 0.346880 0.945731

loop_
_geom_bond_atom_site_label_1
_geom_bond_atom_site_label_2
_ccdc_geom_bond_type
C26   C27   A    
O7    Zn2   S    
C2    C4    A    
O2    Zn2   S    
O8    Zn1   S    
C1    O3    A    
C10   C23   S    
C27   C29   A    
C5    C7    A    
C11   C22   A    
C10   O6    A    
C15   H19   S    
C31   H6    S    
O6    Zn2   S    
C1    C4    S    
C12   O4    A    
C23   C25   A    
C20   H9    S    
C1    O1    A    
C8    H15   S    
C18   H20   S    
C10   O8    A    
C23   C28   A    
C3    C31   A    
N1    Zn1   S    
C11   H16   S    
C12   O2    A    
N2    Zn2   S    
C25   H3    S    
C9    O7    A    
C13   C24   A    
C26   H4    S    
C17   C19   A    
C32   H11   S    
C20   C22   A    
C18   C20   A    
C13   C15   A    
C2    H13   S    
C25   C29   A    
C3    C32   A    
C24   H12   S    
C11   C14   A    
C14   C16   A    
O5    Zn1   S    
C14   H18   S    
C6    N1    A    
C21   H10   S    
C30   C32   A    
C7    H14   S    
C5    N2    A    
C6    H8    S    
C9    C27   S    
O3    Zn2   S    
C16   C18   A    
C21   C24   A    
C8    N2    A    
O4    Zn1   S    
C15   C17   A    
C5    H7    S    
C7    N1    A    
C6    C8    A    
C3    C12   S    
C13   H17   S    
C19   C21   A    
C16   C29   S    
C17   C28   S    
C26   C28   A    
C4    C30   A    
C30   H5    S    
O1    Zn1   S    
C2    C31   A    
C9    O5    A    
C19   H2    S    
C22   H1    S    
