data_mof_unit_4256.cif
_audit_creation_date              2012-12-10T19:27:32-0500
_audit_creation_method            fapswitch 2.2
_symmetry_space_group_name_H-M    P1
_symmetry_Int_Tables_number       1
_space_group_crystal_system       triclinic
_cell_length_a                    23.230806
_cell_length_b                    10.553232
_cell_length_c                    9.809769
_cell_angle_alpha                 89.502709
_cell_angle_beta                  90.343389
_cell_angle_gamma                 90.763588
_cell_volume                      2404.6181098

loop_
_atom_site_label
_atom_site_type_symbol
_atom_type_description
_atom_site_fract_x
_atom_site_fract_y
_atom_site_fract_z
_atom_type_partial_charge
C1    C     C_R   0.502422 0.258283 0.500822 0.903630
C2    C     C_R   0.499070 0.742192 0.499256 0.860452
C3    C     C_R   0.231099 0.546569 0.557666 -0.073559
C4    C     C_R   0.767246 0.424044 0.529954 -0.086655
C5    C     C_R   0.290563 0.551222 0.578498 0.123194
C6    C     C_R   0.707755 0.414418 0.546934 0.149792
C7    C     C_R   0.326455 0.479247 0.493416 -0.150900
C8    C     C_R   0.672791 0.513864 0.497955 -0.122958
C9    C     C_R   0.301494 0.400975 0.390912 -0.088836
C10   C     C_R   0.697929 0.621969 0.434172 -0.091103
C11   C     C_R   0.242593 0.408841 0.364372 -0.072913
C12   C     C_R   0.757047 0.624410 0.410801 -0.055941
C13   C     C_R   0.207296 0.481582 0.446530 0.203844
C14   C     C_R   0.791674 0.525969 0.457435 0.204880
C15   C     C_3   0.513034 0.037959 0.627559 0.009971
C16   C     C_3   0.491970 0.963340 0.372314 -0.010875
C17   C     C_3   0.553403 0.954158 0.543271 -0.241365
C18   C     C_3   0.451532 0.046494 0.456619 -0.375936
C19   C     C_3   0.499972 0.877204 0.497487 -0.106416
C20   C     C_3   0.504548 0.123874 0.502649 -0.087349
C21   C     C_3   0.460421 0.959792 0.582106 0.000592
C22   C     C_3   0.544595 0.042005 0.418002 -0.003593
C23   C     C_R   0.389328 0.494853 0.499247 0.843396
C24   C     C_R   0.610408 0.501436 0.500157 0.875069
C25   C     C_3   0.505154 0.385605 0.050369 -0.124572
C26   C     C_3   0.494810 0.614255 0.949794 -0.105203
C27   C     C_3   0.546926 0.454402 0.953623 0.194011
C28   C     C_3   0.452987 0.545328 0.046491 0.205475
C29   C     C_3   0.458135 0.432302 0.952358 0.190401
C30   C     C_3   0.541854 0.567372 0.047563 0.175548
C31   C     C_R   0.884808 0.630882 0.457647 0.526303
C32   C     C_R   0.114259 0.387963 0.390688 0.529056
C33   C     C_R   0.874736 0.425141 0.361883 0.519906
C34   C     C_R   0.124040 0.612183 0.407607 0.517303
C35   C     C_R   0.934968 0.415853 0.346535 -0.105669
C36   C     C_R   0.063782 0.626963 0.400023 -0.116056
C37   C     C_R   0.969225 0.523673 0.378988 -0.052135
C38   C     C_R   0.029587 0.517107 0.375465 -0.051630
C39   C     C_R   0.943069 0.637020 0.420136 -0.034509
C40   C     C_R   0.055788 0.398870 0.354410 -0.022359
C41   C     C_R   0.961854 0.304112 0.299763 -0.011255
C42   C     C_R   0.036659 0.745617 0.419786 -0.022987
C43   C     C_R   0.022545 0.295346 0.303563 0.139759
C44   C     C_R   0.976001 0.750874 0.426808 0.166076
H1    H     H_    0.509564 0.289730 0.096517 0.182762
H2    H     H_    0.491509 0.710345 0.904225 0.220306
H3    H     H_    0.203137 0.600125 0.623090 0.166770
H4    H     H_    0.794598 0.348713 0.567241 0.165742
H5    H     H_    0.223776 0.358011 0.279254 0.204091
H6    H     H_    0.776619 0.702775 0.355141 0.201719
H7    H     H_    0.594822 0.913938 0.578959 0.174674
H8    H     H_    0.409716 0.085035 0.421785 0.153904
N1    N     N_R   0.851901 0.527159 0.425795 -0.340268
N2    N     N_R   0.147146 0.493872 0.413956 -0.337266
N3    N     N_3   0.499960 0.500030 0.863290 -0.107939
N4    N     N_3   0.500040 0.499970 0.136710 -0.104665
O1    O     O_R   0.500000 0.313960 0.616610 -0.663481
O2    O     O_R   0.500000 0.686040 0.383390 -0.648601
O3    O     O_R   0.500030 0.313950 0.383350 -0.582020
O4    O     O_R   0.499970 0.686050 0.616650 -0.575336
O5    O     O_R   0.416140 0.499970 0.616650 -0.594189
O6    O     O_R   0.583860 0.500030 0.383350 -0.589216
O7    O     O_R   0.416170 0.499960 0.383400 -0.635118
O8    O     O_R   0.583830 0.500040 0.616600 -0.621963
O9    O     O_2   0.861667 0.724681 0.531207 -0.548665
O10   O     O_2   0.137522 0.272769 0.410138 -0.546405
O11   O     O_2   0.838855 0.333727 0.314908 -0.543651
O12   O     O_2   0.159735 0.713879 0.410777 -0.578123
Zn1   Zn    Zn3+2 0.499980 0.500010 0.655740 0.956845
Zn2   Zn    Zn3+2 0.500020 0.499990 0.344260 0.965797
C45   C     C_2   0.927128 0.192437 0.257177 0.506537
H9    H     H_    0.905454 0.134375 0.333406 0.081090
O13   O     O_2   0.921070 0.167876 0.136521 -0.525444
C46   C     C_2   0.070694 0.864032 0.440700 0.478781
H10   H     H_    0.101279 0.896157 0.364333 0.115907
O14   O     O_2   0.064344 0.926754 0.543419 -0.534939
C47   C     C_3   0.602161 0.398357 0.900336 -0.776146
H11   H     H_    0.627135 0.357778 0.986658 0.250250
H12   H     H_    0.591560 0.322046 0.827139 0.255279
H13   H     H_    0.628703 0.473301 0.850441 0.249891
C48   C     C_3   0.397204 0.598735 0.100238 -0.788849
H14   H     H_    0.373536 0.645928 0.015797 0.235076
H15   H     H_    0.369846 0.520954 0.141807 0.252891
H16   H     H_    0.406629 0.668542 0.181160 0.241578
C49   C     C_3   0.409137 0.350519 0.896639 -0.807142
H17   H     H_    0.390496 0.292202 0.980455 0.255897
H18   H     H_    0.374991 0.410919 0.853452 0.245949
H19   H     H_    0.425042 0.287286 0.816194 0.236220
C50   C     C_3   0.591131 0.647765 0.103313 -0.725361
H20   H     H_    0.612887 0.698361 0.017990 0.239398
H21   H     H_    0.574283 0.718315 0.175402 0.259500
H22   H     H_    0.622860 0.586258 0.155419 0.244546
C51   C     C_3   0.051826 0.178001 0.249854 -0.773229
H23   H     H_    0.024695 0.121438 0.179403 0.240160
H24   H     H_    0.090519 0.205511 0.189991 0.261101
H25   H     H_    0.064073 0.115669 0.336322 0.266958
C52   C     C_3   0.946617 0.878720 0.427431 -0.716906
H26   H     H_    0.938156 0.907995 0.533768 0.285446
H27   H     H_    0.972993 0.953257 0.376377 0.191493
H28   H     H_    0.905821 0.875396 0.367950 0.244512
C53   C     C_3   0.314497 0.641557 0.683229 -0.791049
H29   H     H_    0.345619 0.707106 0.633462 0.240478
H30   H     H_    0.280347 0.699570 0.729686 0.235807
H31   H     H_    0.336194 0.589147 0.766475 0.248000
C54   C     C_3   0.683917 0.293930 0.610165 -0.792818
H32   H     H_    0.636327 0.287453 0.607119 0.240389
H33   H     H_    0.700222 0.210951 0.553985 0.263885
H34   H     H_    0.698381 0.286924 0.717993 0.243694
C55   C     C_2   0.335831 0.309175 0.311679 0.395293
H35   H     H_    0.379326 0.286304 0.342325 0.078380
O15   O     O_2   0.315548 0.256129 0.211825 -0.575676
C56   C     C_2   0.663226 0.733184 0.391865 0.384709
H36   H     H_    0.617995 0.737863 0.416682 0.046916
O16   O     O_2   0.684976 0.821953 0.329257 -0.573576
C57   C     C_2   0.525657 0.077876 0.771099 0.497933
H37   H     H_    0.494296 0.131115 0.827204 0.066462
O17   O     O_2   0.570989 0.049422 0.826046 -0.543668
C58   C     C_2   0.477315 0.923300 0.229914 0.425040
H38   H     H_    0.436271 0.877337 0.209597 0.073473
O18   O     O_2   0.510625 0.943956 0.136417 -0.565159
C59   C     C_2   0.412133 0.918233 0.672869 0.344277
H39   H     H_    0.368029 0.937570 0.643379 0.078593
O19   O     O_2   0.421987 0.862315 0.779581 -0.568247
C60   C     C_2   0.593007 0.085754 0.327906 0.474839
H40   H     H_    0.615930 0.017152 0.268059 0.148133
O20   O     O_2   0.606947 0.197462 0.321154 -0.566136

loop_
_geom_bond_atom_site_label_1
_geom_bond_atom_site_label_2
_ccdc_geom_bond_type
C51   H23   S    
C18   C21   S    
C36   C42   A    
C25   N4    S    
C26   N3    S    
C17   H7    S    
C56   O16   D    
C52   H26   S    
C28   N4    S    
C18   H8    S    
C49   H17   S    
C54   H33   S    
C53   H29   S    
C46   O14   D    
C60   O20   D    
C28   C29   S    
C35   C37   A    
C1    O1    A    
C1    O3    A    
C2    O4    A    
C49   H19   S    
C57   H37   S    
O6    Zn2   S    
C18   C20   S    
C31   O9    S    
C3    H3    S    
C58   H38   S    
C33   C35   A    
C40   C43   A    
C57   O17   D    
C24   O6    A    
C10   C56   S    
C50   H21   S    
C29   C49   S    
C3    C13   A    
C41   C45   S    
C23   O7    A    
C2    C19   S    
C51   H24   S    
C27   C30   S    
C25   C29   S    
C41   C43   A    
C42   C44   A    
C30   C50   S    
C32   N2    A    
C56   H36   S    
C48   H15   S    
C48   H14   S    
C47   H12   S    
C33   N1    A    
C15   C20   S    
C54   H34   S    
C5    C53   S    
C42   C46   S    
C46   H10   S    
C49   H18   S    
C4    C6    A    
C52   H27   S    
C34   O12   S    
C5    C7    A    
C17   C19   S    
C6    C8    A    
C29   N3    S    
C3    C5    A    
C47   H11   S    
C30   N4    S    
C9    C55   S    
C37   C38   A    
C11   H5    S    
C16   C58   S    
C44   C52   S    
O7    Zn2   S    
C23   O5    A    
O8    Zn1   S    
C31   N1    A    
C50   H22   S    
C9    C11   A    
C59   H39   S    
N3    Zn1   S    
C10   C12   A    
C8    C10   A    
C12   C14   A    
C26   C30   S    
C51   H25   S    
N4    Zn2   S    
C15   C57   S    
C25   C27   S    
C25   H1    S    
C48   H16   S    
C33   O11   S    
C32   O10   S    
C13   N2    S    
C4    H4    S    
C47   H13   S    
O5    Zn1   S    
C15   C17   S    
C1    C20   S    
C16   C22   S    
C52   H28   S    
C19   C21   S    
C28   C48   S    
O2    Zn2   S    
C20   C22   S    
C27   C47   S    
C12   H6    S    
C2    O2    A    
C22   C60   S    
C39   C44   A    
C53   H31   S    
C54   H32   S    
C26   C28   S    
C17   C22   S    
C53   H30   S    
C43   C51   S    
C55   O15   D    
C45   H9    S    
C37   C39   A    
C4    C14   A    
C55   H35   S    
C38   C40   A    
C11   C13   A    
C34   N2    A    
O4    Zn1   S    
C16   C19   S    
C7    C23   S    
C36   C38   A    
C8    C24   S    
C6    C54   S    
C31   C39   A    
C24   O8    A    
C27   N3    S    
C32   C40   A    
C21   C59   S    
C35   C41   A    
C58   O18   D    
C59   O19   D    
C26   H2    S    
O3    Zn2   S    
C7    C9    A    
C15   C21   S    
C14   N1    S    
C34   C36   A    
C16   C18   S    
C45   O13   D    
O1    Zn1   S    
C50   H20   S    
C60   H40   S    
