data_mof_unit_388.cif
_audit_creation_date              2012-12-10T16:44:42-0500
_audit_creation_method            fapswitch 2.2
_symmetry_space_group_name_H-M    P1
_symmetry_Int_Tables_number       1
_space_group_crystal_system       triclinic
_cell_length_a                    14.981781
_cell_length_b                    8.673194
_cell_length_c                    7.454646
_cell_angle_alpha                 102.919716
_cell_angle_beta                  94.146574
_cell_angle_gamma                 92.344148
_cell_volume                      940.038292507

loop_
_atom_site_label
_atom_site_type_symbol
_atom_type_description
_atom_site_fract_x
_atom_site_fract_y
_atom_site_fract_z
_atom_type_partial_charge
C1    C     C_R   0.497309 0.199771 0.453302 0.898707
C2    C     C_R   0.502691 0.800229 0.546697 0.898706
C3    C     C_R   0.030871 0.211174 0.381035 -0.177075
C4    C     C_R   0.969129 0.788826 0.618964 -0.177075
C5    C     C_2   0.495857 0.031826 0.427042 -0.347500
C6    C     C_2   0.504143 0.968174 0.572958 -0.347501
C7    C     C_R   0.329211 0.497032 0.502056 0.825324
C8    C     C_R   0.670789 0.502968 0.497944 0.825323
C9    C     C_R   0.819074 0.652281 0.552802 -0.047124
C10   C     C_R   0.180926 0.347719 0.447198 -0.047124
C11   C     C_R   0.767080 0.508034 0.494059 -0.121314
C12   C     C_R   0.232920 0.491966 0.505940 -0.121314
C13   C     C_R   0.806492 0.365038 0.433719 -0.245291
C14   C     C_R   0.193508 0.634962 0.566281 -0.245291
C15   C     C_R   0.899059 0.361035 0.435533 0.116739
C16   C     C_R   0.100941 0.638965 0.564467 0.116739
C17   C     C_R   0.953049 0.502764 0.497652 0.057482
C18   C     C_R   0.046951 0.497235 0.502348 0.057482
C19   C     C_R   0.913319 0.649669 0.555461 0.041983
C20   C     C_R   0.086681 0.350331 0.444539 0.041983
C21   C     C_R   0.938214 0.216717 0.377338 -0.191572
C22   C     C_R   0.061786 0.783283 0.622662 -0.191572
Cu1   Cu    Cu3+1 0.510010 0.517380 0.684380 1.000715
Cu2   Cu    Cu3+1 0.489990 0.482620 0.315620 1.000715
H1    H     H_    0.764585 0.256178 0.387943 0.148223
H2    H     H_    0.235415 0.743822 0.612057 0.148222
H3    H     H_    0.897029 0.107623 0.328204 0.190564
H4    H     H_    0.102971 0.892376 0.671796 0.190564
H5    H     H_    0.057915 0.097104 0.331839 0.181826
H6    H     H_    0.942085 0.902895 0.668161 0.181826
H7    H     H_    0.487928 0.960237 0.286436 0.188172
H8    H     H_    0.512072 0.039763 0.713564 0.188172
H9    H     H_    0.430078 0.377655 0.948626 0.240028
H10   H     H_    0.569922 0.622345 0.051374 0.240028
N1    N     N_2   0.474890 0.456420 0.038520 -0.213296
N2    N     N_2   0.525110 0.543580 0.961480 -0.213296
O1    O     O_R   0.506510 0.286130 0.619770 -0.596554
O2    O     O_R   0.493490 0.713870 0.380230 -0.596554
O3    O     O_R   0.489600 0.256770 0.308360 -0.563243
O4    O     O_R   0.510400 0.743230 0.691640 -0.563243
O5    O     O_R   0.378710 0.514640 0.655720 -0.593645
O6    O     O_R   0.621290 0.485360 0.344280 -0.593645
O7    O     O_R   0.361800 0.485290 0.344300 -0.547741
O8    O     O_R   0.638200 0.514710 0.655700 -0.547741
C23   C     C_2   0.774480 0.803929 0.605949 0.794248
O9    O     O_2   0.725922 0.824479 0.733120 -0.583046
O10   O     O_R   0.787967 0.922605 0.509390 -0.783783
H11   H     H_    0.753973 0.019958 0.557787 0.327175
C24   C     C_2   0.225520 0.196071 0.394051 0.794247
O11   O     O_2   0.274078 0.175520 0.266881 -0.583046
O12   O     O_R   0.212033 0.077395 0.490611 -0.783783
H12   H     H_    0.246027 0.980042 0.442214 0.327175

loop_
_geom_bond_atom_site_label_1
_geom_bond_atom_site_label_2
_ccdc_geom_bond_type
C5    H7    S    
C6    H8    S    
Cu1   Cu2   S    
C9    C23   S    
C10   C24   S    
C7    O7    A    
C4    C22   A    
C2    O2    A    
Cu2   O2    S    
N1    N2    D    
Cu1   O5    S    
C1    O1    A    
C9    C11   A    
C23   O10   S    
C17   C18   A    
C21   H3    S    
C3    C20   A    
C22   H4    S    
C23   O9    D    
C14   H2    S    
C11   C13   A    
C13   H1    S    
C2    C6    S    
C10   C12   A    
C8    C11   S    
C1    C5    S    
H9    N1    S    
Cu1   O1    S    
C12   C14   A    
Cu1   N2    S    
H10   N2    S    
C13   C15   A    
C5    C6    D    
C14   C16   A    
C7    C12   S    
C3    C21   A    
Cu2   N1    S    
C1    O3    A    
C8    O6    A    
Cu1   O4    S    
O10   H11   S    
C2    O4    A    
C15   C21   A    
Cu2   O3    S    
Cu2   O6    S    
C18   C20   A    
C16   C18   A    
C24   O11   D    
C3    H5    S    
Cu2   O7    S    
C16   C22   A    
C17   C19   A    
C15   C17   A    
C4    C19   A    
C9    C19   A    
C4    H6    S    
Cu1   O8    S    
O12   H12   S    
C7    O5    A    
C10   C20   A    
C24   O12   S    
C8    O8    A    
