data_mof_unit_1236.cif
_audit_creation_date              2013-03-05T15:41:04-0500
_audit_creation_method            fapswitch 2.2
_symmetry_space_group_name_H-M    P1
_symmetry_Int_Tables_number       1
_space_group_crystal_system       triclinic
_cell_length_a                    10.928624
_cell_length_b                    10.977927
_cell_length_c                    18.709972
_cell_angle_alpha                 90.315605
_cell_angle_beta                  89.914889
_cell_angle_gamma                 60.384956
_cell_volume                      1951.41455617

loop_
_atom_site_label
_atom_site_type_symbol
_atom_site_description
_atom_site_fract_x
_atom_site_fract_y
_atom_site_fract_z
_atom_type_partial_charge
O1    O     O_R   0.507110 0.256280 0.580300 -0.506467
O2    O     O_R   0.280830 0.527190 0.577940 -0.527279
C1    C     C_R   0.238740 0.644106 0.609120 0.528469
O3    O     O_R   0.261360 0.738990 0.584270 -0.538825
O4    O     O_R   0.532590 0.694780 0.574370 -0.478277
C2    C     C_R   0.650188 0.618375 0.603472 0.562633
O5    O     O_R   0.744470 0.503750 0.577000 -0.538172
O6    O     O_R   0.698520 0.277230 0.571620 -0.505123
C3    C     C_R   0.626229 0.231489 0.603020 0.540138
O7    O     O_R   0.498530 0.256920 0.419280 -0.510406
O8    O     O_R   0.272880 0.527780 0.428680 -0.506679
C4    C     C_R   0.215909 0.651021 0.404471 0.553444
O9    O     O_R   0.252780 0.739630 0.423250 -0.512366
O10   O     O_R   0.524640 0.695370 0.425100 -0.489450
C5    C     C_R   0.641254 0.620849 0.392613 0.553977
O11   O     O_R   0.735890 0.504390 0.415980 -0.513744
O12   O     O_R   0.690560 0.277820 0.422350 -0.504192
C6    C     C_R   0.614297 0.233459 0.393470 0.552711
Cr1   Cr    Cr6+3 0.393010 0.398050 0.501480 1.015319
Cr2   Cr    Cr6+3 0.398820 0.707980 0.501630 1.017404
Cr3   Cr    Cr6+3 0.708140 0.393940 0.496850 1.004031
O13   O     O_3   0.499990 0.499990 0.499980 -0.257447
C7    C     C_3   0.534481 0.778907 0.791997 0.137286
H1    H     H_    0.464774 0.747247 0.820251 0.052138
C8    C     C_3   0.518152 0.763324 0.710535 0.184357
H2    H     H_    0.438752 0.728018 0.703094 0.080204
H3    H     H_    0.790138 0.798487 0.782415 0.180983
H4    H     H_    0.745008 0.785557 0.663590 0.161415
C9    C     C_3   0.797944 0.695749 0.770194 -0.202782
C10   C     C_3   0.716517 0.523685 0.800479 -0.308264
C11   C     C_3   0.690446 0.673140 0.815192 0.010809
H5    H     H_    0.823869 0.443113 0.817627 0.165416
H6    H     H_    0.639940 0.504672 0.830871 0.111935
C12   C     C_3   0.661440 0.644532 0.679453 0.045522
C13   C     C_3   0.776706 0.684114 0.690121 -0.237268
C14   C     C_3   0.701696 0.506436 0.720410 -0.286911
H7    H     H_    0.620571 0.474695 0.711541 0.119496
H8    H     H_    0.804326 0.420835 0.700330 0.156757
H9    H     H_    0.907299 0.614815 0.784047 0.139630
H10   H     H_    0.877662 0.603863 0.665423 0.119281
C15   C     C_2   0.667196 0.172259 0.674244 -0.146838
C16   C     C_2   0.684302 0.176638 0.830931 -0.094155
C17   C     C_2   0.794052 0.140124 0.786779 -0.154295
C18   C     C_2   0.772388 0.174490 0.710334 -0.192960
H11   H     H_    0.901393 0.076748 0.805507 0.178108
H12   H     H_    0.847238 0.195829 0.682940 0.145911
H13   H     H_    0.577416 0.241546 0.811806 0.125853
H14   H     H_    0.599240 0.140303 0.700521 0.179312
C19   C     C_2   0.178954 0.659828 0.681038 0.265637
C20   C     C_2   0.201452 0.661189 0.841784 -0.082736
C21   C     C_2   0.203709 0.559761 0.800990 -0.146669
C22   C     C_2   0.242620 0.549312 0.725442 -0.142476
H15   H     H_    0.168682 0.489551 0.821298 0.151449
H16   H     H_    0.324707 0.447977 0.706090 0.114869
H17   H     H_    0.240974 0.727197 0.820395 0.134016
C23   C     C_2   0.649680 0.646347 0.317292 -0.092606
C24   C     C_2   0.633737 0.665767 0.159676 -0.106377
C25   C     C_2   0.707075 0.546558 0.195527 -0.161955
C26   C     C_2   0.688126 0.537530 0.271938 -0.148496
H18   H     H_    0.793394 0.455050 0.170165 0.152831
H19   H     H_    0.719539 0.433533 0.292199 0.153425
H20   H     H_    0.542117 0.754447 0.183585 0.112248
H21   H     H_    0.616907 0.751708 0.299039 0.095887
C27   C     C_2   0.633596 0.196419 0.318787 -0.102017
C28   C     C_2   0.637491 0.200949 0.164182 -0.108541
C29   C     C_2   0.523485 0.227872 0.201581 -0.165604
C30   C     C_2   0.517739 0.255543 0.277340 -0.152026
H22   H     H_    0.439612 0.214015 0.178941 0.157558
H23   H     H_    0.413162 0.319760 0.300038 0.158170
H24   H     H_    0.717225 0.222048 0.186264 0.097697
H25   H     H_    0.739119 0.132014 0.297446 0.083062
C31   C     C_2   0.122853 0.680230 0.344784 -0.110210
C32   C     C_2   0.113778 0.691252 0.190612 -0.086340
C33   C     C_2   0.043362 0.803569 0.234055 -0.146845
C34   C     C_2   0.075826 0.799056 0.309227 -0.167080
H26   H     H_    0.971086 0.906334 0.212577 0.152575
H27   H     H_    0.079082 0.888691 0.332002 0.153270
H28   H     H_    0.187433 0.587218 0.209840 0.086967
H29   H     H_    0.110924 0.594413 0.323315 0.107762
O14   O     O_R   0.089190 0.825870 0.932320 -0.501636
O15   O     O_R   0.819070 0.053960 0.931440 -0.507626
C35   C     C_R   0.702302 0.104255 0.898432 0.558986
O16   O     O_R   0.607070 0.076440 0.916460 -0.446693
O17   O     O_R   0.647110 0.806550 0.917690 -0.449174
C36   C     C_R   0.719051 0.686054 0.890395 0.536354
O18   O     O_R   0.837080 0.593860 0.915300 -0.532605
O19   O     O_R   0.064770 0.636080 0.932550 -0.501199
C37   C     C_R   0.119931 0.706192 0.907917 0.554073
O20   O     O_R   0.068250 0.829200 0.092940 -0.514111
O21   O     O_R   0.799650 0.057040 0.080330 -0.513771
C38   C     C_R   0.673210 0.113925 0.101357 0.545308
O22   O     O_R   0.586130 0.079760 0.077080 -0.514376
O23   O     O_R   0.627700 0.809630 0.066580 -0.498658
C39   C     C_R   0.692376 0.688810 0.094759 0.547752
O24   O     O_R   0.816140 0.597180 0.075920 -0.513362
O25   O     O_R   0.045360 0.639170 0.081440 -0.495762
C40   C     C_R   0.086398 0.713563 0.115296 0.550509
Cr4   Cr    Cr6+3 0.937950 0.938450 0.008940 1.033505
Cr5   Cr    Cr6+3 0.626180 0.937030 0.994750 1.093945
Cr6   Cr    Cr6+3 0.937790 0.625760 0.001410 1.027236
O26   O     O_3   0.833980 0.833750 0.001700 -0.264275
N1    N     N_R   0.486223 0.925800 0.811648 0.123227
O27   O     O_R   0.547132 0.992129 0.785790 -0.348659
O28   O     O_R   0.376626 0.993113 0.852953 -0.358890
O29   O     O_3   0.069688 0.786536 0.705998 -0.589880
C41   C     C_3   0.967753 0.853148 0.652339 -0.119821
H30   H     H_    0.864104 0.908757 0.678795 0.153376
H31   H     H_    0.960523 0.779618 0.613418 0.091460
H32   H     H_    0.987506 0.930137 0.623675 0.145043
O30   O     O_3   0.478051 0.890783 0.673725 -0.527553
C42   C     C_3   0.330065 0.974345 0.669475 -0.057998
H33   H     H_    0.303280 0.084916 0.661822 0.143364
H34   H     H_    0.274647 0.970389 0.718661 0.136750
H35   H     H_    0.290858 0.942719 0.622368 0.147070

loop_
_geom_bond_atom_site_label_1
_geom_bond_atom_site_label_2
_geom_bond_distance
_ccdc_geom_bond_type
C29   H22   1.086747 S    
O19   C37   1.276670 A    
O23   C39   1.272411 A    
C11   C36   1.463062 S    
H3    C9    1.110679 S    
C32   C33   1.349989 D    
C42   H33   1.109262 S    
C16   C35   1.456861 S    
O15   C35   1.274543 A    
C1    C19   1.466529 S    
C24   H20   1.086681 S    
O4    Cr2   1.951701 S    
C36   O18   1.273573 A    
C32   C40   1.438013 S    
O8    Cr1   1.945734 S    
O11   Cr3   2.057630 S    
C33   H26   1.087809 S    
C14   H7    1.113609 S    
C31   H29   1.087779 S    
C10   C11   1.543252 S    
C7    N1    1.471763 S    
C41   H30   1.101068 S    
C25   H18   1.086756 S    
C5    O11   1.263314 A    
C12   C13   1.535025 S    
C27   H25   1.085777 S    
O30   C42   1.413623 S    
H4    C13   1.109915 S    
C18   H12   1.084511 S    
O6    C3    1.270997 A    
C7    H1    1.114947 S    
O18   Cr6   2.075979 S    
O23   Cr5   1.939152 S    
C10   H6    1.113474 S    
C20   C37   1.457325 S    
C8    C12   1.568960 S    
C29   C30   1.442742 S    
C4    C31   1.438465 S    
O16   Cr5   2.059415 S    
Cr3   O13   1.978609 S    
N1    O27   1.299741 A    
C31   C34   1.325266 D    
C22   H16   1.087049 S    
O6    Cr3   1.939611 S    
O1    Cr1   2.065086 S    
C26   H19   1.087542 S    
C33   C34   1.446164 S    
C21   C22   1.462937 S    
C27   C30   1.349821 D    
O10   Cr2   1.940102 S    
Cr1   O13   1.978236 S    
O1    C3    1.265787 A    
O17   C36   1.261829 A    
C38   O22   1.266823 A    
O24   Cr6   2.054495 S    
C19   O29   1.388678 S    
C20   C21   1.336575 D    
C8    H2    1.120147 S    
O5    Cr3   2.077148 S    
O12   Cr3   1.956563 S    
C2    C12   1.466087 S    
O20   C40   1.258205 A    
C21   H15   1.085985 S    
C7    C11   1.579083 S    
C17   C18   1.470646 S    
C34   H27   1.086794 S    
O7    Cr1   2.073211 S    
C32   H28   1.085587 S    
C19   C22   1.350843 D    
O25   C40   1.275347 A    
C9    H9    1.113033 S    
O12   C6    1.274109 A    
C23   H21   1.085372 S    
C42   H34   1.113713 S    
N1    O28   1.301569 A    
C17   H11   1.086382 S    
C8    O30   1.424677 S    
Cr5   O26   1.979244 S    
Cr2   O13   1.985169 S    
C28   C29   1.326839 D    
C24   C39   1.452990 S    
C15   C18   1.344650 D    
C16   C17   1.341602 D    
O21   C38   1.263722 A    
C1    O3    1.273483 A    
O19   Cr6   1.936537 S    
C28   C38   1.436807 S    
O9    Cr2   2.069558 S    
O14   Cr4   2.066142 S    
O2    Cr1   1.952955 S    
O17   Cr5   1.958391 S    
O8    C4    1.264236 A    
C2    O5    1.265143 A    
Cr4   O26   1.979903 S    
O29   C41   1.410662 S    
C9    C13   1.530654 S    
C3    C15   1.456931 S    
C20   H17   1.088030 S    
C23   C26   1.347352 D    
C10   C14   1.527821 S    
O20   Cr4   2.067777 S    
C5    C23   1.449915 S    
C14   H8    1.111482 S    
O2    C1    1.267558 A    
C25   C26   1.455189 S    
C9    C11   1.561458 S    
C10   H5    1.113712 S    
C6    C27   1.438902 S    
C24   C25   1.333994 D    
O4    C2    1.262312 A    
C41   H31   1.115721 S    
O7    C6    1.254976 A    
O25   Cr6   1.954384 S    
Cr6   O26   1.984999 S    
C15   H14   1.083814 S    
C13   H10   1.113689 S    
C42   H35   1.107121 S    
C12   C14   1.560023 S    
C16   H13   1.087050 S    
C7    C8    1.553135 S    
C39   O24   1.271033 A    
O3    Cr2   2.060392 S    
C4    O9    1.271255 A    
O14   C37   1.266549 A    
C35   O16   1.266634 A    
O15   Cr4   1.948346 S    
O10   C5    1.274624 A    
C30   H23   1.087414 S    
O21   Cr4   1.947688 S    
C28   H24   1.087736 S    
O22   Cr5   2.076799 S    
C41   H32   1.110642 S    
