data_mof_unit_1861.cif
_audit_creation_date              2012-12-10T19:00:42-0500
_audit_creation_method            fapswitch 2.2
_symmetry_space_group_name_H-M    P1
_symmetry_Int_Tables_number       1
_space_group_crystal_system       triclinic
_cell_length_a                    15.046455
_cell_length_b                    10.813291
_cell_length_c                    9.56557
_cell_angle_alpha                 89.679218
_cell_angle_beta                  90.10646
_cell_angle_gamma                 89.950191
_cell_volume                      1556.3067856

loop_
_atom_site_label
_atom_site_type_symbol
_atom_type_description
_atom_site_fract_x
_atom_site_fract_y
_atom_site_fract_z
_atom_type_partial_charge
C1    C     C_R   0.498433 0.262514 0.500406 0.815486
C2    C     C_R   0.907009 0.558636 0.609544 0.105444
C3    C     C_R   0.953417 0.393529 0.276280 -0.208108
C4    C     C_R   0.046106 0.394901 0.275349 -0.204667
C5    C     C_R   0.093060 0.448765 0.386088 0.108468
C6    C     C_R   0.046629 0.502446 0.498616 0.061999
C7    C     C_R   0.093296 0.555699 0.611374 0.108335
C8    C     C_R   0.046582 0.610487 0.721582 -0.204743
C9    C     C_R   0.953898 0.612656 0.720224 -0.208661
C10   C     C_R   0.185697 0.449611 0.386613 -0.236597
C11   C     C_R   0.232024 0.500961 0.499454 -0.057071
C12   C     C_R   0.328762 0.500187 0.499870 0.810687
C13   C     C_R   0.185924 0.553361 0.611692 -0.241377
C14   C     C_R   0.505360 0.062373 0.623470 0.056296
C15   C     C_R   0.488944 0.129721 0.501737 -0.122611
C16   C     C_R   0.457290 0.067537 0.383268 -0.230684
C17   C     C_R   0.454715 0.938372 0.381034 0.239847
C18   C     C_R   0.486001 0.870870 0.498953 -0.131607
C19   C     C_R   0.504588 0.935408 0.621657 0.075183
C20   C     C_3   0.581101 0.926362 0.721345 0.211024
C21   C     C_3   0.582080 0.067170 0.722713 -0.474247
C22   C     C_R   0.577072 0.484724 0.074111 0.249340
C23   C     C_R   0.496210 0.737552 0.499300 0.879400
C24   C     C_R   0.422794 0.508731 0.073797 -0.032170
C25   C     C_R   0.422803 0.508893 0.925629 -0.068477
C26   C     C_R   0.577018 0.483763 0.926773 0.259133
C27   C     C_3   0.657063 0.564611 0.920650 -0.510559
C28   C     C_3   0.656149 0.567602 0.078685 -0.477939
C29   C     C_R   0.671249 0.500655 0.499958 0.827316
C30   C     C_R   0.814405 0.559501 0.607832 -0.234085
C31   C     C_R   0.768018 0.501775 0.499312 -0.060973
C32   C     C_R   0.814138 0.445878 0.389320 -0.254976
C33   C     C_R   0.906754 0.447195 0.387217 0.112102
C34   C     C_R   0.953449 0.502748 0.498465 0.063642
Cu1   Cu    Cu3+1 0.500000 0.499980 0.640670 0.956808
Cu2   Cu    Cu3+1 0.500000 0.500020 0.359330 0.974280
H1    H     H_    0.778486 0.606862 0.689462 0.150451
H2    H     H_    0.563140 0.881922 0.822750 0.122460
H3    H     H_    0.562743 0.106279 0.825484 0.173631
H4    H     H_    0.642376 0.109185 0.674954 0.210713
H5    H     H_    0.360152 0.517690 0.127581 0.151883
H6    H     H_    0.360155 0.518056 0.871467 0.143712
H7    H     H_    0.715509 0.513904 0.879470 0.193074
H8    H     H_    0.643571 0.655966 0.870994 0.220302
H9    H     H_    0.715150 0.521766 0.125583 0.193179
H10   H     H_    0.777947 0.399980 0.306462 0.141529
H11   H     H_    0.640445 0.660384 0.121815 0.229938
H12   H     H_    0.918230 0.350920 0.190148 0.145338
H13   H     H_    0.081067 0.353349 0.188484 0.147677
H14   H     H_    0.221786 0.408524 0.300466 0.144391
H15   H     H_    0.222190 0.594020 0.698066 0.146150
H16   H     H_    0.081724 0.651917 0.808494 0.150383
H17   H     H_    0.918878 0.655684 0.806116 0.147442
H18   H     H_    0.436968 0.118814 0.290961 0.188507
N1    N     N_R   0.500570 0.500930 0.147930 -0.182511
N2    N     N_R   0.500570 0.500890 0.852020 -0.188461
O1    O     O_R   0.500000 0.319640 0.618810 -0.574424
O2    O     O_R   0.500010 0.319680 0.381230 -0.590364
O3    O     O_R   0.370250 0.499950 0.618800 -0.601669
O4    O     O_R   0.370260 0.499990 0.381220 -0.589766
O5    O     O_R   0.499990 0.680320 0.618770 -0.578572
O6    O     O_R   0.500000 0.680360 0.381190 -0.535247
O7    O     O_R   0.629740 0.500010 0.618780 -0.583871
O8    O     O_R   0.629750 0.500050 0.381200 -0.588408
Br1   Br    Br    0.409518 0.863766 0.213162 -0.544950
O9    O     O_3   0.656837 0.876519 0.657655 -0.717409
H19   H     H_    0.702971 0.872699 0.731767 0.319652

loop_
_geom_bond_atom_site_label_1
_geom_bond_atom_site_label_2
_ccdc_geom_bond_type
C25   H6    S    
C2    C9    A    
C11   C12   S    
C29   O7    A    
C28   H11   S    
C22   N1    A    
C1    C15   S    
C1    O1    A    
C20   H2    S    
C8    H16   S    
C17   Br1   S    
C19   C20   S    
C21   H3    S    
C25   N2    A    
C23   O5    A    
C4    H13   S    
Cu1   O1    S    
C31   C32   A    
C32   C33   A    
C2    C34   A    
Cu2   O8    S    
C17   C18   A    
C29   O8    A    
C5    C10   A    
C29   C31   S    
Cu2   N1    S    
C22   C28   S    
C1    O2    A    
C24   C25   A    
C24   N1    A    
C24   H5    S    
C11   C13   A    
C26   C27   S    
C6    C7    A    
C21   H4    S    
C10   H14   S    
Cu2   O6    S    
C5    C6    A    
C14   C19   A    
C14   C21   S    
C20   O9    S    
C33   C34   A    
Cu2   O2    S    
C30   C31   A    
Cu1   O3    S    
C16   H18   S    
C28   H9    S    
C4    C5    A    
C9    H17   S    
C10   C11   A    
C3    C33   A    
C18   C23   S    
C12   O4    A    
C27   H7    S    
C3    H12   S    
C7    C13   A    
O9    H19   S    
C20   C21   S    
C6    C34   A    
Cu1   O5    S    
C18   C19   A    
C22   C26   A    
C27   C28   S    
C7    C8    A    
C14   C15   A    
C16   C17   A    
C2    C30   A    
Cu1   O7    S    
Cu1   N2    S    
C13   H15   S    
C12   O3    A    
C32   H10   S    
C27   H8    S    
C23   O6    A    
C3    C4    A    
C15   C16   A    
C30   H1    S    
C8    C9    A    
Cu2   O4    S    
Cu1   Cu2   S    
C26   N2    A    
