data_mof_unit_2289.cif
_audit_creation_date              2013-03-05T15:55:02-0500
_audit_creation_method            fapswitch 2.2
_symmetry_space_group_name_H-M    P1
_symmetry_Int_Tables_number       1
_space_group_crystal_system       triclinic
_cell_length_a                    23.405897
_cell_length_b                    10.651045
_cell_length_c                    9.872719
_cell_angle_alpha                 89.085448
_cell_angle_beta                  89.891483
_cell_angle_gamma                 91.670811
_cell_volume                      2459.87514857

loop_
_atom_site_label
_atom_site_type_symbol
_atom_site_description
_atom_site_fract_x
_atom_site_fract_y
_atom_site_fract_z
_atom_type_partial_charge
O1    O     O_R   0.500000 0.316780 0.614690 -0.661634
O2    O     O_R   0.500000 0.316750 0.385360 -0.594153
C1    C     C_R   0.506253 0.260610 0.501806 0.877729
O3    O     O_R   0.416160 0.499970 0.614690 -0.617681
O4    O     O_R   0.416150 0.499950 0.385360 -0.658732
C2    C     C_R   0.389299 0.497557 0.500100 0.831971
Zn1   Zn    Zn3+2 0.500000 0.500020 0.653130 0.959448
Zn2   Zn    Zn3+2 0.500000 0.499980 0.346870 0.992811
O5    O     O_R   0.500000 0.683250 0.614640 -0.571714
O6    O     O_R   0.500000 0.683220 0.385310 -0.590542
O7    O     O_R   0.583850 0.500050 0.614640 -0.628474
O8    O     O_R   0.583840 0.500030 0.385310 -0.570626
C3    C     C_R   0.493845 0.739234 0.499566 1.005498
C4    C     C_R   0.610476 0.502288 0.500301 0.999279
C5    C     C_R   0.882928 0.600115 0.508947 0.542892
N1    N     N_R   0.851814 0.495855 0.470607 -0.332413
C6    C     C_R   0.877721 0.388080 0.433677 0.540264
C7    C     C_R   0.937295 0.381157 0.438284 -0.059989
C8    C     C_R   0.969949 0.487703 0.476505 -0.025736
C9    C     C_R   0.942543 0.598866 0.509884 -0.061648
C10   C     C_R   0.964438 0.269913 0.407028 -0.292045
C11   C     C_R   0.024248 0.263829 0.408285 0.485895
C12   C     C_R   0.057228 0.370350 0.449255 -0.087960
C13   C     C_R   0.029876 0.482901 0.482440 -0.151998
C14   C     C_R   0.062267 0.590734 0.521773 -0.084060
C15   C     C_R   0.034417 0.702579 0.554869 0.485215
C16   C     C_R   0.974838 0.705852 0.545330 -0.297070
C17   C     C_R   0.117131 0.368803 0.457233 0.521699
N2    N     N_R   0.147428 0.473694 0.495379 -0.371407
C18   C     C_R   0.121871 0.582919 0.526955 0.527399
O9    O     O_2   0.856165 0.703755 0.549385 -0.554823
O10   O     O_2   0.845853 0.288186 0.392441 -0.569810
H1    H     H_    0.939189 0.186519 0.382887 0.197654
O11   O     O_2   0.145356 0.264082 0.427250 -0.509988
O12   O     O_2   0.154595 0.683455 0.562335 -0.528996
H2    H     H_    0.953983 0.793134 0.565211 0.194208
C19   C     C_R   0.237209 0.474405 0.621025 -0.120585
H3    H     H_    0.213670 0.472255 0.715610 0.136280
C20   C     C_R   0.296525 0.482661 0.622362 -0.242262
H4    H     H_    0.318363 0.485675 0.718941 0.173251
C21   C     C_R   0.327014 0.488608 0.499689 -0.045812
C22   C     C_R   0.297540 0.483786 0.376031 -0.228558
H5    H     H_    0.320091 0.487469 0.280082 0.164232
C23   C     C_R   0.238316 0.475360 0.375105 -0.109211
H6    H     H_    0.215668 0.474233 0.279555 0.134074
C24   C     C_R   0.208199 0.471521 0.497389 0.314961
C25   C     C_R   0.761268 0.413555 0.563083 -0.185033
H7    H     H_    0.784325 0.343607 0.619862 0.173947
C26   C     C_R   0.702468 0.420574 0.578742 0.388383
C27   C     C_R   0.672556 0.509740 0.501403 -0.304249
C28   C     C_R   0.702810 0.603568 0.424556 0.247671
C29   C     C_R   0.761652 0.591571 0.407317 -0.184204
H8    H     H_    0.785810 0.659004 0.345223 0.207212
C30   C     C_R   0.790817 0.497744 0.476661 0.157119
C31   C     C_R   0.517811 0.107572 0.760027 -0.116750
H9    H     H_    0.544282 0.191475 0.772351 0.178778
C32   C     C_R   0.498374 0.045421 0.877318 -0.258644
H10   H     H_    0.507781 0.084321 0.975693 0.197492
C33   C     C_R   0.464480 0.936669 0.867297 -0.237346
H11   H     H_    0.446095 0.893223 0.957864 0.155842
C34   C     C_R   0.454243 0.883638 0.740675 0.542774
C35   C     C_R   0.481800 0.936995 0.623194 -0.048078
C36   C     C_R   0.504910 0.058882 0.630512 0.001210
C37   C     C_R   0.513822 0.126733 0.507189 -0.208350
C38   C     C_R   0.518842 0.063518 0.384334 0.486581
H12   H     H_    0.510336 0.889390 0.286325 0.173166
C39   C     C_R   0.505405 0.937359 0.381339 -0.279245
C40   C     C_R   0.488787 0.873122 0.499818 -0.203581
C41   C     C_R   0.424535 0.335994 0.143124 -0.087050
H13   H     H_    0.421783 0.329856 0.250508 0.201027
C42   C     C_R   0.387766 0.254679 0.073977 -0.196759
H14   H     H_    0.359043 0.191135 0.129655 0.152142
C43   C     C_R   0.387939 0.254654 0.933857 -0.198151
H15   H     H_    0.359481 0.190885 0.880142 0.151046
C44   C     C_R   0.424922 0.335887 0.862236 -0.129882
H16   H     H_    0.422909 0.329370 0.754992 0.204234
C45   C     C_R   0.462810 0.419474 0.929033 0.143471
C46   C     C_R   0.462678 0.419636 0.073747 0.070467
N3    N     N_R   0.499460 0.498800 0.142780 -0.156561
C47   C     C_R   0.536521 0.577060 0.070664 0.506093
H17   H     H_    0.564440 0.635076 0.865733 0.162112
C48   C     C_R   0.535893 0.575868 0.925639 -0.262762
N4    N     N_R   0.499440 0.498720 0.857170 -0.132482
O13   O     O_3   0.674458 0.338294 0.668360 -0.643468
C49   C     C_3   0.668871 0.396669 0.795888 0.136743
H18   H     H_    0.626453 0.367890 0.838762 0.157403
H19   H     H_    0.669435 0.501610 0.789336 0.136918
C50   C     C_3   0.714999 0.353291 0.894537 -0.378329
H20   H     H_    0.707709 0.251892 0.919228 0.227515
H21   H     H_    0.757919 0.365999 0.847670 0.229195
C51   C     C_3   0.714227 0.428839 0.024633 -0.941384
H22   H     H_    0.725241 0.529056 0.001963 0.264566
H23   H     H_    0.746465 0.392606 0.096474 0.282814
H24   H     H_    0.671349 0.421828 0.072874 0.272340
N5    N     N_R   0.676312 0.716985 0.376717 0.223434
O14   O     O_R   0.626966 0.748895 0.423809 -0.416719
O15   O     O_R   0.706662 0.802300 0.310890 -0.436140
O16   O     O_3   0.536149 0.125020 0.265882 -0.637962
C52   C     C_3   0.595017 0.105466 0.243392 0.033721
H25   H     H_    0.601971 0.102830 0.132169 0.151581
H26   H     H_    0.609990 0.014456 0.285831 0.176657
C53   C     C_3   0.631473 0.213746 0.300514 -0.351978
H27   H     H_    0.620218 0.302578 0.248094 0.238545
H28   H     H_    0.622769 0.223099 0.410421 0.227906
C54   C     C_3   0.695060 0.191482 0.281577 -0.839288
H29   H     H_    0.707692 0.107351 0.341005 0.303147
H30   H     H_    0.720307 0.274152 0.317571 0.279271
H31   H     H_    0.705001 0.177247 0.173003 0.254667
O17   O     O_3   0.416807 0.780902 0.734029 -0.632750
C55   C     C_3   0.364375 0.817672 0.676661 0.061572
H32   H     H_    0.346185 0.736323 0.620914 0.176028
H33   H     H_    0.368868 0.896292 0.600861 0.117493
C56   C     C_3   0.322452 0.851700 0.788586 -0.403563
H34   H     H_    0.318181 0.772309 0.862730 0.237324
H35   H     H_    0.339084 0.935891 0.842506 0.214112
C57   C     C_3   0.263695 0.879332 0.730631 -0.852796
H36   H     H_    0.266765 0.959910 0.657891 0.267550
H37   H     H_    0.234220 0.903260 0.813985 0.257325
H38   H     H_    0.245889 0.795537 0.678211 0.304066
O18   O     O_3   0.577232 0.646216 0.142842 -0.592568
C58   C     C_3   0.591461 0.764901 0.082931 0.099357
H39   H     H_    0.594950 0.832689 0.166369 0.196730
H40   H     H_    0.557839 0.801837 0.014484 0.101510
C59   C     C_3   0.649903 0.763092 0.011884 -0.339872
H41   H     H_    0.682188 0.725251 0.082217 0.271429
H42   H     H_    0.648752 0.700762 0.923298 0.190619
C60   C     C_3   0.669262 0.894593 0.964338 -0.891348
H43   H     H_    0.636954 0.935306 0.895386 0.263519
H44   H     H_    0.710428 0.889640 0.908886 0.278178
H45   H     H_    0.675706 0.956697 0.052584 0.265917
O19   O     O_3   0.050584 0.150892 0.384607 -0.606325
C61   C     C_3   0.033903 0.097313 0.259664 0.098872
H46   H     H_    0.072982 0.088561 0.196819 0.176787
H47   H     H_    0.003986 0.154641 0.198221 0.119025
C62   C     C_3   0.007905 0.965737 0.286433 -0.330662
H48   H     H_    0.040305 0.906670 0.336331 0.270836
H49   H     H_    0.970615 0.971457 0.355628 0.221054
C63   C     C_3   0.988631 0.903174 0.155696 -0.951687
H50   H     H_    0.954892 0.958615 0.105914 0.272800
H51   H     H_    0.970839 0.807484 0.179282 0.275689
H52   H     H_    0.025382 0.894962 0.085338 0.260398
O20   O     O_3   0.066022 0.811873 0.581137 -0.596345
C64   C     C_3   0.051055 0.864378 0.706932 0.083649
H53   H     H_    0.089163 0.861536 0.773808 0.175319
H54   H     H_    0.015682 0.813081 0.762496 0.117132
C65   C     C_3   0.035474 0.001536 0.683649 -0.287319
H55   H     H_    0.072390 0.053743 0.636256 0.279440
H56   H     H_    0.998490 0.006195 0.613426 0.226336
C66   C     C_3   0.020103 0.064588 0.815975 -0.985232
H57   H     H_    0.982130 0.016311 0.863054 0.273672
H58   H     H_    0.009799 0.164162 0.795014 0.276197
H59   H     H_    0.056638 0.062140 0.887692 0.260904

loop_
_geom_bond_atom_site_label_1
_geom_bond_atom_site_label_2
_geom_bond_distance
_ccdc_geom_bond_type
C64   C65   1.529916 S    
Zn1   N4    2.014271 S    
C31   H9    1.081102 S    
C47   O18   1.391658 S    
C11   O19   1.390411 S    
C62   C63   1.525011 S    
C7    C10   1.399126 A    
C21   C22   1.404318 A    
C8    C9    1.406373 A    
C34   O17   1.384198 S    
H17   C48   1.075148 S    
C62   H48   1.110379 S    
C20   C21   1.404177 A    
C1    C37   1.442164 S    
C29   H8    1.082744 S    
Zn1   O7    1.998318 S    
C54   H30   1.109617 S    
C15   C16   1.399282 A    
C19   H3    1.082911 S    
C18   O12   1.349230 S    
C26   O13   1.385713 S    
C17   N2    1.364207 A    
C38   O16   1.385305 S    
C65   H55   1.112145 S    
C66   H58   1.110810 S    
O4    C2    1.293944 A    
O7    C4    1.287955 A    
C32   C33   1.389685 A    
C10   H1    1.082453 S    
C45   N4    1.373765 A    
C5    N1    1.368977 A    
O16   C52   1.417117 S    
C57   H36   1.110856 S    
C53   C54   1.525504 S    
C64   H54   1.116799 S    
C7    C8    1.406608 A    
C43   H15   1.082898 S    
C41   C42   1.390845 A    
O5    C3    1.284923 A    
C55   H32   1.108826 S    
C58   C59   1.536819 S    
N5    O14   1.300602 A    
C29   C30   1.397534 A    
C61   H46   1.111282 S    
C38   C39   1.371880 A    
C2    C21   1.458200 S    
C31   C36   1.417258 A    
Zn2   N3    2.015224 S    
C12   C13   1.418016 A    
C34   C35   1.427942 A    
C45   C46   1.428745 A    
C56   C57   1.525298 S    
H12   C39   1.082873 S    
C17   O11   1.349425 S    
C33   H11   1.082822 S    
C10   C11   1.403368 A    
C43   C44   1.390092 A    
C41   C46   1.411263 A    
C53   H27   1.109900 S    
C22   C23   1.386534 A    
O3    Zn1   1.999403 S    
C23   C24   1.396282 A    
C6    C7    1.399264 A    
C65   H56   1.111830 S    
C49   H19   1.118261 S    
C5    C9    1.395836 A    
C54   H31   1.110152 S    
C33   C34   1.398215 A    
C39   C40   1.394573 A    
C57   H38   1.109937 S    
O13   C49   1.420561 S    
C47   C48   1.432152 A    
C66   H59   1.111867 S    
C20   H4    1.083201 S    
C42   C43   1.383376 A    
C46   N3    1.376532 A    
N1    C6    1.368011 A    
C14   C15   1.416934 A    
C49   H18   1.111469 S    
C63   H52   1.110931 S    
C28   C29   1.397207 A    
O1    C1    1.283419 A    
C44   H16   1.063213 S    
C60   H44   1.110310 S    
N2    C18   1.363759 A    
C51   H23   1.109781 S    
C65   C66   1.525607 S    
C25   H7    1.082483 S    
C50   C51   1.526838 S    
Zn2   O8    1.999400 S    
C35   C36   1.394760 A    
C27   C28   1.417136 A    
C12   C17   1.405002 A    
C13   C14   1.417496 A    
C53   H28   1.110242 S    
C44   C45   1.410269 A    
C55   C56   1.531234 S    
C58   H39   1.105604 S    
C63   H51   1.110724 S    
C25   C30   1.395551 A    
O3    C2    1.295563 A    
C52   H26   1.115980 S    
C50   H21   1.108996 S    
O19   C61   1.418105 S    
C26   C27   1.411655 A    
C59   C60   1.525976 S    
C22   H5    1.083135 S    
C60   H43   1.111274 S    
C51   H22   1.109970 S    
O18   C58   1.417608 S    
C59   H42   1.106315 S    
C56   H34   1.111709 S    
C49   C50   1.531801 S    
C14   C18   1.400965 A    
C62   H49   1.111009 S    
O1    Zn1   1.994189 S    
C11   C12   1.418248 A    
O2    Zn2   1.982280 S    
C23   H6    1.083025 S    
O8    C4    1.296451 A    
C36   C37   1.417861 A    
O6    C3    1.294218 A    
O4    Zn2   1.998320 S    
N5    O15   1.301704 A    
C5    O9    1.350474 S    
C9    C16   1.398508 A    
C16   H2    1.083017 S    
C25   C26   1.388952 A    
C54   H29   1.110826 S    
C52   H25   1.110686 S    
C35   C40   1.416136 A    
N2    C24   1.423441 S    
C37   C38   1.403011 A    
N1    C30   1.429561 S    
C31   C32   1.393586 A    
O2    C1    1.297856 A    
C60   H45   1.110138 S    
C42   H14   1.082774 S    
C19   C20   1.388666 A    
C15   O20   1.389136 S    
C66   H57   1.111112 S    
C51   H24   1.110086 S    
C32   H10   1.082489 S    
C4    C27   1.452962 S    
C61   C62   1.530347 S    
C61   H47   1.116186 S    
C57   H37   1.110362 S    
C8    C13   1.406367 A    
C41   H13   1.062855 S    
C55   H33   1.116632 S    
C58   H40   1.114581 S    
C63   H50   1.110526 S    
N3    C47   1.375045 A    
Zn1   O5    1.982281 S    
C52   C53   1.530173 S    
C50   H20   1.111596 S    
Zn2   O6    1.994191 S    
C48   N4    1.356159 A    
C6    O10   1.350129 S    
O20   C64   1.417683 S    
C19   C24   1.398224 A    
O17   C55   1.415560 S    
C64   H53   1.111561 S    
C28   N5    1.446933 S    
C59   H41   1.107448 S    
C56   H35   1.111172 S    
C3    C40   1.434423 S    
