data_mof_unit_3563.cif
_audit_creation_date              2012-12-10T17:43:24-0500
_audit_creation_method            fapswitch 2.2
_symmetry_space_group_name_H-M    P1
_symmetry_Int_Tables_number       1
_space_group_crystal_system       triclinic
_cell_length_a                    15.033481
_cell_length_b                    13.740342
_cell_length_c                    10.645794
_cell_angle_alpha                 90.160955
_cell_angle_beta                  88.669075
_cell_angle_gamma                 89.612077
_cell_volume                      2198.39692113

loop_
_atom_site_label
_atom_site_type_symbol
_atom_type_description
_atom_site_fract_x
_atom_site_fract_y
_atom_site_fract_z
_atom_type_partial_charge
C1    C     C_R   0.329002 0.500281 0.500816 0.811881
C2    C     C_R   0.671133 0.499637 0.498136 0.847671
C3    C     C_R   0.953326 0.503477 0.493458 -0.006861
C4    C     C_R   0.047006 0.504277 0.498587 -0.020955
C5    C     C_R   0.909847 0.464208 0.386756 0.009213
C6    C     C_R   0.090226 0.537484 0.608595 0.031825
C7    C     C_R   0.945123 0.580016 0.700227 -0.242557
C8    C     C_R   0.055601 0.440460 0.285229 -0.221613
C9    C     C_R   0.037280 0.578285 0.708739 0.257048
C10   C     C_R   0.963274 0.436917 0.279348 0.250465
C11   C     C_R   0.468084 0.793765 0.602230 0.026141
C12   C     C_R   0.531412 0.206251 0.397482 0.021573
C13   C     C_R   0.532775 0.792716 0.398065 0.025613
C14   C     C_R   0.466913 0.207347 0.601766 0.022311
C15   C     C_R   0.532767 0.896049 0.393651 -0.036780
C16   C     C_R   0.466180 0.104027 0.605769 -0.035726
C17   C     C_R   0.469624 0.896972 0.607434 -0.033624
C18   C     C_R   0.529107 0.103107 0.391858 -0.035027
C19   C     C_R   0.499752 0.948395 0.499798 -0.012850
C20   C     C_R   0.499142 0.051678 0.499591 -0.012136
C21   C     C_R   0.564361 0.947523 0.285944 0.180424
C22   C     C_R   0.433543 0.052571 0.712884 0.180925
C23   C     C_R   0.441886 0.949227 0.717172 0.182475
C24   C     C_R   0.555869 0.050838 0.281692 0.182781
C25   C     C_R   0.502638 0.499838 0.259395 0.815790
C26   C     C_R   0.497946 0.500227 0.740681 0.801365
C27   C     C_3   0.517709 0.591358 0.041845 -0.225180
C28   C     C_3   0.483744 0.409059 0.958465 -0.227493
C29   C     C_3   0.580145 0.530823 0.952555 -0.219629
C30   C     C_3   0.421281 0.469677 0.047661 -0.232054
C31   C     C_3   0.437484 0.559883 0.965465 0.322504
C32   C     C_3   0.563963 0.440692 0.034856 0.328974
C33   C     C_3   0.498377 0.500666 0.877129 -0.071467
C34   C     C_3   0.502948 0.499757 0.123035 -0.073328
C35   C     C_R   0.815507 0.455062 0.394256 0.185398
C36   C     C_R   0.184252 0.529656 0.612222 0.188713
C37   C     C_R   0.767736 0.499149 0.494509 -0.088539
C38   C     C_R   0.232633 0.501313 0.503223 -0.099925
C39   C     C_R   0.811060 0.543638 0.592629 -0.290149
C40   C     C_R   0.189707 0.472391 0.395500 -0.271528
C41   C     C_R   0.903171 0.542029 0.595782 0.077088
C42   C     C_R   0.097440 0.471465 0.393398 0.072087
Cu1   Cu    Cu3+1 0.500000 0.597420 0.500000 0.931352
Cu2   Cu    Cu3+1 0.500000 0.402580 0.500000 0.938643
H1    H     H_    0.530196 0.665950 0.077344 0.143517
H2    H     H_    0.471259 0.334434 0.923048 0.144325
H3    H     H_    0.645027 0.554657 0.911753 0.132603
H4    H     H_    0.356581 0.445824 0.089018 0.128571
H5    H     H_    0.772368 0.575852 0.669677 0.141039
H6    H     H_    0.228738 0.449625 0.313337 0.133651
H7    H     H_    0.905787 0.611535 0.777031 0.156680
H8    H     H_    0.095187 0.419379 0.202914 0.153962
H9    H     H_    0.440066 0.752355 0.678886 0.132402
H10   H     H_    0.559666 0.247641 0.321016 0.141786
H11   H     H_    0.557521 0.750226 0.319338 0.145223
H12   H     H_    0.442491 0.249869 0.680664 0.142794
N1    N     N_R   0.500000 0.743810 0.500000 -0.190165
N2    N     N_R   0.500000 0.256190 0.500000 -0.190421
O1    O     O_R   0.370260 0.582280 0.500030 -0.586455
O2    O     O_R   0.629740 0.417720 0.499970 -0.559859
O3    O     O_R   0.629740 0.582280 0.499970 -0.584731
O4    O     O_R   0.370260 0.417720 0.500030 -0.574529
O5    O     O_R   0.499980 0.582260 0.316850 -0.595860
O6    O     O_R   0.500020 0.417740 0.683150 -0.597580
O7    O     O_R   0.500020 0.582260 0.683150 -0.603849
O8    O     O_R   0.499980 0.417740 0.316850 -0.595150
N3    N     N_2   0.368978 0.626368 0.925417 -0.442885
H13   H     H_    0.392378 0.676934 0.862018 0.244428
C43   C     C_3   0.315739 0.669394 0.026041 -0.688536
H14   H     H_    0.263981 0.717182 0.985816 0.227371
H15   H     H_    0.358044 0.713938 0.087898 0.227804
H16   H     H_    0.281988 0.611877 0.082200 0.231735
N4    N     N_2   0.632652 0.374962 0.076023 -0.443369
H17   H     H_    0.608971 0.324233 0.138986 0.254401
C44   C     C_3   0.687059 0.332247 0.976367 -0.721410
H18   H     H_    0.739865 0.286322 0.017650 0.226119
H19   H     H_    0.719724 0.389983 0.919334 0.235636
H20   H     H_    0.645829 0.286002 0.915093 0.234021
N5    N     N_2   0.767158 0.396551 0.309721 -0.434058
H21   H     H_    0.765257 0.419129 0.218028 0.285275
C45   C     C_3   0.771643 0.292757 0.332219 -0.668627
H22   H     H_    0.731021 0.253787 0.262820 0.213650
H23   H     H_    0.744988 0.275937 0.427811 0.250879
H24   H     H_    0.841331 0.265840 0.324114 0.213014
N6    N     N_2   0.229640 0.540854 0.727035 -0.429648
H25   H     H_    0.287624 0.580058 0.719484 0.269213
C46   C     C_3   0.240340 0.450880 0.795731 -0.705682
H26   H     H_    0.264497 0.466945 0.891008 0.246636
H27   H     H_    0.289280 0.402371 0.746408 0.226501
H28   H     H_    0.175592 0.412841 0.806461 0.229145
N7    N     N_2   0.073181 0.624490 0.815826 -0.427752
H29   H     H_    0.110282 0.582013 0.874697 0.287071
C47   C     C_3   0.103840 0.722959 0.796446 -0.654806
H30   H     H_    0.120546 0.755834 0.888171 0.214432
H31   H     H_    0.050649 0.767906 0.754180 0.229382
H32   H     H_    0.163918 0.723644 0.733828 0.233905
N8    N     N_2   0.928380 0.414419 0.159850 -0.442407
H33   H     H_    0.890980 0.352593 0.150613 0.261868
C48   C     C_3   0.906768 0.496786 0.081617 -0.691809
H34   H     H_    0.883493 0.470639 0.989293 0.224951
H35   H     H_    0.966754 0.542224 0.065158 0.244482
H36   H     H_    0.853536 0.542003 0.126968 0.222264
C49   C     C_3   0.608788 0.891942 0.177743 -0.905305
H37   H     H_    0.645819 0.939048 0.110810 0.251616
H38   H     H_    0.659871 0.841279 0.214145 0.223398
H39   H     H_    0.558198 0.850279 0.126022 0.224401
C50   C     C_3   0.387311 0.108107 0.819661 -0.905425
H40   H     H_    0.347383 0.061135 0.883364 0.250927
H41   H     H_    0.437153 0.148096 0.874865 0.225175
H42   H     H_    0.338137 0.160264 0.781591 0.221997
C51   C     C_3   0.427341 0.895142 0.840144 -0.914170
H43   H     H_    0.437406 0.942024 0.923430 0.250097
H44   H     H_    0.359565 0.863575 0.844156 0.233505
H45   H     H_    0.477840 0.836544 0.850218 0.221540
C52   C     C_3   0.568691 0.104292 0.157914 -0.917212
H46   H     H_    0.551912 0.057939 0.076473 0.251009
H47   H     H_    0.521843 0.166667 0.150941 0.221176
H48   H     H_    0.638258 0.130067 0.147681 0.231282

loop_
_geom_bond_atom_site_label_1
_geom_bond_atom_site_label_2
_ccdc_geom_bond_type
C14   H12   S    
C46   H26   S    
C47   H30   S    
C27   C29   S    
C50   H41   S    
N4    H17   S    
Cu2   O8    S    
C19   C20   A    
Cu1   Cu2   S    
C10   N8    S    
C1    O4    A    
C9    N7    S    
C6    C9    A    
C45   H22   S    
Cu1   O5    S    
C39   C41   A    
N6    H25   S    
Cu2   O6    S    
C31   N3    S    
C28   H2    S    
C17   C23   A    
C29   H3    S    
C18   C24   A    
C30   H4    S    
C35   C37   A    
C8    C42   A    
C29   C32   S    
C1    O1    A    
C30   C31   S    
C2    O2    A    
C13   N1    A    
C52   H46   S    
C29   C33   S    
C25   O5    A    
C35   N5    S    
C43   H15   S    
C26   O6    A    
C45   H23   S    
C3    C41   A    
C51   H44   S    
C51   H43   S    
Cu2   N2    S    
C52   H47   S    
C50   H40   S    
C31   C33   S    
C49   H39   S    
C8    H8    S    
C11   H9    S    
C2    O3    A    
Cu1   O1    S    
C25   C34   S    
C12   N2    A    
C27   H1    S    
C40   C42   A    
C47   H31   S    
N4    C44   S    
N8    C48   S    
N8    H33   S    
N6    C46   S    
C27   C34   S    
C14   N2    A    
C30   C34   S    
C27   C31   S    
N3    H13   S    
Cu1   O7    S    
C28   C32   S    
C4    C6    A    
N7    H29   S    
N5    C45   S    
Cu2   O4    S    
N3    C43   S    
C32   C34   S    
C43   H16   S    
C15   C19   A    
C44   H18   S    
N7    C47   S    
C26   C33   S    
C48   H34   S    
C16   C20   A    
C52   H48   S    
C49   H38   S    
C44   H19   S    
C1    C38   S    
C39   H5    S    
C28   C33   S    
C47   H32   S    
C13   C15   A    
C50   H42   S    
C14   C16   A    
C46   H28   S    
C3    C4    A    
C32   N4    S    
C45   H24   S    
Cu1   O3    S    
C7    C9    A    
C11   C17   A    
C16   C22   A    
C48   H35   S    
C26   O7    A    
C25   O8    A    
C3    C5    A    
C36   N6    S    
C23   C51   S    
C46   H27   S    
C7    H7    S    
C5    C10   A    
C37   C39   A    
C36   C38   A    
C38   C40   A    
C2    C37   S    
C4    C42   A    
Cu2   O2    S    
C40   H6    S    
C5    C35   A    
C28   C30   S    
C17   C19   A    
C6    C36   A    
C51   H45   S    
C18   C20   A    
C7    C41   A    
C43   H14   S    
C44   H20   S    
Cu1   N1    S    
N5    H21   S    
C21   C49   S    
C15   C21   A    
C48   H36   S    
C24   C52   S    
C8    C10   A    
C21   C24   A    
C12   C18   A    
C49   H37   S    
C22   C23   A    
C11   N1    A    
C12   H10   S    
C22   C50   S    
C13   H11   S    
