data_mof_unit_2741.cif
_audit_creation_date              2012-10-26T21:20:11-0400
_audit_creation_method            fapswitch 2.2
_symmetry_space_group_name_H-M    P1
_symmetry_Int_Tables_number       1
_space_group_crystal_system       triclinic
_cell_length_a                    13.025239
_cell_length_b                    10.768423
_cell_length_c                    9.609598
_cell_angle_alpha                 88.491266
_cell_angle_beta                  95.26466
_cell_angle_gamma                 92.329942
_cell_volume                      1340.71303466

loop_
_atom_site_label
_atom_site_type_symbol
_atom_type_description
_atom_site_fract_x
_atom_site_fract_y
_atom_site_fract_z
_atom_type_partial_charge
C1    C     C_R   0.502916 0.262791 0.501595 0.582550
C2    C     C_R   0.698690 0.497992 0.525220 0.591849
C3    C     C_R   0.810867 0.501046 0.538041 0.023082
C4    C     C_R   0.189132 0.498959 0.461960 0.023007
C5    C     C_R   0.031778 0.410272 0.347665 -0.098374
C6    C     C_R   0.968221 0.589740 0.652334 -0.098345
C7    C     C_R   0.137596 0.428797 0.355251 -0.136030
C8    C     C_R   0.862403 0.571214 0.644746 -0.136009
C9    C     C_R   0.133934 0.555610 0.561334 0.073372
C10   C     C_R   0.866067 0.444394 0.438671 0.073452
C11   C     C_R   0.025859 0.536613 0.554171 0.012479
C12   C     C_R   0.497078 0.737208 0.498404 0.582218
C13   C     C_R   0.974142 0.463393 0.445832 0.012483
C14   C     C_R   0.573298 0.061764 0.595581 0.072263
C15   C     C_R   0.426699 0.938236 0.404412 0.072266
C16   C     C_R   0.566578 0.932708 0.592411 -0.135340
C17   C     C_R   0.433414 0.067292 0.407589 -0.135164
C18   C     C_2   0.810761 0.364809 0.329489 0.590116
C19   C     C_2   0.189241 0.635197 0.670515 0.590082
C20   C     C_2   0.655537 0.121410 0.692231 0.631057
C21   C     C_2   0.344490 0.878588 0.307731 0.631134
C22   C     C_R   0.495521 0.871183 0.497220 -0.001855
C23   C     C_R   0.504468 0.128817 0.502781 -0.001611
C24   C     C_R   0.446882 0.410631 0.073439 0.015967
C25   C     C_R   0.553119 0.589367 0.926560 0.015955
C26   C     C_R   0.445644 0.408312 0.925990 0.352889
C27   C     C_R   0.554357 0.591687 0.074010 0.352843
C28   C     C_R   0.301310 0.502010 0.474780 0.591962
Cu1   Cu    Cu3+1 0.500000 0.500020 0.640660 1.108473
Cu2   Cu    Cu3+1 0.500000 0.499980 0.359340 1.108364
H1    H     H_    0.820076 0.616188 0.720037 0.152444
H2    H     H_    0.229634 0.661040 0.875685 0.349125
H3    H     H_    0.747622 0.108014 0.872397 0.356141
H4    H     H_    0.252502 0.891954 0.127480 0.356143
H5    H     H_    0.292203 0.205226 0.668385 0.355084
H6    H     H_    0.707044 0.794787 0.332195 0.354792
H7    H     H_    0.179921 0.383827 0.279956 0.152463
H8    H     H_    0.996386 0.352130 0.265193 0.174997
H9    H     H_    0.003612 0.647889 0.734801 0.175014
H10   H     H_    0.619662 0.879083 0.661285 0.164870
H11   H     H_    0.380339 0.120916 0.338709 0.164869
H12   H     H_    0.406399 0.339310 0.130527 0.173354
H13   H     H_    0.593604 0.660687 0.869473 0.173322
H14   H     H_    0.770346 0.338990 0.124325 0.349125
N1    N     N_R   0.500030 0.500030 0.852080 -0.289359
N2    N     N_R   0.499970 0.499970 0.147920 -0.289359
O1    O     O_R   0.499990 0.319660 0.618740 -0.419374
O2    O     O_R   0.812203 0.399272 0.188360 -0.673532
O3    O     O_2   0.237985 0.728771 0.636324 -0.477229
O4    O     O_R   0.187773 0.600758 0.811652 -0.673607
O5    O     O_2   0.694036 0.223131 0.663274 -0.487180
O6    O     O_R   0.691346 0.058743 0.815479 -0.639390
O7    O     O_2   0.305972 0.776883 0.336664 -0.487125
O8    O     O_R   0.308739 0.941237 0.184451 -0.639370
O9    O     O_2   0.459825 0.175931 0.841610 -0.256902
O10   O     O_2   0.306767 0.219213 0.955165 -0.273691
O11   O     O_3   0.311024 0.290451 0.700699 -0.497721
O12   O     O_R   0.500010 0.680340 0.381260 -0.419703
O13   O     O_2   0.693215 0.780818 0.044825 -0.273234
O14   O     O_2   0.540167 0.824051 0.158415 -0.257221
O15   O     O_3   0.689011 0.709534 0.299275 -0.497337
O16   O     O_R   0.499990 0.319630 0.381170 -0.522315
O17   O     O_R   0.500010 0.680370 0.618830 -0.522232
O18   O     O_R   0.349000 0.499990 0.599490 -0.432947
O19   O     O_R   0.651000 0.500010 0.400510 -0.433017
O20   O     O_R   0.348990 0.499960 0.361920 -0.510495
O21   O     O_R   0.651010 0.500040 0.638080 -0.510547
O22   O     O_2   0.762042 0.271216 0.363673 -0.477237
S1    S     S_3+6 0.380464 0.271285 0.854836 0.071551
S2    S     S_3+6 0.619539 0.728714 0.145161 0.071694

loop_
_geom_bond_atom_site_label_1
_geom_bond_atom_site_label_2
_ccdc_geom_bond_type
C14   C23   A    
O15   S2    S    
C28   O20   A    
Cu1   O17   S    
H4    O8    S    
Cu1   Cu2   S    
C12   C22   S    
C25   C27   A    
C11   C13   A    
C19   O3    D    
Cu2   N2    S    
C5    C13   A    
O14   S2    D    
H5    O11   S    
C2    O19   A    
C24   N2    A    
C1    O16   A    
C25   H13   S    
C2    C3    S    
C7    H7    S    
Cu1   O18   S    
C12   O12   A    
C18   O2    S    
C20   O6    S    
C3    C10   A    
O9    S1    D    
C5    H8    S    
H3    O6    S    
C21   O7    D    
H14   O2    S    
C9    C11   A    
C19   O4    S    
H2    O4    S    
C17   C23   A    
C27   S2    S    
Cu1   O1    S    
C4    C7    A    
C6    C8    A    
C28   O18   A    
C27   N2    A    
Cu2   O20   S    
C10   C18   S    
C1    C23   S    
C20   O5    D    
C14   C16   A    
Cu2   O16   S    
O11   S1    S    
C21   O8    S    
C17   H11   S    
C3    C8    A    
Cu2   O19   S    
O13   S2    D    
C18   O22   D    
H6    O15   S    
C25   N1    A    
C16   H10   S    
C15   C21   S    
C24   H12   S    
C14   C20   S    
C5    C7    A    
O10   S1    D    
Cu1   N1    S    
C6    C11   A    
C15   C17   A    
C26   S1    S    
C6    H9    S    
C1    O1    A    
C16   C22   A    
C26   N1    A    
C4    C28   S    
C4    C9    A    
Cu1   O21   S    
C8    H1    S    
C9    C19   S    
C15   C22   A    
Cu2   O12   S    
C24   C26   A    
C2    O21   A    
C10   C13   A    
C12   O17   A    
