data_mof_unit_3057.cif
_audit_creation_date              2012-12-10T20:30:14-0500
_audit_creation_method            fapswitch 2.2
_symmetry_space_group_name_H-M    P1
_symmetry_Int_Tables_number       1
_space_group_crystal_system       triclinic
_cell_length_a                    9.893343
_cell_length_b                    10.675349
_cell_length_c                    13.123592
_cell_angle_alpha                 89.94417
_cell_angle_beta                  69.827673
_cell_angle_gamma                 89.70583
_cell_volume                      1301.00856144

loop_
_atom_site_label
_atom_site_type_symbol
_atom_type_description
_atom_site_fract_x
_atom_site_fract_y
_atom_site_fract_z
_atom_type_partial_charge
C1    C     C_R   0.499481 0.739625 0.501293 0.886350
C2    C     C_R   0.368039 0.486522 0.822409 -0.125138
C3    C     C_R   0.387150 0.937368 0.578164 0.063386
C4    C     C_R   0.419996 0.493948 0.704167 0.856568
C5    C     C_R   0.501431 0.871428 0.505613 -0.096233
C6    C     C_R   0.627734 0.934411 0.444969 -0.208501
C7    C     C_R   0.628459 0.064015 0.444238 -0.204970
C8    C     C_R   0.502119 0.128859 0.502590 -0.081236
C9    C     C_R   0.385623 0.064729 0.573444 0.041057
C10   C     C_3   0.225323 0.071930 0.602900 -0.246970
C11   C     C_3   0.227100 0.928679 0.610367 -0.250995
C12   C     C_R   0.431789 0.478013 0.984821 0.091671
C13   C     C_R   0.885179 0.506674 0.595093 0.234144
C14   C     C_R   0.970777 0.482636 0.406624 -0.139983
C15   C     C_R   0.114331 0.482592 0.406603 -0.103232
C16   C     C_R   0.500719 0.260472 0.499230 0.870084
C17   C     C_R   0.027493 0.505927 0.595237 0.194999
C18   C     C_3   0.994513 0.609737 0.675907 -0.510871
C19   C     C_3   0.841719 0.610805 0.675316 -0.480918
C20   C     C_R   0.580205 0.499386 0.295750 0.869814
C21   C     C_R   0.772895 0.367642 0.019544 -0.195973
C22   C     C_R   0.629039 0.481857 0.179036 -0.056127
C23   C     C_R   0.459375 0.441260 0.876517 0.081113
C24   C     C_R   0.235499 0.541902 0.881645 -0.179686
C25   C     C_R   0.197294 0.559495 0.992741 -0.137929
C26   C     C_R   0.295471 0.531085 0.043956 -0.195244
C27   C     C_1   0.179311 0.115824 0.513417 0.239247
C28   C     C_1   0.162653 0.883394 0.722667 0.178693
C29   C     C_R   0.541711 0.460223 0.029419 0.082007
C30   C     C_R   0.666405 0.388599 0.973006 0.171034
C31   C     C_R   0.681188 0.336965 0.872301 -0.265021
C32   C     C_R   0.578779 0.362625 0.824572 -0.213944
C33   C     C_R   0.531782 0.513763 0.128235 -0.255823
C34   C     C_R   0.752737 0.412030 0.123747 -0.205940
H1    H     H_    0.829060 0.386496 0.162879 0.149741
H2    H     H_    0.773268 0.278686 0.829429 0.152488
H3    H     H_    0.813316 0.697923 0.640547 0.216543
H4    H     H_    0.868027 0.312420 0.977502 0.141002
H5    H     H_    0.444807 0.576749 0.170324 0.144414
H6    H     H_    0.163858 0.575857 0.841566 0.158707
H7    H     H_    0.260654 0.548982 0.130050 0.121716
H8    H     H_    0.093967 0.600824 0.038468 0.149217
H9    H     H_    0.593744 0.319715 0.746758 0.174992
H10   H     H_    0.722357 0.883942 0.394296 0.162006
H11   H     H_    0.723847 0.112918 0.393778 0.163000
H12   H     H_    0.171598 0.122134 0.680797 0.149048
H13   H     H_    0.191142 0.877253 0.550621 0.161084
H14   H     H_    0.951519 0.470454 0.330980 0.142308
H15   H     H_    0.201829 0.469870 0.330627 0.152254
H16   H     H_    0.000739 0.579108 0.754901 0.202588
H17   H     H_    0.054807 0.695740 0.641101 0.215987
H18   H     H_    0.761296 0.581150 0.753916 0.220644
N1    N     N_R   0.856940 0.500860 0.500710 -0.106891
N2    N     N_R   0.142580 0.500820 0.500710 -0.104717
N3    N     N_1   0.143026 0.150358 0.443225 -0.212210
N4    N     N_1   0.112069 0.847912 0.811024 -0.218485
O1    O     O_R   0.385310 0.683210 0.499990 -0.618508
O2    O     O_R   0.614650 0.683240 0.500000 -0.613540
O3    O     O_R   0.328390 0.499940 0.653610 -0.612751
O4    O     O_R   0.557730 0.499980 0.653620 -0.613301
O5    O     O_R   0.385350 0.316760 0.500000 -0.604078
O6    O     O_R   0.614690 0.316790 0.500010 -0.622590
O7    O     O_R   0.442270 0.500020 0.346380 -0.619501
O8    O     O_R   0.671610 0.500060 0.346390 -0.624467
Zn1   Zn    Zn3+2 0.346870 0.499980 0.499990 0.948593
Zn2   Zn    Zn3+2 0.653130 0.500020 0.500010 0.939270

loop_
_geom_bond_atom_site_label_1
_geom_bond_atom_site_label_2
_ccdc_geom_bond_type
C25   H8    S    
C10   H12   S    
C2    C4    S    
O7    Zn1   S    
C20   O8    A    
C6    C7    A    
C3    C9    A    
C1    O1    A    
C12   C29   A    
C21   C30   A    
C11   H13   S    
C31   C32   A    
C10   C27   S    
C13   C17   A    
C23   C32   A    
C4    O4    A    
C20   O7    A    
C17   C18   S    
C28   N4    T    
O4    Zn2   S    
C7    C8    A    
C8    C16   S    
N2    Zn1   S    
C33   H5    S    
C1    O2    A    
O3    Zn1   S    
N1    Zn2   S    
C17   N2    A    
C12   C23   A    
C29   C30   A    
C16   O6    A    
C11   C28   S    
C14   H14   S    
C1    C5    S    
C5    C6    A    
C7    H11   S    
C4    O3    A    
C24   H6    S    
C32   H9    S    
C20   C22   S    
C18   H17   S    
C18   C19   S    
C13   N1    A    
C15   H15   S    
C2    C24   A    
C30   C31   A    
C22   C34   A    
C27   N3    T    
C3    C11   S    
C10   C11   S    
O6    Zn2   S    
C15   N2    A    
O5    Zn1   S    
C14   N1    A    
C24   C25   A    
C18   H16   S    
C34   H1    S    
C9    C10   S    
O1    Zn1   S    
C2    C23   A    
C22   C33   A    
C13   C19   S    
C31   H2    S    
C6    H10   S    
C21   C34   A    
C19   H3    S    
C16   O5    A    
C25   C26   A    
C14   C15   A    
C26   H7    S    
C19   H18   S    
O2    Zn2   S    
C21   H4    S    
C29   C33   A    
C12   C26   A    
C8    C9    A    
C3    C5    A    
O8    Zn2   S    
