data_mof_unit_3661.cif
_audit_creation_date              2012-12-10T17:22:56-0500
_audit_creation_method            fapswitch 2.2
_symmetry_space_group_name_H-M    P1
_symmetry_Int_Tables_number       1
_space_group_crystal_system       triclinic
_cell_length_a                    10.248879
_cell_length_b                    10.548873
_cell_length_c                    10.710972
_cell_angle_alpha                 90.755184
_cell_angle_beta                  92.838373
_cell_angle_gamma                 80.443771
_cell_volume                      1140.52246109

loop_
_atom_site_label
_atom_site_type_symbol
_atom_type_description
_atom_site_fract_x
_atom_site_fract_y
_atom_site_fract_z
_atom_type_partial_charge
C1    C     C_R   0.447288 0.503379 0.266751 0.968240
C2    C     C_3   0.503620 0.121600 0.497732 -0.068135
C3    C     C_3   0.579233 0.943443 0.591600 -0.207780
C4    C     C_3   0.419320 0.055755 0.402867 -0.174133
C5    C     C_2   0.425158 0.496977 0.131738 -0.084166
C6    C     C_2   0.575322 0.477039 0.867599 -0.062169
C7    C     C_2   0.505763 0.405834 0.067052 -0.127511
C8    C     C_2   0.502339 0.405167 0.931236 -0.086006
C9    C     C_2   0.075020 0.486074 0.494553 -0.036075
C10   C     C_2   0.926877 0.505459 0.513368 -0.056001
C11   C     C_3   0.768185 0.029792 0.467834 -0.397683
C12   C     C_R   0.552802 0.487390 0.733018 0.911478
C13   C     C_3   0.849516 0.902414 0.428260 -0.881873
C14   C     C_3   0.232642 0.967454 0.533045 -0.400305
C15   C     C_3   0.140737 0.096913 0.527254 -0.886239
C16   C     C_2   0.429882 0.307341 0.871973 0.867685
C17   C     C_2   0.592697 0.293898 0.126132 0.960112
C18   C     C_3   0.674728 0.552674 0.930425 -0.383802
C19   C     C_3   0.646817 0.694243 0.893023 -0.883927
C20   C     C_3   0.322760 0.601096 0.069899 -0.403703
C21   C     C_3   0.341813 0.735915 0.113411 -0.873786
C22   C     C_3   0.880771 0.373410 0.337653 -0.171549
C23   C     C_R   0.501148 0.257107 0.500144 0.936075
C24   C     C_3   0.897689 0.460939 0.229100 -0.861988
C25   C     C_3   0.110730 0.655790 0.637163 -0.200684
C26   C     C_3   0.087408 0.605355 0.765786 -0.854740
C27   C     C_R   0.498541 0.742618 0.498666 0.872994
C28   C     C_3   0.623490 0.015889 0.481791 0.236820
C29   C     C_3   0.375410 0.983121 0.512606 0.218467
C30   C     C_3   0.540124 0.947830 0.387081 -0.214094
C31   C     C_3   0.458530 0.050721 0.607126 -0.221333
C32   C     C_3   0.495220 0.877654 0.497360 -0.070219
H1    H     H_    0.572252 0.902012 0.297301 0.151679
H2    H     H_    0.775641 0.103451 0.396969 0.213268
H3    H     H_    0.808833 0.061213 0.558911 0.209057
H4    H     H_    0.176059 0.165941 0.594705 0.268009
H5    H     H_    0.136483 0.136802 0.431576 0.251665
H6    H     H_    0.039632 0.084657 0.551094 0.253384
H7    H     H_    0.199398 0.902536 0.460081 0.211000
H8    H     H_    0.228428 0.924595 0.626458 0.205370
H9    H     H_    0.268355 0.268787 0.772991 0.328195
H10   H     H_    0.609029 0.145674 0.243296 0.331859
H11   H     H_    0.668791 0.704320 0.793572 0.251558
H12   H     H_    0.422029 0.092869 0.696026 0.196578
H13   H     H_    0.541595 0.735853 0.906066 0.271233
H14   H     H_    0.711083 0.748976 0.951317 0.258081
H15   H     H_    0.675368 0.547941 0.033602 0.228278
H16   H     H_    0.775701 0.510252 0.902414 0.221497
H17   H     H_    0.315389 0.752031 0.212352 0.257604
H18   H     H_    0.446205 0.749125 0.104928 0.262188
H19   H     H_    0.276496 0.809077 0.055142 0.258823
H20   H     H_    0.327221 0.598426 0.967009 0.234355
H21   H     H_    0.222236 0.585291 0.093078 0.218904
H22   H     H_    0.907427 0.404067 0.141113 0.261093
H23   H     H_    0.645145 0.895491 0.668339 0.151101
H24   H     H_    0.810311 0.538366 0.218633 0.261800
H25   H     H_    0.987730 0.505641 0.245204 0.240877
H26   H     H_    0.970318 0.300400 0.355828 0.140280
H27   H     H_    0.800253 0.318917 0.310447 0.224632
H28   H     H_    0.022364 0.531195 0.760100 0.254014
H29   H     H_    0.183098 0.562701 0.811402 0.297778
H30   H     H_    0.041252 0.686176 0.824871 0.228937
H31   H     H_    0.188103 0.717042 0.650082 0.202131
H32   H     H_    0.021097 0.718725 0.598163 0.144809
H33   H     H_    0.354119 0.104740 0.326047 0.177227
H34   H     H_    0.886065 0.569458 0.586517 0.150253
H35   H     H_    0.117748 0.412199 0.430663 0.143436
H36   H     H_    0.834237 0.824281 0.491478 0.263877
H37   H     H_    0.819526 0.877548 0.331182 0.264104
H38   H     H_    0.956174 0.910021 0.431445 0.251471
N1    N     N_2   0.157310 0.552180 0.551120 -0.054490
N2    N     N_2   0.842690 0.447820 0.448880 -0.081602
O1    O     O_R   0.568940 0.489500 0.307530 -0.626253
O2    O     O_R   0.312881 0.344162 0.799881 -0.794907
O3    O     O_2   0.701140 0.254243 0.084654 -0.640604
O4    O     O_R   0.546042 0.227457 0.221265 -0.839062
O5    O     O_R   0.431060 0.510500 0.692470 -0.576583
O6    O     O_R   0.348880 0.522990 0.340350 -0.618641
O7    O     O_R   0.651120 0.477010 0.659650 -0.621617
O8    O     O_R   0.610000 0.297210 0.483560 -0.632857
O9    O     O_R   0.390000 0.702790 0.516440 -0.647757
O10   O     O_R   0.389940 0.330700 0.516390 -0.604367
O11   O     O_R   0.610060 0.669300 0.483610 -0.615528
O12   O     O_2   0.468199 0.193805 0.895363 -0.641327
Zn1   Zn    Zn3+2 0.646930 0.477640 0.478080 0.935309
Zn2   Zn    Zn3+2 0.353070 0.522360 0.521920 0.955914

loop_
_geom_bond_atom_site_label_1
_geom_bond_atom_site_label_2
_ccdc_geom_bond_type
C23   O10   A    
C21   H19   S    
C18   H15   S    
C21   H17   S    
N2    Zn1   S    
C19   H14   S    
C7    C8    S    
C5    C20   S    
C1    C5    S    
C3    C28   S    
C26   H29   S    
C29   C32   S    
C6    C12   S    
C4    H33   S    
C13   H38   S    
C24   H22   S    
C12   O7    A    
C16   O12   D    
C18   C19   S    
C25   H31   S    
C15   H5    S    
C14   H7    S    
C3    H23   S    
C11   H3    S    
C24   H25   S    
C7    C17   S    
C17   O4    S    
C25   N1    S    
C23   O8    A    
C9    C10   S    
O9    Zn2   S    
O6    Zn2   S    
H9    O2    S    
C8    C16   S    
C1    O6    A    
C22   N2    S    
C21   H18   S    
C19   H11   S    
C10   H34   S    
C6    C18   S    
C31   H12   S    
C9    N1    D    
C27   O9    A    
C22   H27   S    
C5    C7    D    
C6    C8    D    
C25   C26   S    
O10   Zn2   S    
C2    C31   S    
C25   H32   S    
C2    C4    S    
C9    H35   S    
C15   H6    S    
O8    Zn1   S    
N1    Zn2   S    
C12   O5    A    
C3    C31   S    
O1    Zn1   S    
O11   Zn1   S    
O5    Zn2   S    
C22   C24   S    
C14   C29   S    
C15   H4    S    
O7    Zn1   S    
C30   H1    S    
C27   C32   S    
C11   H2    S    
C4    C29   S    
C20   H21   S    
C18   H16   S    
C22   H26   S    
C19   H13   S    
C16   O2    S    
C24   H24   S    
H10   O4    S    
C1    O1    A    
C27   O11   A    
C26   H30   S    
C29   C31   S    
C30   C32   S    
C11   C13   S    
C13   H37   S    
C11   C28   S    
C28   C30   S    
C3    C32   S    
C14   H8    S    
C20   C21   S    
C20   H20   S    
C2    C23   S    
C17   O3    D    
C14   C15   S    
C2    C28   S    
C26   H28   S    
C4    C30   S    
C13   H36   S    
C10   N2    D    
