data_mof_unit_1865.cif
_audit_creation_date              2012-12-11T17:19:13-0500
_audit_creation_method            fapswitch 2.2
_symmetry_space_group_name_H-M    P1
_symmetry_Int_Tables_number       1
_space_group_crystal_system       triclinic
_cell_length_a                    14.945043
_cell_length_b                    7.408987
_cell_length_c                    13.412117
_cell_angle_alpha                 89.932895
_cell_angle_beta                  100.291894
_cell_angle_gamma                 89.760943
_cell_volume                      1461.18178119

loop_
_atom_site_label
_atom_site_type_symbol
_atom_type_description
_atom_site_fract_x
_atom_site_fract_y
_atom_site_fract_z
_atom_type_partial_charge
O1    O     O_R   0.648180 0.355050 0.151550 -0.528793
O2    O     O_R   0.351820 0.644950 0.848450 -0.533739
O3    O     O_R   0.851820 0.855050 0.348450 -0.530417
O4    O     O_R   0.148180 0.144950 0.651550 -0.531358
O5    O     O_R   0.835240 0.681980 0.154280 -0.546299
O6    O     O_R   0.164760 0.318020 0.845720 -0.540222
O7    O     O_R   0.664760 0.181980 0.345720 -0.543592
O8    O     O_R   0.335240 0.818020 0.654280 -0.537654
C1    C     C_R   0.859749 0.514706 0.129014 0.687163
C2    C     C_R   0.143911 0.484972 0.874827 0.666467
C3    C     C_R   0.638967 0.014837 0.369637 0.690859
C4    C     C_R   0.356648 0.985342 0.625754 0.665690
O9    O     O_R   0.647870 0.684600 0.139630 -0.538323
O10   O     O_R   0.352130 0.315400 0.860370 -0.537276
O11   O     O_R   0.852130 0.184600 0.360370 -0.536866
O12   O     O_R   0.147870 0.815400 0.639630 -0.538405
O13   O     O_R   0.663110 0.857440 0.333700 -0.525849
O14   O     O_R   0.336890 0.142560 0.666300 -0.536787
O15   O     O_R   0.836890 0.357440 0.166300 -0.524039
O16   O     O_R   0.163110 0.642560 0.833700 -0.529800
C5    C     C_R   0.614116 0.517101 0.115019 0.725671
C6    C     C_R   0.385982 0.483603 0.884651 0.715859
C7    C     C_R   0.886515 0.016519 0.383999 0.725971
C8    C     C_R   0.113872 0.983761 0.615506 0.717886
O17   O     O_3   0.755220 0.522230 0.313690 -0.388889
O18   O     O_3   0.244780 0.477770 0.686310 -0.388372
O19   O     O_3   0.744780 0.022230 0.186310 -0.389116
O20   O     O_3   0.255220 0.977770 0.813690 -0.386813
V1    V     V_3+5 0.749030 0.796100 0.238190 1.369144
V2    V     V_3+5 0.250970 0.203900 0.761810 1.371627
V3    V     V_3+5 0.750970 0.296100 0.261810 1.375424
V4    V     V_3+5 0.249030 0.703900 0.738190 1.374853
C9    C     C_1   0.967116 0.006214 0.465376 -0.211779
C10   C     C_1   0.033553 0.994721 0.533915 -0.191517
C11   C     C_1   0.534383 0.508027 0.032496 -0.210564
C12   C     C_1   0.467623 0.495523 0.964400 -0.187047
H1    H     H_    0.225601 0.060805 0.251429 0.158067
H2    H     H_    0.755126 0.781831 0.732155 0.142798
H3    H     H_    0.261351 0.688911 0.242332 0.164986
H4    H     H_    0.747922 0.270165 0.768562 0.142766
C13   C     C_R   0.538027 0.914848 0.706435 -0.196610
C14   C     C_R   0.452705 0.026645 0.283532 -0.207334
C15   C     C_R   0.963392 0.409581 0.794385 -0.195233
C16   C     C_R   0.040374 0.591567 0.210921 -0.196180
C17   C     C_R   0.622314 0.853896 0.753465 0.125143
C18   C     C_R   0.363101 0.033756 0.233230 0.115409
C19   C     C_R   0.879536 0.348459 0.747104 0.124987
C20   C     C_R   0.126382 0.638408 0.260005 0.110243
C21   C     C_R   0.689440 0.831763 0.695855 -0.136024
C22   C     C_R   0.294993 0.058082 0.290193 -0.113251
C23   C     C_R   0.812969 0.321774 0.804930 -0.136095
C24   C     C_R   0.195960 0.641648 0.204740 -0.116081
C25   C     C_R   0.678128 0.889615 0.594832 0.089197
C26   C     C_R   0.314153 0.075240 0.396195 0.050608
C27   C     C_R   0.823300 0.380780 0.905614 0.091615
C28   C     C_R   0.185195 0.571747 0.105635 0.072741
C29   C     C_R   0.589860 0.950118 0.542823 0.016355
C30   C     C_R   0.404617 0.034677 0.449830 -0.002743
C31   C     C_R   0.910871 0.443583 0.957577 0.015706
C32   C     C_R   0.094882 0.536057 0.050418 0.000844
C33   C     C_R   0.517865 0.953530 0.601204 0.039274
C34   C     C_R   0.475859 0.024011 0.390912 0.044109
C35   C     C_R   0.983200 0.447258 0.899675 0.038159
C36   C     C_R   0.021334 0.546213 0.106440 0.037695
C37   C     C_R   0.568794 0.000958 0.437357 -0.137006
C38   C     C_R   0.426554 0.996772 0.557017 -0.139156
C39   C     C_R   0.930156 0.503152 0.061484 -0.136790
C40   C     C_R   0.074222 0.491444 0.944084 -0.138338
C41   C     C_3   0.638522 0.816399 0.866050 -0.356181
C42   C     C_3   0.739463 0.824558 0.916745 -0.789219
H5    H     H_    0.778913 0.712421 0.893689 0.220115
H6    H     H_    0.774505 0.944486 0.893402 0.229791
H7    H     H_    0.745028 0.823489 0.999997 0.255143
H8    H     H_    0.599580 0.913867 0.904396 0.179496
H9    H     H_    0.606619 0.687358 0.879476 0.176329
C43   C     C_3   0.343768 0.016643 0.118382 -0.352498
C44   C     C_3   0.244131 0.042731 0.067825 -0.740405
H10   H     H_    0.202080 0.928060 0.083982 0.221987
H11   H     H_    0.214889 0.167711 0.094039 0.222220
H12   H     H_    0.239263 0.052670 0.985027 0.252807
H13   H     H_    0.385275 0.115678 0.085075 0.182924
H14   H     H_    0.367399 0.882696 0.097344 0.181637
C45   C     C_3   0.862831 0.318105 0.633862 -0.355716
C46   C     C_3   0.761723 0.330120 0.583791 -0.785533
H15   H     H_    0.721954 0.218301 0.605733 0.219250
H16   H     H_    0.727168 0.449724 0.608844 0.229793
H17   H     H_    0.755579 0.331656 0.500405 0.254231
H18   H     H_    0.901485 0.418021 0.597162 0.178089
H19   H     H_    0.894915 0.190325 0.617591 0.175347
C47   C     C_3   0.142545 0.671804 0.373417 -0.360291
C48   C     C_3   0.239361 0.629895 0.428674 -0.744605
H20   H     H_    0.265704 0.501965 0.402773 0.228623
H21   H     H_    0.286952 0.736489 0.415541 0.218062
H22   H     H_    0.240001 0.620792 0.511066 0.256602
H23   H     H_    0.124701 0.812300 0.387643 0.187627
H24   H     H_    0.095446 0.586974 0.408524 0.180835
H25   H     H_    0.488068 0.930094 0.755040 0.125936
H26   H     H_    0.503874 0.012636 0.236246 0.118109
H27   H     H_    0.013064 0.427240 0.745708 0.126108
H28   H     H_    0.988558 0.589944 0.257716 0.124438
C49   C     C_3   0.768210 0.905443 0.559062 -0.397173
C50   C     C_3   0.808865 0.725379 0.541633 -0.702170
H29   H     H_    0.826222 0.660818 0.616411 0.216409
H30   H     H_    0.760493 0.647549 0.486280 0.268346
H31   H     H_    0.874702 0.736470 0.516293 0.222066
H32   H     H_    0.768992 0.998139 0.496607 0.185470
H33   H     H_    0.816782 0.963652 0.622242 0.184454
C51   C     C_3   0.236784 0.131440 0.449024 -0.337062
C52   C     C_3   0.149528 0.203569 0.381949 -0.782841
H34   H     H_    0.165421 0.301026 0.325351 0.245019
H35   H     H_    0.108865 0.094210 0.340151 0.212372
H36   H     H_    0.106570 0.271864 0.429987 0.234477
H37   H     H_    0.218089 0.012666 0.489579 0.169832
H38   H     H_    0.261402 0.241341 0.502606 0.211996
C53   C     C_3   0.732534 0.399555 0.939847 -0.397853
C54   C     C_3   0.691451 0.221032 0.958163 -0.703250
H39   H     H_    0.673792 0.156423 0.883636 0.217554
H40   H     H_    0.739733 0.142253 0.013645 0.268142
H41   H     H_    0.625825 0.234386 0.983846 0.222430
H42   H     H_    0.730910 0.493058 0.001578 0.183229
H43   H     H_    0.684646 0.458145 0.875736 0.184542
C55   C     C_3   0.272519 0.527772 0.067258 -0.360689
C56   C     C_3   0.353952 0.484434 0.152318 -0.759686
H44   H     H_    0.388320 0.609345 0.184203 0.214502
H45   H     H_    0.332020 0.405754 0.214053 0.242878
H46   H     H_    0.404953 0.401196 0.124104 0.222050
H47   H     H_    0.263364 0.405723 0.019982 0.182015
H48   H     H_    0.289264 0.641482 0.020447 0.188929

loop_
_geom_bond_atom_site_label_1
_geom_bond_atom_site_label_2
_ccdc_geom_bond_type
O17   V3    S    
C16   C20   A    
C30   C34   A    
C49   C50   S    
C53   H43   S    
C27   C31   A    
O19   V1    S    
O13   V1    S    
C51   C52   S    
O3    C7    A    
C11   C12   T    
C46   H17   S    
C13   C33   A    
O15   V3    S    
C18   C43   S    
C15   C35   A    
C56   H44   S    
H2    C21   S    
C44   H10   S    
C16   C36   A    
O1    C5    A    
C22   C26   A    
O9    V1    S    
C46   H16   S    
C52   H35   S    
O16   V4    S    
O4    C8    A    
C56   H45   S    
C53   C54   S    
O1    V3    S    
C54   H39   S    
C50   H31   S    
O2    V4    S    
C14   C18   A    
C51   H38   S    
C55   H47   S    
O3    V1    S    
C31   C39   A    
C33   C38   A    
C30   C38   A    
C2    O16   A    
C7    C9    S    
O2    C6    A    
C42   H5    S    
O14   V2    S    
C19   C45   S    
C14   C34   A    
O11   C7    A    
H3    C24   S    
O12   C8    A    
C20   C47   S    
C41   C42   S    
O10   V2    S    
C1    O15   A    
O5    V1    S    
C44   H11   S    
C45   H19   S    
O7    V3    S    
C17   C41   S    
O8    V4    S    
C36   C39   A    
C47   H23   S    
C43   C44   S    
C52   H36   S    
C43   H14   S    
C48   H20   S    
C25   C29   A    
O18   V4    S    
C56   H46   S    
C19   C23   A    
C4    C38   S    
O11   V3    S    
C8    C10   S    
C28   C32   A    
C28   C55   S    
C51   H37   S    
O7    C3    A    
C1    C39   S    
O5    C1    A    
C48   H21   S    
C45   C46   S    
C17   C21   A    
O8    C4    A    
C47   H24   S    
C42   H7    S    
C9    C10   T    
O9    C5    A    
C41   H8    S    
C46   H15   S    
C50   H30   S    
O6    V2    S    
C13   H25   S    
C26   C30   A    
C44   H12   S    
C49   H32   S    
C35   C40   A    
C3    O13   A    
C34   C37   A    
C31   C35   A    
C29   C37   A    
C43   H13   S    
O6    C2    A    
C29   C33   A    
C5    C11   S    
C2    C40   S    
O12   V4    S    
H4    C23   S    
C6    C12   S    
C18   C22   A    
C25   C49   S    
C54   H41   S    
C26   C51   S    
C32   C36   A    
O10   C6    A    
C14   H26   S    
C52   H34   S    
C15   H27   S    
C48   H22   S    
H1    C22   S    
C16   H28   S    
C47   C48   S    
C27   C53   S    
C21   C25   A    
O20   V2    S    
C54   H40   S    
C41   H9    S    
C23   C27   A    
C55   H48   S    
C50   H29   S    
C24   C28   A    
C20   C24   A    
C32   C40   A    
C53   H42   S    
C4    O14   A    
C49   H33   S    
C13   C17   A    
C42   H6    S    
C55   C56   S    
C45   H18   S    
C15   C19   A    
O4    V2    S    
C3    C37   S    
