data_mof_unit_1681.cif
_audit_creation_date              2012-12-11T14:01:43-0500
_audit_creation_method            fapswitch 2.2
_symmetry_space_group_name_H-M    P1
_symmetry_Int_Tables_number       1
_space_group_crystal_system       triclinic
_cell_length_a                    19.076107
_cell_length_b                    11.004706
_cell_length_c                    18.764685
_cell_angle_alpha                 89.984191
_cell_angle_beta                  89.809554
_cell_angle_gamma                 89.676167
_cell_volume                      3939.12826512

loop_
_atom_site_label
_atom_site_type_symbol
_atom_type_description
_atom_site_fract_x
_atom_site_fract_y
_atom_site_fract_z
_atom_type_partial_charge
C1    C     C_R   0.272823 0.040584 0.853990 0.553075
C2    C     C_R   0.016520 0.658085 0.961815 -0.099625
C3    C     C_R   0.486229 0.159459 0.036310 -0.098305
C4    C     C_R   0.497874 0.166580 0.963415 -0.092756
C5    C     C_2   0.247978 0.577285 0.917983 -0.104990
C6    C     C_2   0.759129 0.569508 0.085765 -0.126955
C7    C     C_2   0.741305 0.069280 0.914276 -0.126802
C8    C     C_2   0.252022 0.078491 0.081690 -0.104083
C9    C     C_2   0.250863 0.584900 0.076887 -0.125355
C10   C     C_2   0.756114 0.565193 0.930110 -0.122248
C11   C     C_2   0.744083 0.065540 0.069963 -0.123378
C12   C     C_R   0.725663 0.036188 0.143907 0.542426
C13   C     C_2   0.248681 0.086161 0.922614 -0.124409
C14   C     C_2   0.291730 0.517946 0.032839 -0.065934
C15   C     C_2   0.715457 0.492667 0.972031 -0.031351
C16   C     C_2   0.785315 0.992852 0.028236 -0.032053
C17   C     C_2   0.208225 0.020002 0.966987 -0.065725
C18   C     C_2   0.302603 0.557062 0.960426 -0.175094
C19   C     C_2   0.710258 0.511268 0.049279 -0.171568
C20   C     C_2   0.790467 0.011029 0.950911 -0.171873
C21   C     C_2   0.197348 0.060217 0.039153 -0.175133
C22   C     C_2   0.486068 0.828880 0.571494 -0.079418
C23   C     C_R   0.774420 0.535919 0.856095 0.534896
C24   C     C_2   0.487731 0.839901 0.415485 -0.104454
C25   C     C_2   0.985970 0.328888 0.571440 -0.079570
C26   C     C_2   0.987647 0.339910 0.415427 -0.106370
C27   C     C_2   0.468300 0.742474 0.452324 -0.140913
C28   C     C_2   0.453714 0.749750 0.527934 -0.138981
C29   C     C_2   0.968175 0.242494 0.452258 -0.141812
C30   C     C_2   0.953607 0.249759 0.527883 -0.139503
C31   C     C_2   0.246909 0.577431 0.579391 -0.084592
C32   C     C_2   0.753749 0.558193 0.413680 -0.093213
C33   C     C_2   0.746909 0.077420 0.579398 -0.085239
C34   C     C_R   0.227102 0.540460 0.145855 0.561300
C35   C     C_2   0.253780 0.058142 0.413651 -0.092014
C36   C     C_2   0.211393 0.482453 0.435317 -0.016609
C37   C     C_2   0.760809 0.572941 0.573281 0.019437
C38   C     C_2   0.711412 0.982465 0.435317 -0.016929
C39   C     C_2   0.260831 0.072876 0.573250 0.018848
C40   C     C_R   0.473120 0.823112 0.851528 0.540003
C41   C     C_R   0.532387 0.820957 0.143863 0.547741
C42   C     C_R   0.967761 0.320655 0.856023 0.548330
C43   C     C_R   0.027019 0.323543 0.148333 0.539299
C44   C     C_2   0.168043 0.546217 0.477789 -0.168755
C45   C     C_R   0.486202 0.047064 0.070329 -0.082585
C46   C     C_2   0.812627 0.542632 0.526844 -0.140644
C47   C     C_2   0.668047 0.046182 0.477798 -0.169129
C48   C     C_2   0.312674 0.042650 0.526823 -0.141567
C49   C     C_2   0.181361 0.566805 0.553964 -0.146400
C50   C     C_2   0.811798 0.572721 0.451362 -0.146697
C51   C     C_2   0.681363 0.066758 0.553976 -0.147034
C52   C     C_2   0.311831 0.072697 0.451332 -0.146227
C53   C     C_R   0.260410 0.635016 0.850239 0.562319
C54   C     C_R   0.740936 0.632748 0.151029 0.555434
C55   C     C_R   0.759177 0.132481 0.848980 0.558258
C56   C     C_R   0.509055 0.060978 0.924101 -0.067834
C57   C     C_R   0.239609 0.135533 0.149658 0.559507
C58   C     C_R   0.273395 0.043760 0.647023 0.538176
C59   C     C_R   0.705850 0.989944 0.357872 0.572030
C60   C     C_R   0.773376 0.543806 0.647047 0.535180
C61   C     C_R   0.205845 0.489938 0.357871 0.572321
C62   C     C_R   0.467944 0.823135 0.646191 0.541753
C63   C     C_R   0.527776 0.824738 0.350615 0.552610
C64   C     C_R   0.967889 0.323132 0.646155 0.547440
C65   C     C_R   0.027740 0.324739 0.350586 0.546987
C66   C     C_R   0.260155 0.635991 0.646651 0.542188
C67   C     C_R   0.992791 0.562037 0.074486 -0.067005
C68   C     C_R   0.740240 0.632757 0.351703 0.550461
C69   C     C_R   0.760153 0.135981 0.646656 0.539739
C70   C     C_R   0.240246 0.132744 0.351694 0.552963
C71   C     C_R   0.513835 0.825774 0.067102 -0.015610
C72   C     C_R   0.513525 0.836861 0.917629 -0.019879
C73   C     C_R   0.986924 0.338071 0.082029 -0.019688
C74   C     C_R   0.986754 0.325323 0.932618 -0.015939
C75   C     C_R   0.502795 0.939250 0.032531 -0.023795
C76   C     C_R   0.508537 0.945734 0.957459 -0.013527
C77   C     C_R   0.992718 0.446301 0.041727 -0.013645
C78   C     C_R   0.015878 0.545254 0.928380 -0.083807
C79   C     C_R   0.998534 0.438669 0.966705 -0.023440
C80   C     C_R   0.535165 0.729950 0.951014 0.123772
C81   C     C_R   0.527786 0.720055 0.024783 0.143679
C82   C     C_R   0.972313 0.220571 0.975303 0.143039
C83   C     C_R   0.964808 0.231550 0.049003 0.123838
C84   C     C_3   0.606474 0.648850 0.851981 -0.265831
C85   C     C_3   0.469498 0.544455 0.072761 -0.275190
C86   C     C_3   0.029907 0.042715 0.927964 -0.275152
C87   C     C_3   0.892250 0.154376 0.147741 -0.266589
C88   C     C_1   0.264027 0.400371 0.464061 0.219756
C89   C     C_R   0.004648 0.666687 0.034634 -0.092355
C90   C     C_1   0.696212 0.634229 0.554104 0.194153
C91   C     C_1   0.764073 0.900420 0.464047 0.219888
C92   C     C_1   0.196166 0.133927 0.554039 0.196899
C93   C     C_1   0.323202 0.402508 0.049872 0.223680
C94   C     C_1   0.668807 0.401484 0.944228 0.236985
C95   C     C_1   0.832425 0.901676 0.056391 0.236531
C96   C     C_1   0.177945 0.903861 0.950896 0.224264
Cr1   Cr    Cr6+3 0.230530 0.836340 0.748870 1.041662
Cr2   Cr    Cr6+3 0.614360 0.677860 0.250770 1.033629
Cr3   Cr    Cr6+3 0.885640 0.177860 0.749230 1.039001
Cr4   Cr    Cr6+3 0.114360 0.177860 0.250770 1.015864
Cr5   Cr    Cr6+3 0.769470 0.836340 0.251130 1.034097
Cr6   Cr    Cr6+3 0.730530 0.336340 0.748870 1.034079
Cr7   Cr    Cr6+3 0.269470 0.336340 0.251130 1.041106
Cr8   Cr    Cr6+3 0.387420 0.989430 0.750820 1.018345
Cr9   Cr    Cr6+3 0.612580 0.989430 0.249180 1.009587
Cr10  Cr    Cr6+3 0.887420 0.489430 0.750820 1.019969
Cr11  Cr    Cr6+3 0.112580 0.489430 0.249180 1.008402
Cr12  Cr    Cr6+3 0.385640 0.677860 0.749230 1.020383
H1    H     H_    0.123493 0.594300 0.455119 0.143657
H2    H     H_    0.710781 0.504357 0.434809 0.125203
H3    H     H_    0.792910 0.063012 0.546571 0.114138
H4    H     H_    0.210825 0.004264 0.434771 0.125146
H5    H     H_    0.472066 0.046471 0.126082 0.135797
H6    H     H_    0.520465 0.070731 0.867890 0.135457
H7    H     H_    0.981220 0.573051 0.130589 0.136236
H8    H     H_    0.029952 0.543236 0.872607 0.134899
H9    H     H_    0.005251 0.754640 0.060387 0.134286
H10   H     H_    0.025556 0.739243 0.930793 0.133736
H11   H     H_    0.477777 0.241439 0.066891 0.133224
H12   H     H_    0.861177 0.502625 0.546345 0.138991
H13   H     H_    0.497553 0.254139 0.937172 0.134613
H14   H     H_    0.356204 0.567512 0.941700 0.149870
H15   H     H_    0.663632 0.480583 0.076951 0.148608
H16   H     H_    0.837244 0.979993 0.923288 0.148199
H17   H     H_    0.143735 0.072551 0.057684 0.150986
H18   H     H_    0.227805 0.669318 0.057616 0.123068
H19   H     H_    0.784323 0.640903 0.953109 0.105233
H20   H     H_    0.715472 0.141241 0.046818 0.105015
H21   H     H_    0.271157 0.170908 0.941422 0.122257
H22   H     H_    0.194529 0.566405 0.937256 0.129848
H23   H     H_    0.623482 0.094232 0.455135 0.143526
H24   H     H_    0.810003 0.588470 0.062237 0.130662
H25   H     H_    0.690305 0.088413 0.937737 0.131102
H26   H     H_    0.305463 0.066127 0.062484 0.129480
H27   H     H_    0.468836 0.652431 0.428551 0.165490
H28   H     H_    0.418989 0.680402 0.549077 0.155703
H29   H     H_    0.968692 0.152459 0.428475 0.164668
H30   H     H_    0.918902 0.180397 0.549042 0.154790
H31   H     H_    0.483204 0.930572 0.438086 0.093238
H32   H     H_    0.520764 0.899536 0.552146 0.097791
H33   H     H_    0.983129 0.430580 0.438029 0.094018
H34   H     H_    0.361256 0.002777 0.546338 0.139540
H35   H     H_    0.020649 0.399560 0.552081 0.098144
H36   H     H_    0.521394 0.560427 0.902631 0.267863
H37   H     H_    0.623197 0.560624 0.829357 0.173101
H38   H     H_    0.652603 0.700264 0.871024 0.142495
H39   H     H_    0.582018 0.700525 0.807972 0.154466
H40   H     H_    0.567725 0.544099 0.029310 0.263164
H41   H     H_    0.445047 0.513492 0.022558 0.125190
H42   H     H_    0.433405 0.607280 0.101531 0.164016
H43   H     H_    0.479462 0.464157 0.107143 0.147915
H44   H     H_    0.931757 0.045898 0.971503 0.263572
H45   H     H_    0.136725 0.592558 0.586888 0.148929
H46   H     H_    0.054324 0.011574 0.978284 0.125637
H47   H     H_    0.066180 0.104090 0.898859 0.164323
H48   H     H_    0.019611 0.962328 0.893946 0.147641
H49   H     H_    0.977391 0.062335 0.098459 0.268447
H50   H     H_    0.874993 0.067113 0.170842 0.173321
H51   H     H_    0.846364 0.206498 0.127855 0.143889
H52   H     H_    0.916603 0.206316 0.191520 0.151377
H53   H     H_    0.857154 0.618928 0.429333 0.167843
H54   H     H_    0.636724 0.092474 0.586907 0.148562
H55   H     H_    0.357171 0.118946 0.429303 0.167996
H56   H     H_    0.292909 0.562983 0.546569 0.114177
N1    N     N_2   0.558268 0.627238 0.910504 -0.518217
N2    N     N_1   0.630107 0.329715 0.923024 -0.325707
N3    N     N_1   0.871397 0.829865 0.077967 -0.324982
N4    N     N_1   0.152275 0.810941 0.940381 -0.330031
N5    N     N_2   0.535072 0.602677 0.056262 -0.474765
N6    N     N_2   0.964563 0.103151 0.944247 -0.475035
N7    N     N_2   0.940891 0.130205 0.089835 -0.518884
N8    N     N_1   0.306762 0.337132 0.487425 -0.307133
N9    N     N_1   0.644591 0.683365 0.538862 -0.304663
N10   N     N_1   0.806829 0.837207 0.487396 -0.307290
N11   N     N_1   0.144487 0.182854 0.538760 -0.301835
N12   N     N_1   0.349830 0.310157 0.061220 -0.328461
O1    O     O_R   0.215090 0.709860 0.828130 -0.488373
O2    O     O_R   0.543740 0.718170 0.330000 -0.505384
O3    O     O_R   0.956260 0.218170 0.670000 -0.505838
O4    O     O_R   0.043740 0.218170 0.330000 -0.507654
O5    O     O_R   0.320940 0.626760 0.674370 -0.503378
O6    O     O_R   0.679060 0.626760 0.325630 -0.500118
O7    O     O_R   0.820940 0.126760 0.674370 -0.506560
O8    O     O_R   0.179060 0.126760 0.325630 -0.496898
O9    O     O_3   0.334530 0.834540 0.749640 -0.256075
O10   O     O_3   0.665470 0.834540 0.250360 -0.281056
O11   O     O_3   0.834530 0.334540 0.749640 -0.258378
O12   O     O_R   0.784910 0.709860 0.171870 -0.494487
O13   O     O_3   0.165470 0.334540 0.250360 -0.279138
O14   O     O_R   0.236990 0.958390 0.823710 -0.484688
O15   O     O_R   0.763010 0.958390 0.176290 -0.492651
O16   O     O_R   0.736990 0.458390 0.823710 -0.497134
O17   O     O_R   0.263010 0.458390 0.176290 -0.481214
O18   O     O_R   0.332380 0.074750 0.830850 -0.509352
O19   O     O_R   0.667620 0.074750 0.169150 -0.506487
O20   O     O_R   0.832380 0.574750 0.830850 -0.508569
O21   O     O_R   0.167620 0.574750 0.169150 -0.507406
O22   O     O_R   0.445800 0.917770 0.825070 -0.510941
O23   O     O_R   0.715090 0.209860 0.828130 -0.493052
O24   O     O_R   0.554200 0.917770 0.174930 -0.516424
O25   O     O_R   0.945800 0.417770 0.825070 -0.514282
O26   O     O_R   0.054200 0.417770 0.174930 -0.513004
O27   O     O_R   0.456410 0.716580 0.829970 -0.514501
O28   O     O_R   0.543590 0.716580 0.170030 -0.473896
O29   O     O_R   0.956410 0.216580 0.829970 -0.473547
O30   O     O_R   0.043590 0.216580 0.170030 -0.514557
O31   O     O_R   0.321080 0.625290 0.822650 -0.502861
O32   O     O_R   0.678920 0.625290 0.177350 -0.489576
O33   O     O_R   0.821080 0.125290 0.822650 -0.489145
O34   O     O_R   0.284910 0.209860 0.171870 -0.489424
O35   O     O_R   0.178920 0.125290 0.177350 -0.503198
O36   O     O_R   0.214930 0.711450 0.668160 -0.515054
O37   O     O_R   0.785070 0.711450 0.331840 -0.515835
O38   O     O_R   0.714930 0.211450 0.668160 -0.514445
O39   O     O_R   0.285070 0.211450 0.331840 -0.516526
O40   O     O_R   0.236850 0.959870 0.675420 -0.497885
O41   O     O_R   0.763150 0.959870 0.324580 -0.499128
O42   O     O_R   0.736850 0.459870 0.675420 -0.500201
O43   O     O_R   0.263150 0.459870 0.324580 -0.495771
O44   O     O_R   0.332230 0.076350 0.670880 -0.512902
O45   O     O_R   0.445660 0.919250 0.676780 -0.509329
O46   O     O_R   0.667770 0.076350 0.329120 -0.517941
O47   O     O_R   0.832230 0.576350 0.670880 -0.512064
O48   O     O_R   0.167770 0.576350 0.329120 -0.517625
O49   O     O_R   0.554340 0.919250 0.323220 -0.525471
O50   O     O_R   0.945660 0.419250 0.676780 -0.507882
O51   O     O_R   0.054340 0.419250 0.323220 -0.526656
O52   O     O_R   0.456260 0.718170 0.670000 -0.509328

loop_
_geom_bond_atom_site_label_1
_geom_bond_atom_site_label_2
_ccdc_geom_bond_type
C44   C49   S    
C43   C73   S    
C31   C66   S    
C17   C96   S    
C57   O35   A    
C30   H30   S    
Cr1   O36   S    
Cr8   O45   S    
Cr4   O13   S    
C67   C77   A    
C24   C27   D    
C7    C55   S    
C72   C76   A    
C94   N2    T    
C15   C94   S    
C64   O50   A    
C2    H10   S    
C63   O49   A    
C84   H37   S    
C36   C88   S    
Cr1   O9    S    
Cr8   O9    S    
C90   N9    T    
C19   H15   S    
C63   O2    A    
C32   H2    S    
C37   C90   S    
Cr3   O29   S    
Cr5   O41   S    
C88   N8    T    
C70   O39   A    
C49   H45   S    
C6    C54   S    
Cr10  O11   S    
C7    H25   S    
Cr12  O27   S    
C10   C15   D    
Cr12  O31   S    
C82   N6    S    
C22   C62   S    
C1    O14   A    
Cr9   O46   S    
C22   H32   S    
C67   C89   A    
C87   H52   S    
C65   O51   A    
C42   O29   A    
Cr9   O19   S    
C62   O45   A    
C86   H48   S    
C85   H42   S    
Cr8   O44   S    
C67   H7    S    
C84   N1    S    
C31   H56   S    
C58   O44   A    
C73   C77   A    
Cr6   O38   S    
Cr9   O24   S    
C55   O23   A    
C35   C70   S    
Cr5   O37   S    
Cr5   O10   S    
Cr1   O40   S    
C83   N7    S    
C23   O20   A    
Cr6   O16   S    
C96   N4    T    
C33   H3    S    
Cr9   O49   S    
Cr2   O2    S    
Cr5   O12   S    
C93   N12   T    
C14   C93   S    
Cr3   O7    S    
C33   C69   S    
C32   C68   S    
C44   H1    S    
Cr2   O28   S    
C87   N7    S    
C92   N11   T    
C22   C28   D    
C4    C56   A    
C50   H53   S    
Cr2   O32   S    
C25   H35   S    
C74   C82   A    
C41   O24   A    
C39   C92   S    
Cr7   O34   S    
Cr3   O11   S    
C23   O16   A    
C8    C21   D    
C85   H41   S    
C77   C79   A    
C24   H31   S    
C42   C74   S    
C8    H26   S    
Cr12  O9    S    
C9    H18   S    
C51   H54   S    
Cr11  O26   S    
C6    H24   S    
C59   O41   A    
Cr11  O21   S    
C9    C14   D    
Cr4   O30   S    
C78   C79   A    
C47   C51   S    
C5    C18   D    
Cr12  O52   S    
C39   C58   S    
C38   C91   S    
C3    C45   A    
C85   N5    S    
C91   N10   T    
C47   H23   S    
C25   C64   S    
Cr9   O10   S    
Cr2   O6    S    
C2    C89   A    
C15   C19   S    
C75   C76   A    
C85   H43   S    
Cr3   O3    S    
C29   C30   S    
C6    C19   D    
C59   O46   A    
C60   O42   A    
C8    C57   S    
C55   O33   A    
H44   N6    S    
C11   C16   D    
Cr1   O1    S    
Cr10  O47   S    
C40   O27   A    
C48   C52   S    
C16   C20   S    
C68   O6    A    
Cr11  O13   S    
C43   O26   A    
Cr10  O50   S    
H40   N5    S    
C41   C71   S    
C46   H12   S    
C86   H47   S    
C41   O28   A    
C68   O37   A    
C32   C50   D    
C38   C47   D    
C3    H11   S    
C69   O7    A    
Cr7   O13   S    
Cr12  O5    S    
C34   O17   A    
C70   O8    A    
Cr1   O14   S    
C66   O5    A    
C18   H14   S    
C7    C20   D    
C24   C63   S    
C81   N5    S    
C74   C79   A    
C9    C34   S    
C12   O19   A    
C36   C44   D    
C1    C13   S    
C66   O36   A    
C3    C4    A    
C26   H33   S    
C60   O47   A    
Cr7   O39   S    
C80   N1    S    
C35   C52   D    
C2    C78   A    
Cr11  O48   S    
Cr3   O33   S    
C84   H39   S    
C5    C53   S    
C25   C30   D    
C64   O3    A    
C12   O15   A    
C58   O40   A    
C57   O34   A    
C5    H22   S    
C16   C95   S    
Cr8   O18   S    
C40   C72   S    
C28   H28   S    
C26   C65   S    
Cr8   O22   S    
C14   C18   S    
C78   H8    S    
C69   O38   A    
C61   O43   A    
C89   H9    S    
C80   C81   A    
Cr5   O15   S    
C53   O1    A    
Cr10  O20   S    
C11   C12   S    
C36   C61   S    
C65   O4    A    
C84   H38   S    
C10   C23   S    
C33   C51   D    
C29   H29   S    
C46   C50   S    
Cr4   O35   S    
C54   O32   A    
Cr6   O11   S    
C87   H50   S    
C13   C17   D    
H36   N1    S    
C45   C75   A    
C27   H27   S    
C1    O18   A    
C86   H46   S    
C61   O48   A    
C72   C80   A    
C56   C76   A    
Cr6   O23   S    
H49   N7    S    
Cr10  O25   S    
C71   C75   A    
C34   O21   A    
C40   O22   A    
C86   N6    S    
C62   O52   A    
C53   O31   A    
C87   H51   S    
C4    H13   S    
C11   H20   S    
C95   N3    T    
Cr4   O8    S    
C17   C21   S    
C20   H16   S    
C37   C60   S    
Cr6   O42   S    
C52   H55   S    
C38   C59   S    
C45   H5    S    
Cr11  O51   S    
C48   H34   S    
C26   C29   D    
Cr2   O10   S    
C82   C83   A    
Cr7   O43   S    
C27   C28   S    
C56   H6    S    
C42   O25   A    
C54   O12   A    
C31   C49   D    
C71   C81   A    
C37   C46   D    
C21   H17   S    
C73   C83   A    
C13   H21   S    
C35   H4    S    
C10   H19   S    
Cr7   O17   S    
C39   C48   D    
C43   O30   A    
Cr4   O4    S    
