data_mof_unit_1295.cif
_audit_creation_date              2013-03-05T15:53:41-0500
_audit_creation_method            fapswitch 2.2
_symmetry_space_group_name_H-M    P1
_symmetry_Int_Tables_number       1
_space_group_crystal_system       triclinic
_cell_length_a                    12.89848
_cell_length_b                    13.275163
_cell_length_c                    27.664498
_cell_angle_alpha                 95.049476
_cell_angle_beta                  90.328364
_cell_angle_gamma                 118.771543
_cell_volume                      4129.78308917

loop_
_atom_site_label
_atom_site_type_symbol
_atom_site_description
_atom_site_fract_x
_atom_site_fract_y
_atom_site_fract_z
_atom_type_partial_charge
O1    O     O_R   0.296680 0.802170 0.437540 -0.513578
O2    O     O_R   0.525380 0.838530 0.443500 -0.495192
C1    C     C_R   0.628723 0.895002 0.427772 0.544956
O3    O     O_R   0.702130 0.995190 0.446810 -0.509235
O4    O     O_R   0.661770 0.181390 0.458760 -0.491080
C2    C     C_R   0.601212 0.222538 0.440746 0.560622
O5    O     O_R   0.499820 0.198480 0.455280 -0.457187
O6    O     O_R   0.311660 0.976250 0.449080 -0.432396
C3    C     C_R   0.266449 0.875521 0.425999 0.565124
O7    O     O_R   0.297580 0.804960 0.544440 -0.492333
O8    O     O_R   0.526220 0.841130 0.542590 -0.502599
C4    C     C_R   0.627383 0.899474 0.565083 0.536335
O9    O     O_R   0.703030 0.997990 0.553710 -0.470842
O10   O     O_R   0.662610 0.183990 0.557860 -0.427236
C5    C     C_R   0.573682 0.173884 0.582316 0.552128
O11   O     O_R   0.500730 0.201280 0.562180 -0.501103
O12   O     O_R   0.312500 0.978850 0.548170 -0.514993
C6    C     C_R   0.272375 0.880170 0.563611 0.541419
Cr1   Cr    Cr6+3 0.416430 0.829200 0.492370 1.055886
Cr2   Cr    Cr6+3 0.674630 0.087020 0.504170 1.116835
Cr3   Cr    Cr6+3 0.408920 0.083740 0.503490 1.115920
O13   O     O_3   0.499990 0.999990 0.500010 -0.304594
C7    C     C_1   0.633961 0.270788 0.395330 0.020091
C8    C     C_R   0.743847 0.431188 0.291397 -0.061878
C9    C     C_R   0.756443 0.450977 0.242101 0.027553
C10   C     C_R   0.624029 0.245729 0.219359 -0.113969
C11   C     C_R   0.612000 0.227279 0.268365 -0.098948
C12   C     C_R   0.671088 0.319824 0.304444 0.031644
C13   C     C_R   0.695322 0.356963 0.205902 0.052808
C14   C     C_1   0.700551 0.374891 0.155101 -0.057051
C15   C     C_1   0.654319 0.298524 0.354674 -0.031923
C16   C     C_1   0.706373 0.398270 0.113748 -0.015884
H1    H     H_    0.789411 0.502366 0.319546 0.120381
H2    H     H_    0.576343 0.173368 0.191926 0.115545
H3    H     H_    0.555493 0.140760 0.278163 0.125884
C17   C     C_R   0.172934 0.748471 0.350814 -0.146565
C18   C     C_R   0.162993 0.741191 0.300259 -0.022099
C19   C     C_R   0.166107 0.741907 0.198570 -0.023911
C20   C     C_R   0.165287 0.650336 0.220784 -0.117516
C21   C     C_R   0.160740 0.647393 0.270950 0.217899
C22   C     C_R   0.170898 0.744124 0.147932 -0.012954
H4    H     H_    0.173419 0.679230 0.368331 0.210626
H5    H     H_    0.166122 0.578589 0.199294 0.144646
C23   C     C_R   0.139291 0.818218 0.125758 0.016459
C24   C     C_R   0.182817 0.936610 0.358517 0.195108
C25   C     C_R   0.162639 0.926642 0.307697 0.004845
C26   C     C_R   0.160441 0.832479 0.278415 -0.019159
C27   C     C_R   0.149126 0.010742 0.285291 -0.100372
C28   C     C_R   0.142975 0.007190 0.234963 -0.135256
C29   C     C_R   0.150300 0.919398 0.205218 0.034239
C30   C     C_R   0.157203 0.830395 0.227308 0.021996
C31   C     C_R   0.145966 0.915791 0.153970 -0.019761
C32   C     C_R   0.198627 0.851066 0.379229 -0.027267
H6    H     H_    0.131933 0.074032 0.219827 0.116627
H7    H     H_    0.143965 0.080634 0.306378 0.176558
C33   C     C_R   0.756501 0.936644 0.358817 -0.113315
C34   C     C_R   0.763164 0.925752 0.308905 0.004926
C35   C     C_R   0.763334 0.913768 0.207939 0.007918
C36   C     C_R   0.852327 0.010111 0.236057 -0.127176
C37   C     C_R   0.853255 0.015299 0.286404 -0.120973
C38   C     C_R   0.765090 0.906393 0.157809 -0.127686
H8    H     H_    0.835270 0.977192 0.141162 0.131120
H9    H     H_    0.823514 0.014348 0.379722 0.161910
H10   H     H_    0.921715 0.080800 0.219116 0.120911
H11   H     H_    0.922233 0.090810 0.307700 0.142637
C39   C     C_R   0.686758 0.803505 0.129652 -0.005413
C40   C     C_R   0.572290 0.754492 0.353708 -0.122276
C41   C     C_R   0.581552 0.738871 0.303593 0.007468
C42   C     C_R   0.673732 0.827978 0.280930 0.055232
C43   C     C_R   0.496661 0.639633 0.275302 -0.102778
C44   C     C_R   0.500228 0.630872 0.224718 -0.131861
C45   C     C_R   0.588171 0.721809 0.201897 0.002420
C46   C     C_R   0.674959 0.821077 0.230237 0.059414
C47   C     C_R   0.594939 0.713253 0.151455 -0.142418
C48   C     C_R   0.655892 0.857031 0.380690 -0.008018
H12   H     H_    0.534025 0.633840 0.129728 0.127274
H13   H     H_    0.434029 0.553426 0.203475 0.121602
H14   H     H_    0.427602 0.569010 0.292235 0.182884
H15   H     H_    0.496019 0.691480 0.370855 0.162126
C49   C     C_R   0.711432 0.244506 0.657789 0.197536
C50   C     C_R   0.726347 0.260947 0.708665 -0.006385
C51   C     C_R   0.758628 0.316290 0.809696 0.031939
C52   C     C_R   0.854951 0.332478 0.782223 -0.101343
C53   C     C_R   0.839266 0.305831 0.732129 -0.108978
C54   C     C_R   0.777065 0.359111 0.858464 -0.110618
H16   H     H_    0.866584 0.404013 0.874783 0.140082
H17   H     H_    0.943449 0.370739 0.799186 0.132691
H18   H     H_    0.916913 0.323951 0.711957 0.174559
C55   C     C_R   0.683056 0.356577 0.884384 -0.006512
C56   C     C_R   0.498683 0.172464 0.663657 -0.178167
C57   C     C_R   0.513215 0.191284 0.714132 -0.000096
C58   C     C_R   0.627387 0.236986 0.736700 0.025609
C59   C     C_R   0.415806 0.168551 0.742358 -0.114277
C60   C     C_R   0.432465 0.198376 0.792496 -0.123855
C61   C     C_R   0.546610 0.250411 0.814898 0.012060
C62   C     C_R   0.643751 0.265395 0.787257 0.067271
C63   C     C_R   0.566936 0.295963 0.863571 -0.130884
C64   C     C_R   0.596620 0.201028 0.635196 -0.016579
H19   H     H_    0.493736 0.291387 0.884140 0.133661
H20   H     H_    0.356872 0.184847 0.813423 0.128553
H21   H     H_    0.327419 0.131717 0.725448 0.127952
H22   H     H_    0.410704 0.136238 0.646294 0.136314
C65   C     C_1   0.227466 0.866584 0.611210 -0.000361
C66   C     C_R   0.277780 0.864287 0.735642 -0.102692
C67   C     C_R   0.261968 0.856550 0.785399 -0.106204
C68   C     C_R   0.065430 0.834635 0.773363 -0.087197
C69   C     C_R   0.081277 0.842456 0.723593 -0.102275
C70   C     C_R   0.186979 0.855886 0.704564 0.030468
C71   C     C_R   0.155296 0.840636 0.804295 0.034452
C72   C     C_1   0.133308 0.821833 0.854516 -0.040792
C73   C     C_1   0.203773 0.860404 0.653285 -0.050387
C74   C     C_1   0.105426 0.800069 0.895375 0.001723
H23   H     H_    0.360286 0.875498 0.721296 0.120949
H24   H     H_    0.331789 0.860803 0.808874 0.118699
H25   H     H_    0.982227 0.821613 0.787575 0.150816
H26   H     H_    0.010788 0.836452 0.699979 0.123221
C75   C     C_1   0.643122 0.868695 0.611755 0.008497
C76   C     C_R   0.754636 0.926958 0.734983 -0.007423
C77   C     C_R   0.755022 0.916984 0.785513 0.247967
C78   C     C_R   0.569421 0.735858 0.773298 -0.162361
C79   C     C_R   0.567994 0.746107 0.723637 -0.130523
C80   C     C_R   0.660019 0.840335 0.704258 0.009912
C81   C     C_R   0.662086 0.820581 0.804276 0.010911
C82   C     C_1   0.666506 0.804289 0.854853 0.000730
C83   C     C_1   0.651855 0.851759 0.653238 -0.043507
C84   C     C_1   0.681477 0.791490 0.896361 0.027730
H27   H     H_    0.498373 0.661319 0.787554 0.127106
H28   H     H_    0.494663 0.680355 0.700232 0.136441
O14   O     O_R   0.820790 0.857990 0.068830 -0.522769
O15   O     O_R   0.016700 0.827330 0.062850 -0.502007
C85   C     C_R   0.068724 0.774602 0.078618 0.538867
O16   O     O_R   0.041970 0.673520 0.060040 -0.516238
O17   O     O_R   0.817980 0.483660 0.048840 -0.491239
C86   C     C_R   0.717428 0.441420 0.067315 0.546617
O18   O     O_R   0.637200 0.461990 0.052510 -0.511780
O19   O     O_R   0.664790 0.681920 0.057970 -0.503289
C87   C     C_R   0.720903 0.782490 0.081199 0.543709
O20   O     O_R   0.815840 0.852920 0.961840 -0.476004
O21   O     O_R   0.012100 0.822630 0.963670 -0.483862
C88   C     C_R   0.057144 0.766309 0.941451 0.542968
O22   O     O_R   0.037010 0.668460 0.953040 -0.516003
O23   O     O_R   0.813390 0.478970 0.949660 -0.501477
C89   C     C_R   0.709195 0.430826 0.929984 0.548191
O24   O     O_R   0.632250 0.456930 0.945520 -0.514053
O25   O     O_R   0.660200 0.677230 0.958780 -0.503765
C90   C     C_R   0.715565 0.776378 0.943301 0.548187
Cr4   Cr    Cr6+3 0.914010 0.832750 0.013970 1.039179
Cr5   Cr    Cr6+3 0.922310 0.578600 0.003000 1.026104
Cr6   Cr    Cr6+3 0.656280 0.574630 0.003870 1.023673
O26   O     O_3   0.830870 0.661990 0.006950 -0.245170
N1    N     N_R   0.192650 0.035054 0.388529 0.074765
O27   O     O_R   0.124523 0.020410 0.424728 -0.324611
O28   O     O_R   0.276263 0.138434 0.382403 -0.327751
C91   C     C_3   0.833133 0.571908 0.228682 -0.381509
H29   H     H_    0.876525 0.634665 0.261300 0.133439
H30   H     H_    0.903497 0.573867 0.205237 0.151843
H31   H     H_    0.778292 0.600035 0.208628 0.141731
N2    N     N_R   0.813893 0.279521 0.629538 0.081938
O29   O     O_R   0.858854 0.377731 0.611004 -0.306923
O30   O     O_R   0.865251 0.215892 0.624155 -0.347354
C92   C     C_3   0.854389 0.027146 0.713250 -0.350774
H32   H     H_    0.927628 0.085319 0.740021 0.183744
H33   H     H_    0.892958 0.993807 0.684431 0.136629
H34   H     H_    0.819197 0.078790 0.696996 0.173202
N3    N     N_R   0.848515 0.004533 0.817819 0.064336
O31   O     O_R   0.860196 0.107789 0.824576 -0.354208
O32   O     O_R   0.916303 0.979030 0.843222 -0.348317
C93   C     C_3   0.212794 0.670585 0.118010 -0.376831
H35   H     H_    0.239940 0.701707 0.081825 0.148714
H36   H     H_    0.292842 0.676737 0.136318 0.119232
H37   H     H_    0.141891 0.578940 0.113309 0.149033
N4    N     N_R   0.156106 0.549243 0.291102 0.066212
O33   O     O_R   0.238196 0.562986 0.322648 -0.376483
O34   O     O_R   0.083432 0.445572 0.271261 -0.346899
C94   C     C_3   0.153666 0.017130 0.129789 -0.377105
H38   H     H_    0.226421 0.099331 0.147806 0.118166
H39   H     H_    0.176824 0.014752 0.091307 0.145422
H40   H     H_    0.068488 0.018674 0.131979 0.142911

loop_
_geom_bond_atom_site_label_1
_geom_bond_atom_site_label_2
_geom_bond_distance
_ccdc_geom_bond_type
C27   H7    1.081761 S    
C52   H17   1.083958 S    
C76   C92   1.512681 S    
N3    O31   1.300900 A    
C43   H14   1.081685 S    
C79   H28   1.083766 S    
C74   C88   1.433319 S    
C17   H4    1.078744 S    
C61   C62   1.411406 A    
C44   H13   1.083647 S    
C92   H34   1.108954 S    
C92   H32   1.107397 S    
C84   C90   1.429714 S    
C78   H27   1.083699 S    
C81   C82   1.439429 S    
C94   H39   1.109222 S    
O4    Cr2   1.910446 S    
C24   C25   1.411295 A    
N4    O33   1.300557 A    
C23   C85   1.486817 S    
C39   C87   1.458676 S    
O21   Cr4   1.925107 S    
C36   H10   1.083973 S    
C59   C60   1.394567 A    
C47   H12   1.084283 S    
C79   C80   1.398972 A    
C17   C18   1.394276 A    
O7    Cr1   2.039764 S    
Cr5   O26   1.966101 S    
C18   C21   1.412768 A    
C54   H16   1.084656 S    
O4    C2    1.269267 A    
C68   C69   1.398668 A    
C28   H6    1.081379 S    
C39   C47   1.404057 A    
C22   C93   1.516918 S    
C58   C62   1.403599 A    
C33   C34   1.383129 A    
C65   C73   1.204889 T    
C76   C80   1.413967 A    
C76   C77   1.415908 A    
C56   H22   1.085131 S    
C17   C32   1.398848 A    
O22   Cr5   2.033917 S    
C63   H19   1.084423 S    
C50   C58   1.412779 A    
C38   C39   1.402989 A    
C10   H2    1.083770 S    
C93   H37   1.110469 S    
C94   H38   1.110398 S    
C41   C42   1.411107 A    
C29   C31   1.414207 A    
C69   C70   1.399472 A    
C42   C46   1.397993 A    
C43   C44   1.396855 A    
C18   C26   1.414905 A    
C1    C48   1.460515 S    
C77   N3    1.435049 S    
C91   H30   1.110000 S    
C57   C58   1.410411 A    
C78   C81   1.397331 A    
C45   C46   1.411524 A    
C23   C31   1.417121 A    
C35   C38   1.382755 A    
C93   H36   1.111213 S    
O2    Cr1   1.923977 S    
C24   C32   1.412671 A    
C36   C37   1.388150 A    
N3    O32   1.301082 A    
C33   C48   1.403030 A    
Cr3   O13   1.965920 S    
N2    O30   1.300817 A    
C38   H8    1.084823 S    
C66   C67   1.398166 A    
C92   H33   1.110562 S    
N4    O34   1.301269 A    
O25   C90   1.274219 A    
C94   H40   1.110582 S    
C9    C13   1.416276 A    
O7    C6    1.266909 A    
C25   C27   1.403190 A    
O1    Cr1   2.039399 S    
C51   C62   1.410421 A    
C5    O11   1.298889 A    
C40   C41   1.398032 A    
O16   Cr5   2.051802 S    
O23   Cr5   1.935064 S    
C67   H24   1.083472 S    
Cr4   O26   1.976462 S    
C40   H15   1.084255 S    
C88   O22   1.267703 A    
C19   C22   1.404840 A    
C45   C47   1.396748 A    
C59   H21   1.083819 S    
C20   C21   1.392579 A    
C54   C55   1.400205 A    
O6    C3    1.276966 A    
C34   C37   1.399908 A    
C20   H5    1.082134 S    
C19   C30   1.411265 A    
C29   C30   1.416035 A    
C35   C36   1.399940 A    
O18   Cr6   2.027538 S    
O12   Cr3   1.914935 S    
C1    O3    1.265525 A    
C4    C75   1.430024 S    
C55   C63   1.403815 A    
C24   N1    1.435821 S    
C7    C15   1.205303 T    
C13   C14   1.442476 S    
C14   C16   1.204895 T    
O10   Cr2   1.935323 S    
C57   C59   1.402544 A    
O17   C86   1.271119 A    
C49   N2    1.434547 S    
C52   C53   1.388604 A    
C60   H20   1.083669 S    
O20   Cr4   2.031820 S    
N1    O27   1.301042 A    
O8    Cr1   1.919242 S    
Cr1   O13   1.976738 S    
C21   N4    1.437133 S    
O12   C6    1.270749 A    
C10   C11   1.395104 A    
C33   H9    1.084705 S    
O1    C3    1.273177 A    
O17   Cr5   1.917238 S    
C8    C9    1.407028 A    
C31   C94   1.515831 S    
C91   H29   1.111118 S    
C2    O5    1.265132 A    
C91   H31   1.110783 S    
C93   H35   1.110380 S    
Cr2   O13   1.972452 S    
C37   H11   1.083978 S    
C28   C29   1.407990 A    
N2    O29   1.300867 A    
C22   C23   1.413981 A    
C3    C32   1.477999 S    
C5    C64   1.468671 S    
C85   O16   1.270702 A    
C66   C70   1.403264 A    
C50   C53   1.408330 A    
C78   C79   1.393299 A    
C82   C84   1.203380 T    
O5    Cr3   2.032222 S    
C67   C71   1.399603 A    
C25   C26   1.416674 A    
C27   C28   1.389446 A    
O9    Cr2   2.026193 S    
C49   C64   1.421259 A    
C9    C91   1.507961 S    
O23   C89   1.270636 A    
C12   C15   1.439248 S    
C8    C12   1.399590 A    
C49   C50   1.402828 A    
O6    Cr3   1.937186 S    
C26   C30   1.411668 A    
O21   C88   1.271134 A    
C61   C63   1.395520 A    
O11   Cr3   2.055843 S    
C86   O18   1.264915 A    
C77   C81   1.411214 A    
C51   C54   1.389634 A    
C8    H1    1.084118 S    
C70   C73   1.438377 S    
C68   H25   1.083705 S    
C11   H3    1.084017 S    
C80   C83   1.441404 S    
O2    C1    1.276807 A    
C44   C45   1.402406 A    
C55   C89   1.460457 S    
Cr6   O26   1.972265 S    
C16   C86   1.432325 S    
C56   C57   1.392103 A    
C19   C20   1.405244 A    
C53   H18   1.081881 S    
O20   C90   1.266461 A    
C2    C7    1.433375 S    
O15   Cr4   1.917418 S    
C40   C48   1.404214 A    
C6    C65   1.432474 S    
N1    O28   1.301361 A    
C60   C61   1.401449 A    
O24   Cr6   2.056021 S    
C72   C74   1.205251 T    
C69   H26   1.083526 S    
O14   Cr4   2.044649 S    
C66   H23   1.083957 S    
O3    Cr2   2.052353 S    
O14   C87   1.266474 A    
C4    O9    1.268458 A    
C35   C46   1.409058 A    
C10   C13   1.399380 A    
C41   C43   1.402534 A    
C51   C52   1.396411 A    
O19   Cr6   1.937266 S    
O15   C85   1.277906 A    
C11   C12   1.400191 A    
O10   C5    1.291576 A    
O19   C87   1.277774 A    
C34   C42   1.409233 A    
C71   C72   1.438884 S    
C75   C83   1.203546 T    
C56   C64   1.400829 A    
O25   Cr6   1.909760 S    
C89   O24   1.264745 A    
O8    C4    1.273853 A    
C68   C71   1.403544 A    
