data_mof_unit_1830.cif
_audit_creation_date              2012-12-11T15:39:25-0500
_audit_creation_method            fapswitch 2.2
_symmetry_space_group_name_H-M    P1
_symmetry_Int_Tables_number       1
_space_group_crystal_system       triclinic
_cell_length_a                    17.554239
_cell_length_b                    24.338704
_cell_length_c                    15.086631
_cell_angle_alpha                 89.815748
_cell_angle_beta                  125.349834
_cell_angle_gamma                 91.460142
_cell_volume                      5255.12393808

loop_
_atom_site_label
_atom_site_type_symbol
_atom_type_description
_atom_site_fract_x
_atom_site_fract_y
_atom_site_fract_z
_atom_type_partial_charge
Br1   Br    Br    0.489588 0.384649 0.315087 -0.602739
Br2   Br    Br    0.435970 0.382562 0.638488 -0.625726
Br3   Br    Br    0.989579 0.884649 0.315079 -0.602739
Br4   Br    Br    0.935969 0.882562 0.638488 -0.625727
C1    C     C_R   0.357015 0.346061 0.910519 -0.056541
C2    C     C_R   0.445921 0.502743 0.640626 -0.024361
C3    C     C_R   0.179659 0.856931 0.000926 0.039930
C4    C     C_3   0.541287 0.247128 0.879723 0.216407
C5    C     C_3   0.511810 0.188019 0.836620 -0.323004
C6    C     C_3   0.446543 0.162575 0.862329 -0.991910
C7    C     C_3   0.561015 0.227494 0.182288 0.151690
C8    C     C_3   0.588455 0.167085 0.203749 -0.309410
C9    C     C_3   0.672703 0.157183 0.201190 -0.991691
C10   C     C_3   0.041286 0.747128 0.879722 0.216407
C11   C     C_3   0.011809 0.688019 0.836620 -0.323005
C12   C     C_3   0.946542 0.662575 0.862328 -0.991910
C13   C     C_R   0.957979 0.002552 0.281463 -0.026768
C14   C     C_3   0.061015 0.727493 0.182289 0.151688
C15   C     C_3   0.088455 0.667084 0.203748 -0.309411
C16   C     C_3   0.172703 0.657182 0.201190 -0.991690
C17   C     C_3   0.244575 0.378914 0.651995 0.146350
C18   C     C_3   0.205935 0.407784 0.543529 -0.335638
C19   C     C_3   0.188806 0.368070 0.454884 -0.928654
C20   C     C_3   0.730414 0.395674 0.386850 0.140462
C21   C     C_3   0.783441 0.420754 0.501919 -0.370547
C22   C     C_3   0.731387 0.410261 0.553744 -0.852516
C23   C     C_3   0.744574 0.878913 0.651996 0.146355
C24   C     C_R   0.945920 0.002743 0.640626 -0.024360
C25   C     C_3   0.705933 0.907782 0.543529 -0.335642
C26   C     C_3   0.688805 0.868068 0.454885 -0.928651
C27   C     C_3   0.230415 0.895673 0.386848 0.140463
C28   C     C_3   0.283422 0.920771 0.501903 -0.370575
C29   C     C_3   0.231386 0.910254 0.553741 -0.852489
C30   C     C_3   0.004584 0.350872 0.550839 0.308474
C31   C     C_3   0.027571 0.298686 0.617505 -0.303629
C32   C     C_3   0.998012 0.247118 0.546285 -1.067279
C33   C     C_3   0.978967 0.443018 0.321866 0.162970
C34   C     C_3   0.900336 0.465719 0.211665 -0.295215
C35   C     C_R   0.174469 0.495604 0.715145 -0.037679
C36   C     C_3   0.930686 0.472622 0.135626 -1.001534
C37   C     C_3   0.504579 0.850872 0.550844 0.308484
C38   C     C_3   0.527566 0.798687 0.617511 -0.303623
C39   C     C_3   0.497998 0.747118 0.546290 -1.067281
C40   C     C_3   0.478967 0.943017 0.321869 0.162975
C41   C     C_3   0.400337 0.965718 0.211667 -0.295218
C42   C     C_3   0.430687 0.972620 0.135628 -1.001535
C43   C     C_R   0.816568 0.503726 0.343676 -0.004783
C44   C     C_R   0.674469 0.995605 0.715147 -0.037671
C45   C     C_R   0.316568 0.003726 0.343675 -0.004788
C46   C     C_R   0.030647 0.544856 0.611245 0.056468
C47   C     C_R   0.948065 0.549930 0.509768 0.100573
C48   C     C_R   0.530649 0.044857 0.611243 0.056467
C49   C     C_R   0.683210 0.369966 0.091814 -0.209768
C50   C     C_R   0.448066 0.049931 0.509767 0.100575
C51   C     C_R   0.072455 0.493789 0.644438 -0.070674
C52   C     C_R   0.912048 0.505957 0.436235 -0.138086
C53   C     C_R   0.572455 0.993790 0.644439 -0.070672
C54   C     C_R   0.412048 0.005956 0.436236 -0.138074
C55   C     C_R   0.027979 0.447773 0.573853 0.390686
C56   C     C_R   0.964530 0.458802 0.462258 0.334501
C57   C     C_R   0.527979 0.947774 0.573856 0.390665
C58   C     C_R   0.464529 0.958801 0.462260 0.334497
C59   C     C_3   0.903564 0.583151 0.549887 -0.456743
C60   C     C_R   0.857016 0.846061 0.910519 -0.056538
C61   C     C_3   0.993259 0.577199 0.661829 -0.423423
C62   C     C_3   0.403568 0.083155 0.549885 -0.456740
C63   C     C_3   0.493263 0.077204 0.661826 -0.423426
C64   C     C_R   0.233048 0.730954 0.913790 -0.312132
C65   C     C_R   0.844960 0.682194 0.091094 -0.293358
C66   C     C_R   0.733048 0.230954 0.913790 -0.312132
C67   C     C_R   0.344960 0.182194 0.091094 -0.293359
C68   C     C_R   0.683462 0.272939 0.915143 0.576969
C69   C     C_R   0.401591 0.223528 0.091545 0.597547
C70   C     C_R   0.183462 0.772939 0.915142 0.576970
C71   C     C_R   0.183210 0.869966 0.091814 -0.209771
C72   C     C_R   0.901591 0.723527 0.091545 0.597549
C73   C     C_R   0.731736 0.314574 0.995495 -0.030689
C74   C     C_R   0.365058 0.254518 0.995822 -0.051405
C75   C     C_R   0.231736 0.814574 0.995495 -0.030690
C76   C     C_R   0.865058 0.754518 0.995822 -0.051406
C77   C     C_R   0.437746 0.650062 0.090822 -0.134389
C78   C     C_R   0.596184 0.625992 0.907825 -0.117914
C79   C     C_R   0.937747 0.150062 0.090822 -0.134390
C80   C     C_R   0.096184 0.125991 0.907825 -0.117914
C81   C     C_R   0.827690 0.312000 0.076387 -0.222591
C82   C     C_R   0.371731 0.678241 0.999571 0.083924
C83   C     C_R   0.288759 0.232462 0.896801 -0.232295
C84   C     C_R   0.327689 0.811999 0.076386 -0.222591
C85   C     C_R   0.788759 0.732463 0.896801 -0.232295
C86   C     C_R   0.376095 0.767836 0.077350 -0.169894
C87   C     C_R   0.736056 0.689376 0.896233 -0.149862
C88   C     C_R   0.876095 0.267836 0.077350 -0.169894
C89   C     C_R   0.236056 0.189376 0.896233 -0.149861
C90   C     C_R   0.328031 0.727486 0.996072 0.078814
C91   C     C_R   0.757752 0.668795 0.994843 0.073960
C92   C     C_R   0.828032 0.227486 0.996072 0.078814
C93   C     C_R   0.684977 0.640129 0.997816 0.072169
C94   C     C_R   0.257752 0.168795 0.994843 0.073960
C95   C     C_R   0.499572 0.542437 0.540003 -0.171389
C96   C     C_R   0.502915 0.542377 0.451867 -0.185580
C97   C     C_R   0.999571 0.042437 0.540002 -0.171393
C98   C     C_R   0.002914 0.042378 0.451866 -0.185572
C99   C     C_R   0.442060 0.507399 0.363601 0.165724
C100  C     C_R   0.436047 0.507215 0.540419 0.177394
C101  C     C_R   0.942059 0.007399 0.363600 0.165718
C102  C     C_R   0.936046 0.007215 0.540418 0.177391
C103  C     C_R   0.373391 0.475144 0.359891 -0.104527
C104  C     C_R   0.871731 0.178241 0.999571 0.083924
C105  C     C_R   0.370099 0.475229 0.449299 -0.131063
C106  C     C_R   0.873390 0.975144 0.359890 -0.104531
C107  C     C_R   0.870098 0.975229 0.449299 -0.131061
C108  C     C_R   0.485515 0.455474 0.256427 0.287364
C109  C     C_R   0.456842 0.455824 0.697699 0.263051
C110  C     C_R   0.985514 0.955474 0.256426 0.287366
C111  C     C_R   0.956841 0.955824 0.697699 0.263051
C112  C     C_R   0.231337 0.543469 0.748009 -0.247836
C113  C     C_R   0.762627 0.548036 0.290438 -0.287975
C114  C     C_R   0.731337 0.043469 0.748010 -0.247838
C115  C     C_R   0.184977 0.140129 0.997816 0.072168
C116  C     C_R   0.262628 0.048036 0.290437 -0.287984
C117  C     C_R   0.483604 0.547210 0.248692 -0.193301
C118  C     C_R   0.456493 0.547073 0.701491 -0.223174
C119  C     C_R   0.983604 0.047210 0.248692 -0.193301
C120  C     C_R   0.956492 0.047073 0.701491 -0.223174
C121  C     C_R   0.232571 0.451846 0.740516 0.584243
C122  C     C_R   0.761634 0.456603 0.294339 0.587809
C123  C     C_R   0.732571 0.951846 0.740516 0.584243
C124  C     C_R   0.261634 0.956604 0.294339 0.587817
C125  C     C_R   0.347356 0.648934 0.908952 -0.142968
C126  C     C_R   0.457979 0.502552 0.281463 -0.026772
C127  C     C_R   0.688139 0.626974 0.089829 -0.114636
C128  C     C_R   0.847357 0.148934 0.908952 -0.142969
C129  C     C_R   0.188139 0.126974 0.089829 -0.114635
C130  C     C_R   0.447699 0.346197 0.088976 -0.039505
C131  C     C_R   0.598863 0.376609 0.911140 -0.053112
C132  C     C_R   0.947700 0.846197 0.088976 -0.039499
C133  C     C_R   0.098863 0.876609 0.911140 -0.053113
C134  C     C_R   0.389122 0.313240 0.999298 0.016498
C135  C     C_R   0.679659 0.356931 0.000926 0.039927
C136  C     C_R   0.889122 0.813240 0.999298 0.016499
H1    H     H_    0.326321 0.330136 0.830478 0.097179
H2    H     H_    0.033415 0.616555 0.697011 0.180751
H3    H     H_    0.671053 0.891510 0.382300 0.247994
H4    H     H_    0.629891 0.839021 0.431089 0.244284
H5    H     H_    0.223649 0.850507 0.392451 0.144398
H6    H     H_    0.158477 0.910727 0.335347 0.131353
H7    H     H_    0.353507 0.902784 0.553941 0.226454
H8    H     H_    0.292562 0.965809 0.499123 0.195434
H9    H     H_    0.164966 0.932666 0.509368 0.288001
H10   H     H_    0.274975 0.925442 0.639258 0.252848
H11   H     H_    0.216439 0.865584 0.553176 0.278764
H12   H     H_    0.040847 0.349595 0.510252 0.139789
H13   H     H_    0.342318 0.061871 0.540109 0.187228
H14   H     H_    0.927702 0.351386 0.489855 0.151136
H15   H     H_    0.104016 0.298029 0.681589 0.228314
H16   H     H_    0.990917 0.298572 0.657793 0.209211
H17   H     H_    0.921466 0.246398 0.482526 0.277531
H18   H     H_    0.015512 0.210063 0.597163 0.273598
H19   H     H_    0.035442 0.245836 0.507046 0.271411
H20   H     H_    0.009241 0.408158 0.306163 0.145706
H21   H     H_    0.035612 0.475261 0.366606 0.068653
H22   H     H_    0.838243 0.437575 0.172612 0.215056
H23   H     H_    0.880716 0.506616 0.223294 0.198046
H24   H     H_    0.533420 0.116559 0.697006 0.180751
H25   H     H_    0.992772 0.500944 0.172764 0.266311
H26   H     H_    0.872893 0.490184 0.057671 0.276888
H27   H     H_    0.947849 0.432218 0.118296 0.269267
H28   H     H_    0.540839 0.849593 0.510253 0.139789
H29   H     H_    0.427697 0.851389 0.489864 0.151134
H30   H     H_    0.604011 0.798028 0.681590 0.228310
H31   H     H_    0.490916 0.798576 0.657805 0.209216
H32   H     H_    0.421451 0.746401 0.482536 0.277531
H33   H     H_    0.515498 0.710064 0.597170 0.273597
H34   H     H_    0.535422 0.745834 0.507046 0.271411
H35   H     H_    0.195318 0.699009 0.852083 0.137200
H36   H     H_    0.509242 0.908157 0.306167 0.145706
H37   H     H_    0.535612 0.975260 0.366609 0.068651
H38   H     H_    0.338244 0.937573 0.172615 0.215057
H39   H     H_    0.380716 0.006615 0.223295 0.198046
H40   H     H_    0.492773 0.000941 0.172765 0.266311
H41   H     H_    0.372893 0.990181 0.057673 0.276889
H42   H     H_    0.447850 0.932215 0.118300 0.269267
H43   H     H_    0.867413 0.663057 0.167115 0.145316
H44   H     H_    0.695318 0.199009 0.852083 0.137200
H45   H     H_    0.367414 0.163057 0.167115 0.145316
H46   H     H_    0.864177 0.343175 0.139778 0.156226
H47   H     H_    0.262358 0.251636 0.819861 0.133906
H48   H     H_    0.364177 0.843175 0.139778 0.156227
H49   H     H_    0.734336 0.357547 0.174161 0.178923
H50   H     H_    0.762358 0.751636 0.819861 0.133905
H51   H     H_    0.449894 0.764818 0.141371 0.127091
H52   H     H_    0.673085 0.677154 0.818857 0.117580
H53   H     H_    0.949895 0.264818 0.141371 0.127091
H54   H     H_    0.173085 0.177154 0.818857 0.117580
H55   H     H_    0.550446 0.567439 0.610504 0.122682
H56   H     H_    0.556876 0.567212 0.455621 0.123977
H57   H     H_    0.050445 0.067439 0.610504 0.122682
H58   H     H_    0.056875 0.067212 0.455621 0.123977
H59   H     H_    0.325419 0.448886 0.290305 0.147439
H60   H     H_    0.826321 0.830136 0.830479 0.097176
H61   H     H_    0.318765 0.449454 0.448690 0.155164
H62   H     H_    0.825417 0.948886 0.290304 0.147443
H63   H     H_    0.818764 0.949454 0.448689 0.155164
H64   H     H_    0.478523 0.665024 0.173939 0.091185
H65   H     H_    0.568400 0.631281 0.823532 0.092232
H66   H     H_    0.978523 0.165024 0.173939 0.091186
H67   H     H_    0.068401 0.131281 0.823532 0.092232
H68   H     H_    0.208952 0.585402 0.735976 0.145653
H69   H     H_    0.779065 0.590480 0.317129 0.150207
H70   H     H_    0.708952 0.085402 0.735977 0.145653
H71   H     H_    0.234336 0.857546 0.174161 0.178924
H72   H     H_    0.279065 0.090480 0.317128 0.150209
H73   H     H_    0.478453 0.589914 0.262972 0.122532
H74   H     H_    0.441265 0.589193 0.674898 0.121448
H75   H     H_    0.978454 0.089915 0.262972 0.122532
H76   H     H_    0.941265 0.089193 0.674898 0.121448
H77   H     H_    0.306601 0.662642 0.825695 0.103846
H78   H     H_    0.745603 0.634938 0.172937 0.102485
H79   H     H_    0.806601 0.162643 0.825695 0.103847
H80   H     H_    0.245603 0.134939 0.172937 0.102484
H81   H     H_    0.499406 0.331931 0.169010 0.178127
H82   H     H_    0.892000 0.626044 0.520092 0.195908
H83   H     H_    0.580058 0.373953 0.830574 0.197882
H84   H     H_    0.999408 0.831930 0.169010 0.178124
H85   H     H_    0.080058 0.873953 0.830574 0.197882
H86   H     H_    0.477590 0.270753 0.850449 0.139114
H87   H     H_    0.583069 0.247773 0.970359 0.056042
H88   H     H_    0.475034 0.187818 0.747015 0.228429
H89   H     H_    0.574812 0.162665 0.873694 0.188181
H90   H     H_    0.478848 0.165076 0.950841 0.267534
H91   H     H_    0.431883 0.118690 0.836322 0.273369
H92   H     H_    0.379441 0.184219 0.817396 0.270850
H93   H     H_    0.984564 0.552426 0.717688 0.197303
H94   H     H_    0.621531 0.253269 0.246050 0.138368
H95   H     H_    0.547166 0.240593 0.103491 0.071400
H96   H     H_    0.605729 0.155547 0.284683 0.214967
H97   H     H_    0.528894 0.140373 0.141138 0.191330
H98   H     H_    0.656428 0.167622 0.120277 0.267226
H99   H     H_    0.690943 0.113193 0.216979 0.272314
H100  H     H_    0.733927 0.182602 0.264709 0.266580
H101  H     H_    0.977589 0.770754 0.850448 0.139114
H102  H     H_    0.083068 0.747773 0.970358 0.056042
H103  H     H_    0.975034 0.687818 0.747015 0.228428
H104  H     H_    0.392005 0.126047 0.520087 0.195907
H105  H     H_    0.074812 0.662665 0.873695 0.188181
H106  H     H_    0.978847 0.665077 0.950841 0.267534
H107  H     H_    0.931883 0.618690 0.836323 0.273370
H108  H     H_    0.879440 0.684220 0.817395 0.270850
H109  H     H_    0.121532 0.753268 0.246051 0.138367
H110  H     H_    0.047167 0.740593 0.103491 0.071399
H111  H     H_    0.105729 0.655546 0.284683 0.214967
H112  H     H_    0.028894 0.640373 0.141138 0.191330
H113  H     H_    0.156427 0.667622 0.120276 0.267227
H114  H     H_    0.190942 0.613192 0.216979 0.272314
H115  H     H_    0.484567 0.052433 0.717687 0.197304
H116  H     H_    0.233926 0.682601 0.264709 0.266581
H117  H     H_    0.227362 0.334157 0.636575 0.144635
H118  H     H_    0.321743 0.382794 0.705402 0.121867
H119  H     H_    0.139659 0.426783 0.515584 0.190713
H120  H     H_    0.254954 0.441558 0.555840 0.186793
H121  H     H_    0.251439 0.343877 0.483145 0.310210
H122  H     H_    0.171054 0.391513 0.382299 0.247993
H123  H     H_    0.129892 0.339023 0.431087 0.244283
H124  H     H_    0.723620 0.350508 0.392424 0.144397
H125  H     H_    0.658487 0.410745 0.335368 0.131355
H126  H     H_    0.842315 0.561865 0.540110 0.187231
H127  H     H_    0.853502 0.402738 0.553949 0.226445
H128  H     H_    0.792635 0.465788 0.499173 0.195453
H129  H     H_    0.664990 0.432696 0.509375 0.287975
H130  H     H_    0.774984 0.425438 0.639267 0.252851
H131  H     H_    0.716395 0.365595 0.553155 0.278796
H132  H     H_    0.727361 0.834156 0.636577 0.144633
H133  H     H_    0.821742 0.882794 0.705402 0.121866
H134  H     H_    0.639657 0.926781 0.515584 0.190718
H135  H     H_    0.754951 0.941557 0.555838 0.186792
H136  H     H_    0.751437 0.843874 0.483148 0.310210
N1    N     N_R   0.394180 0.396910 0.943210 -0.055011
N2    N     N_R   0.474350 0.471570 0.793850 -0.078233
N3    N     N_R   0.025650 0.971570 0.206150 -0.088085
N4    N     N_R   0.974350 0.971570 0.793850 -0.078232
N5    N     N_R   0.319480 0.528420 0.793810 -0.065676
N6    N     N_R   0.680520 0.528420 0.206190 -0.063913
N7    N     N_R   0.819480 0.028420 0.793810 -0.065677
N8    N     N_R   0.180520 0.028420 0.206190 -0.063912
N9    N     N_R   0.525640 0.528390 0.206120 -0.052114
N10   N     N_R   0.474360 0.528390 0.793880 -0.045091
N11   N     N_R   0.025640 0.028390 0.206120 -0.052114
N12   N     N_R   0.605820 0.396910 0.056790 -0.049348
N13   N     N_R   0.974360 0.028390 0.793880 -0.045091
N14   N     N_R   0.319490 0.471590 0.793840 -0.119558
N15   N     N_R   0.680510 0.471590 0.206160 -0.113946
N16   N     N_R   0.819490 0.971590 0.793840 -0.119559
N17   N     N_R   0.180510 0.971590 0.206160 -0.113945
N18   N     N_R   0.394130 0.603080 0.943110 -0.032303
N19   N     N_R   0.605870 0.603080 0.056890 -0.037947
N20   N     N_R   0.894130 0.103080 0.943110 -0.032302
N21   N     N_R   0.105870 0.103080 0.056890 -0.037947
N22   N     N_R   0.450990 0.396900 0.056840 -0.057920
N23   N     N_R   0.894180 0.896910 0.943210 -0.055011
N24   N     N_R   0.549010 0.396900 0.943160 -0.058400
N25   N     N_R   0.950990 0.896900 0.056840 -0.057921
N26   N     N_R   0.049010 0.896900 0.943160 -0.058400
N27   N     N_R   0.105820 0.896910 0.056790 -0.049349
N28   N     N_R   0.450950 0.603070 0.056740 -0.034098
N29   N     N_R   0.549050 0.603070 0.943260 -0.038212
N30   N     N_R   0.950950 0.103070 0.056740 -0.034098
N31   N     N_R   0.049050 0.103070 0.943260 -0.038212
N32   N     N_R   0.525650 0.471570 0.206150 -0.088087
Ni1   Ni    Ni4+2 0.434860 0.434850 0.869700 0.211737
Ni2   Ni    Ni4+2 0.565140 0.434850 0.130300 0.206118
Ni3   Ni    Ni4+2 0.934860 0.934850 0.869700 0.211737
Ni4   Ni    Ni4+2 0.065140 0.934850 0.130300 0.206117
Ni5   Ni    Ni4+2 0.565130 0.565140 0.130240 0.207244
Ni6   Ni    Ni4+2 0.434870 0.565140 0.869760 0.208456
Ni7   Ni    Ni4+2 0.065130 0.065140 0.130240 0.207243
Ni8   Ni    Ni4+2 0.934870 0.065140 0.869760 0.208456
O1    O     O_3   0.587628 0.272390 0.837720 -0.651771
O2    O     O_3   0.945407 0.421706 0.381556 -0.655096
O3    O     O_3   0.536149 0.896881 0.621623 -0.624510
O4    O     O_3   0.445407 0.921705 0.381559 -0.655093
O5    O     O_3   0.485377 0.236885 0.189439 -0.656066
O6    O     O_3   0.087628 0.772390 0.837720 -0.651770
O7    O     O_3   0.985377 0.736884 0.189439 -0.656065
O8    O     O_3   0.205476 0.397951 0.705749 -0.650746
O9    O     O_3   0.779562 0.404919 0.339830 -0.671424
O10   O     O_3   0.705476 0.897951 0.705751 -0.650742
O11   O     O_3   0.279564 0.904919 0.339828 -0.671427
O12   O     O_3   0.036148 0.396880 0.621618 -0.624510

loop_
_geom_bond_atom_site_label_1
_geom_bond_atom_site_label_2
_ccdc_geom_bond_type
C101  C106  A    
C59   C61   S    
C25   H135  S    
C35   C121  A    
C51   C55   A    
C20   H125  S    
C15   C16   S    
C132  C136  A    
N3    Ni4   S    
C131  C135  A    
C33   H20   S    
C33   H21   S    
C79   H66   S    
N7    Ni8   S    
C17   O8    S    
C15   H112  S    
C45   C116  A    
N19   Ni5   S    
C95   H55   S    
C30   C31   S    
C106  C107  A    
C38   H30   S    
C63   H24   S    
C24   C102  S    
C2    C100  S    
C77   C82   A    
C92   C104  S    
C55   C56   A    
C17   C18   S    
N15   Ni2   S    
C59   H82   S    
C112  N5    A    
C21   H127  S    
N2    Ni1   S    
C12   H108  S    
C7    H95   S    
C16   H113  S    
N21   Ni7   S    
C107  H63   S    
C67   C69   A    
C4    H86   S    
C132  N25   A    
C37   H29   S    
C26   H3    S    
C128  N20   A    
C117  H73   S    
C33   C34   S    
C80   N31   A    
C22   H129  S    
C19   H123  S    
C108  N32   A    
C6    H92   S    
C33   O2    S    
N12   N24   A    
C133  N26   A    
C31   H16   S    
C78   N29   A    
N13   Ni8   S    
C70   C75   A    
C60   H60   S    
C71   N27   A    
C42   H41   S    
C43   C122  A    
C3    C75   S    
C60   C136  A    
C49   C135  A    
C65   C91   A    
C62   H13   S    
C44   C114  A    
C91   C93   S    
C53   C57   A    
N7    N16   A    
C131  H83   S    
N4    N13   A    
C4    O1    S    
C106  H62   S    
C29   H9    S    
N22   Ni2   S    
C44   C123  A    
N1    Ni1   S    
C39   H33   S    
C17   H117  S    
C80   C115  A    
N10   Ni6   S    
C20   O9    S    
C5    H88   S    
C99   C126  S    
C27   H5    S    
N14   Ni1   S    
C18   C19   S    
C99   C103  A    
C14   O7    S    
C109  N2    A    
C110  N3    A    
N9    N32   A    
C74   C83   A    
C116  H72   S    
C23   C25   S    
Br4   C111  S    
C89   H54   S    
C117  C126  A    
C44   C53   S    
C9    H99   S    
C28   H7    S    
N4    Ni3   S    
C23   O10   S    
C31   H15   S    
Br1   C108  S    
C97   H57   S    
C19   H121  S    
C64   C70   A    
C111  N4    A    
C6    H90   S    
C65   C72   A    
C130  N22   A    
N11   Ni7   S    
C113  N6    A    
C133  H85   S    
C10   H102  S    
N17   Ni4   S    
N26   Ni3   S    
C85   H50   S    
C85   C87   A    
C5    C6    S    
C23   H133  S    
C62   C63   S    
C73   C81   A    
C67   H45   S    
C59   H126  S    
C81   C88   A    
N32   Ni2   S    
C77   H64   S    
C102  C107  A    
C11   H103  S    
C123  O10   S    
C29   H11   S    
C30   H12   S    
C83   H47   S    
C18   H120  S    
C21   C22   S    
C64   C90   A    
C7    O5    S    
N3    N11   A    
C66   C92   A    
C25   C26   S    
C68   O1    S    
C27   C28   S    
C132  H84   S    
C124  O11   S    
C40   O4    S    
C36   H25   S    
C112  H68   S    
C48   C63   S    
C41   H38   S    
C65   H43   S    
C32   H17   S    
C66   H44   S    
C34   H23   S    
N5    Ni6   S    
C56   O2    S    
N8    Ni7   S    
C97   C102  A    
C57   O3    S    
C45   C124  A    
C121  O8    S    
C40   H36   S    
Br3   C110  S    
C24   C120  A    
C16   H114  S    
C123  N16   A    
C50   C62   S    
C42   H42   S    
C113  H69   S    
C114  N7    A    
C103  H59   S    
C15   H111  S    
C83   C89   A    
C122  O9    S    
C57   C58   A    
C46   C61   S    
C104  C128  A    
C38   H31   S    
C87   C91   A    
N1    N22   A    
C8    C9    S    
C10   C11   S    
C108  C126  A    
C49   H49   S    
N21   N31   A    
C43   C52   S    
C54   C58   A    
C26   H136  S    
C97   C98   A    
N20   Ni8   S    
C119  H75   S    
C37   C38   S    
C31   C32   S    
C10   O6    S    
N28   Ni5   S    
C41   C42   S    
C71   H71   S    
C127  H78   S    
N30   Ni7   S    
C61   H93   S    
C120  H76   S    
C14   H109  S    
C37   H28   S    
C81   H46   S    
C26   H4    S    
C79   C104  A    
C98   C101  A    
C14   C15   S    
C76   C85   A    
C36   H27   S    
C125  H77   S    
C32   H19   S    
C22   H130  S    
C43   C113  A    
N24   Ni1   S    
C35   C51   S    
N25   Ni4   S    
C16   H116  S    
N18   N28   A    
N5    N14   A    
C96   H56   S    
C95   C100  A    
C103  C105  A    
C75   C84   A    
C64   H35   S    
C86   C90   A    
C30   H14   S    
C124  N17   A    
C129  H80   S    
C42   H40   S    
C1    C134  A    
C47   C59   S    
C120  N13   A    
C79   N30   A    
C76   C136  S    
C96   C99   A    
C52   C56   A    
C24   C111  A    
C39   H32   S    
C60   N23   A    
C70   O6    S    
C46   C47   A    
C117  N9    A    
C93   C127  A    
C119  N11   A    
C8    H97   S    
N19   N29   A    
C84   C86   A    
C88   H53   S    
C12   H106  S    
C78   C93   A    
C38   C39   S    
C21   H128  S    
C40   C41   S    
C3    C133  A    
C12   H107  S    
C58   O4    S    
N2    N10   A    
C73   C135  S    
C9    H98   S    
C28   H8    S    
C72   O7    S    
C63   H115  S    
C87   H52   S    
C28   C29   S    
C105  H61   S    
N16   Ni3   S    
C34   C36   S    
C62   H104  S    
C125  N18   A    
C6    H91   S    
Br2   C109  S    
N6    Ni5   S    
C48   C53   A    
N29   Ni6   S    
C118  H74   S    
N6    N15   A    
C116  N8    A    
C35   C112  A    
C129  N21   A    
N27   Ni4   S    
C88   C92   A    
C94   C115  S    
C115  C129  A    
C29   H10   S    
C98   H58   S    
C100  C105  A    
C39   H34   S    
C17   H118  S    
C37   O3    S    
C11   C12   S    
C30   O12   S    
C5    H89   S    
C47   C52   A    
C82   C90   S    
N18   Ni6   S    
C27   H6    S    
C13   C119  A    
C11   H105  S    
C4    C5    S    
C69   C74   A    
C36   H26   S    
C121  N14   A    
C32   H18   S    
C7    H94   S    
C23   H132  S    
C74   C134  S    
N12   Ni2   S    
C4    H87   S    
C48   C50   A    
C13   C110  A    
C9    H100  S    
C86   H51   S    
C67   C94   A    
C1    N1    A    
C20   C21   S    
C49   N12   A    
C3    C71   A    
C19   H122  S    
C45   C54   S    
C22   H131  S    
C2    C109  A    
C68   C73   A    
C13   C101  S    
C10   H101  S    
C1    H1    S    
C95   C96   A    
C34   H22   S    
C130  H81   S    
C20   H124  S    
C127  N19   A    
N23   N25   A    
N23   Ni3   S    
N9    Ni5   S    
C72   C76   A    
C2    C118  A    
C77   N28   A    
C50   C54   A    
C25   H134  S    
C8    H96   S    
N26   N27   A    
C40   H37   S    
C130  C134  A    
C7    C8    S    
C82   C125  A    
C69   O5    S    
C18   H119  S    
C46   C51   A    
C55   O12   S    
C114  H70   S    
C128  H79   S    
C27   O11   S    
C118  N10   A    
C131  N24   A    
C61   H2    S    
C80   H67   S    
N8    N17   A    
C14   H110  S    
N20   N30   A    
C41   H39   S    
C122  N15   A    
C84   H48   S    
C66   C68   A    
N31   Ni8   S    
C89   C94   A    
C78   H65   S    
