data_mof_unit_1250.cif
_audit_creation_date              2012-12-11T15:44:56-0500
_audit_creation_method            fapswitch 2.2
_symmetry_space_group_name_H-M    P1
_symmetry_Int_Tables_number       1
_space_group_crystal_system       triclinic
_cell_length_a                    6.923514
_cell_length_b                    16.866296
_cell_length_c                    17.062657
_cell_angle_alpha                 100.44794
_cell_angle_beta                  89.780648
_cell_angle_gamma                 90.284686
_cell_volume                      1959.40738917

loop_
_atom_site_label
_atom_site_type_symbol
_atom_type_description
_atom_site_fract_x
_atom_site_fract_y
_atom_site_fract_z
_atom_type_partial_charge
O1    O     O_R   0.494370 0.415690 0.413450 -0.503518
O2    O     O_R   0.819420 0.429360 0.578420 -0.542407
O3    O     O_R   0.994280 0.584310 0.586550 -0.549692
C1    C     C_R   0.648886 0.410797 0.602536 0.694460
O4    O     O_R   0.823790 0.406230 0.413570 -0.505042
O5    O     O_R   0.998670 0.561000 0.420530 -0.546671
C2    C     C_R   0.654858 0.383077 0.384645 0.800855
O6    O     O_R   0.489970 0.439000 0.579470 -0.540563
O7    O     O_3   0.662300 0.550810 0.502470 -0.391682
V1    V     V_3+5 0.935380 0.490570 0.499540 1.530706
O8    O     O_R   0.328650 0.570640 0.421580 -0.535393
C3    C     C_R   0.158482 0.586165 0.394587 0.751078
O9    O     O_R   0.324290 0.593770 0.586430 -0.553812
C4    C     C_R   0.155123 0.616945 0.615109 0.651708
V2    V     V_3+5 0.435930 0.509430 0.500460 1.493168
O10   O     O_3   0.159140 0.449190 0.497530 -0.332272
C5    C     C_R   0.312298 0.723790 0.717954 -0.157300
H1    H     H_    0.453323 0.704610 0.694422 0.114014
C6    C     C_R   0.301044 0.787564 0.783039 -0.148956
H2    H     H_    0.433996 0.815642 0.807463 0.117849
C7    C     C_R   0.121085 0.814730 0.815984 -0.046082
C8    C     C_R   0.952708 0.776310 0.781907 -0.157003
H3    H     H_    0.811679 0.795485 0.805439 0.116153
C9    C     C_R   0.963962 0.712538 0.716825 -0.149793
H4    H     H_    0.831005 0.684461 0.692405 0.115593
C10   C     C_R   0.143917 0.685365 0.683884 -0.039357
C11   C     C_R   0.134968 0.637387 0.332336 -0.065442
C12   C     C_R   0.130021 0.862210 0.167357 -0.070779
C13   C     C_R   0.340349 0.819932 0.267459 -0.187452
C14   C     C_R   0.297267 0.872508 0.215370 -0.146347
C15   C     C_R   0.003499 0.798338 0.174319 -0.234266
C16   C     C_R   0.047348 0.744465 0.226448 0.152658
C17   C     C_R   0.217743 0.755038 0.273146 0.158354
C18   C     C_R   0.261540 0.701212 0.325315 -0.241421
C19   C     C_R   0.967827 0.627007 0.284268 -0.123652
C20   C     C_R   0.924779 0.679548 0.232130 -0.189739
H5    H     H_    0.389541 0.710729 0.362276 0.118586
H6    H     H_    0.867273 0.578371 0.287890 0.140827
H7    H     H_    0.471100 0.829633 0.302681 0.122801
H8    H     H_    0.794057 0.669823 0.196893 0.129653
H9    H     H_    0.397860 0.921135 0.211773 0.130087
H10   H     H_    0.875463 0.788850 0.137377 0.123915
C21   C     C_R   0.628399 0.355765 0.661429 -0.124278
C22   C     C_R   0.635961 0.135604 0.831856 -0.077399
C23   C     C_R   0.824362 0.168875 0.721492 -0.162800
C24   C     C_R   0.790273 0.120132 0.777821 -0.172473
C25   C     C_R   0.515568 0.201577 0.828732 -0.193604
C26   C     C_R   0.551036 0.252922 0.772977 0.096946
C27   C     C_R   0.706202 0.235764 0.717742 0.084957
C28   C     C_R   0.739800 0.284659 0.659228 0.129790
C29   C     C_R   0.478665 0.372498 0.717916 -0.222392
C30   C     C_R   0.435911 0.321363 0.772013 0.201039
H11   H     H_    0.390868 0.425721 0.718979 0.132143
H12   H     H_    0.946755 0.154369 0.681921 0.153492
H13   H     H_    0.886399 0.069924 0.779335 0.124915
H14   H     H_    0.399351 0.214204 0.871796 0.154498
C31   C     C_R   0.787661 0.253805 0.302482 0.376537
C32   C     C_R   0.776289 0.190709 0.236792 -0.173731
H15   H     H_    0.887815 0.145063 0.228352 0.161288
C33   C     C_R   0.620852 0.184493 0.183641 -0.182934
C34   C     C_R   0.476762 0.243370 0.196428 -0.162215
H16   H     H_    0.356867 0.240035 0.155301 0.167595
C35   C     C_R   0.487966 0.308385 0.260313 0.388421
C36   C     C_R   0.643606 0.314546 0.315375 -0.216550
O11   O     O_R   0.774880 0.061150 0.920630 -0.537620
O12   O     O_R   0.440980 0.093710 0.086500 -0.541706
O13   O     O_R   0.266190 0.938890 0.079390 -0.540051
C37   C     C_R   0.609834 0.116595 0.115103 0.737828
O14   O     O_R   0.445420 0.070740 0.921670 -0.543587
O15   O     O_R   0.270660 0.915760 0.913380 -0.541602
C38   C     C_R   0.615618 0.086060 0.894890 0.702778
O16   O     O_R   0.770400 0.084270 0.086640 -0.538056
O17   O     O_3   0.602590 0.949210 0.997500 -0.373097
V3    V     V_3+5 0.329470 0.009420 0.000470 1.424857
O18   O     O_R   0.940650 0.906250 0.913470 -0.546302
C39   C     C_R   0.109843 0.883119 0.884788 0.680753
O19   O     O_R   0.936210 0.929220 0.078300 -0.541198
C40   C     C_R   0.106394 0.913610 0.105242 0.703600
V4    V     V_3+5 0.828930 0.990510 0.999490 1.416686
O20   O     O_3   0.105680 0.050790 0.002500 -0.363901
N1    N     N_3   0.878767 0.258078 0.596706 -0.643106
H17   H     H_    0.836405 0.200534 0.567996 0.234610
H18   H     H_    0.874082 0.291953 0.551609 0.269839
N2    N     N_3   0.276044 0.339206 0.826376 -0.661080
H19   H     H_    0.216675 0.395336 0.822865 0.233914
H20   H     H_    0.168212 0.296353 0.807771 0.235233
Cl1   Cl    Cl    0.982090 0.250624 0.368364 -0.631699
Cl2   Cl    Cl    0.306528 0.382284 0.265085 -0.624163

loop_
_geom_bond_atom_site_label_1
_geom_bond_atom_site_label_2
_ccdc_geom_bond_type
O12   C37   A    
O11   V4    S    
C15   H10   S    
C35   Cl2   S    
C18   H5    S    
O17   V3    S    
C19   C20   A    
C1    O6    A    
N1    H17   S    
O19   C40   A    
C7    C39   S    
C5    C10   A    
C16   C20   A    
C6    C7    A    
C9    C10   A    
O16   V4    S    
O5    C3    A    
C32   C33   A    
V2    O10   S    
O12   V3    S    
C13   C17   A    
C22   C38   S    
C30   N2    S    
O14   C38   A    
O8    V2    S    
C15   C16   A    
C24   H13   S    
O15   V3    S    
C14   H9    S    
O1    V2    S    
C12   C40   S    
O7    V1    S    
C22   C25   A    
V3    O20   S    
O9    C4    A    
O13   C40   A    
N1    H18   S    
C22   C24   A    
C17   C18   A    
O19   V4    S    
C11   C18   A    
C3    C11   S    
C29   C30   A    
C20   H8    S    
C19   H6    S    
C9    H4    S    
O4    C2    A    
C11   C19   A    
C32   H15   S    
C23   C24   A    
C4    C10   S    
C31   Cl1   S    
C33   C34   A    
C29   H11   S    
O2    C1    A    
O18   C39   A    
C13   C14   A    
C25   C26   A    
C23   C27   A    
C37   O16   A    
C13   H7    S    
C34   C35   A    
C5    H1    S    
O17   V4    S    
O14   V3    S    
O13   V3    S    
N2    H19   S    
O3    C4    A    
C26   C27   A    
C23   H12   S    
O6    V2    S    
O9    V2    S    
O15   C39   A    
C8    C9    A    
V4    O20   S    
O2    V1    S    
C31   C36   A    
O1    C2    A    
C12   C15   A    
N2    H20   S    
O5    V1    S    
O8    C3    A    
C21   C28   A    
C1    C21   S    
C16   C17   A    
C6    H2    S    
C12   C14   A    
O7    V2    S    
O4    V1    S    
O3    V1    S    
O11   C38   A    
C21   C29   A    
C31   C32   A    
C5    C6    A    
C34   H16   S    
C2    C36   S    
C35   C36   A    
C26   C30   A    
C33   C37   S    
C27   C28   A    
C8    H3    S    
V1    O10   S    
C7    C8    A    
O18   V4    S    
C28   N1    S    
C25   H14   S    
