data_mof_unit_3750.cif
_audit_creation_date              2012-12-10T18:58:44-0500
_audit_creation_method            fapswitch 2.2
_symmetry_space_group_name_H-M    P1
_symmetry_Int_Tables_number       1
_space_group_crystal_system       triclinic
_cell_length_a                    13.004644
_cell_length_b                    10.841094
_cell_length_c                    9.542177
_cell_angle_alpha                 90.61891
_cell_angle_beta                  96.134306
_cell_angle_gamma                 90.380674
_cell_volume                      1337.47752358

loop_
_atom_site_label
_atom_site_type_symbol
_atom_type_description
_atom_site_fract_x
_atom_site_fract_y
_atom_site_fract_z
_atom_type_partial_charge
C1    C     C_R   0.497260 0.262412 0.498859 0.798610
C2    C     C_R   0.027667 0.486067 0.564349 0.172138
C3    C     C_R   0.971636 0.521317 0.436586 0.115931
C4    C     C_R   0.864495 0.524944 0.425936 -0.238272
C5    C     C_R   0.867828 0.463978 0.670298 -0.202541
C6    C     C_R   0.975366 0.457831 0.681110 -0.175803
C7    C     C_R   0.476470 0.065666 0.619619 0.129801
C8    C     C_R   0.485580 0.129536 0.495538 -0.100579
C9    C     C_R   0.479873 0.062998 0.367714 -0.213362
C10   C     C_R   0.480623 0.934303 0.368804 -0.192199
C11   C     C_R   0.487287 0.871150 0.497719 -0.101233
C12   C     C_R   0.300442 0.504011 0.473338 0.843324
C13   C     C_R   0.477369 0.938653 0.620990 0.142085
C14   C     C_3   0.540591 0.937352 0.761174 -0.490871
C15   C     C_3   0.538854 0.077048 0.759606 -0.452883
C16   C     C_R   0.586530 0.534300 0.086594 0.256333
C17   C     C_R   0.419072 0.452262 0.062057 -0.034362
C18   C     C_R   0.418802 0.452838 0.913223 -0.061938
C19   C     C_R   0.587068 0.532479 0.939299 0.246223
C20   C     C_3   0.642885 0.652581 0.941410 -0.504220
C21   C     C_3   0.640196 0.656497 0.099895 -0.489185
C22   C     C_R   0.498082 0.737876 0.500107 0.807838
C23   C     C_R   0.699429 0.499113 0.526453 0.799443
C24   C     C_R   0.812107 0.496486 0.542013 -0.049624
C25   C     C_R   0.187391 0.511331 0.457218 -0.117779
C26   C     C_R   0.023192 0.553807 0.321322 -0.230642
C27   C     C_R   0.130572 0.551298 0.330927 0.260693
C28   C     C_R   0.134920 0.479911 0.573205 -0.295681
Cu1   Cu    Cu3+1 0.499990 0.499980 0.640670 0.947345
Cu2   Cu    Cu3+1 0.500010 0.500020 0.359330 0.968411
H1    H     H_    0.822054 0.550439 0.326983 0.141154
H2    H     H_    0.619266 0.899458 0.755095 0.197924
H3    H     H_    0.493792 0.117854 0.841030 0.199115
H4    H     H_    0.616269 0.119554 0.753173 0.201276
H5    H     H_    0.353145 0.414635 0.107466 0.168007
H6    H     H_    0.352383 0.416119 0.847939 0.142271
H7    H     H_    0.722111 0.642868 0.909146 0.197179
H8    H     H_    0.595261 0.724263 0.885899 0.217224
H9    H     H_    0.718324 0.651789 0.158502 0.186664
H10   H     H_    0.590384 0.730992 0.135538 0.212772
H11   H     H_    0.828330 0.441482 0.761185 0.153174
H12   H     H_    0.979955 0.583574 0.224221 0.164380
H13   H     H_    0.017452 0.431286 0.780261 0.148387
H14   H     H_    0.177458 0.450504 0.670973 0.164428
H15   H     H_    0.480467 0.109657 0.268003 0.166226
H16   H     H_    0.481296 0.885166 0.269514 0.169223
H17   H     H_    0.496695 0.898513 0.844444 0.204848
N1    N     N_R   0.500660 0.500930 0.148010 -0.187083
N2    N     N_R   0.500660 0.500890 0.852110 -0.188098
O1    O     O_R   0.500000 0.319640 0.618810 -0.583919
O2    O     O_R   0.500010 0.319680 0.381230 -0.589648
O3    O     O_R   0.348990 0.499960 0.599490 -0.594701
O4    O     O_R   0.349000 0.500000 0.361910 -0.547584
O5    O     O_R   0.499990 0.680320 0.618770 -0.577190
O6    O     O_R   0.500000 0.680360 0.381190 -0.574008
O7    O     O_R   0.651000 0.500000 0.638090 -0.588909
O8    O     O_R   0.651010 0.500040 0.400510 -0.586686
Br1   Br    Br    0.191756 0.612392 0.170116 -0.553425

loop_
_geom_bond_atom_site_label_1
_geom_bond_atom_site_label_2
_ccdc_geom_bond_type
C10   H16   S    
C23   C24   S    
C15   H4    S    
C9    H15   S    
C16   C21   S    
Cu1   O7    S    
C25   C27   A    
C1    C8    S    
C20   H8    S    
C9    C10   A    
C19   N2    A    
C11   C22   S    
C12   O4    A    
C21   H9    S    
C17   N1    A    
C12   C25   S    
Cu2   O2    S    
C10   C11   A    
C16   N1    A    
C19   C20   S    
C7    C15   S    
C17   C18   A    
C7    C8    A    
C22   O5    A    
Cu1   N2    S    
C13   C14   S    
C25   C28   A    
C20   H7    S    
C11   C13   A    
C23   O7    A    
C26   C27   A    
C22   O6    A    
C5    C24   A    
Cu1   O1    S    
C27   Br1   S    
C16   C19   A    
Cu2   N1    S    
C12   O3    A    
C28   H14   S    
C2    C3    A    
C6    H13   S    
C5    C6    A    
C4    C24   A    
Cu2   O4    S    
C4    H1    S    
Cu1   O5    S    
Cu1   Cu2   S    
C3    C4    A    
Cu2   O8    S    
C7    C13   A    
C20   C21   S    
C26   H12   S    
C1    O1    A    
C23   O8    A    
C5    H11   S    
C14   C15   S    
C2    C28   A    
C1    O2    A    
C17   H5    S    
C14   H17   S    
C18   H6    S    
Cu2   O6    S    
C15   H3    S    
C3    C26   A    
C2    C6    A    
C18   N2    A    
C14   H2    S    
C8    C9    A    
Cu1   O3    S    
C21   H10   S    
