data_mof_unit_2040.cif
_audit_creation_date              2013-03-05T15:48:15-0500
_audit_creation_method            fapswitch 2.2
_symmetry_space_group_name_H-M    P1
_symmetry_Int_Tables_number       1
_space_group_crystal_system       triclinic
_cell_length_a                    11.712121
_cell_length_b                    13.088409
_cell_length_c                    15.774807
_cell_angle_alpha                 91.946648
_cell_angle_beta                  73.414557
_cell_angle_gamma                 99.074099
_cell_volume                      2288.4006193

loop_
_atom_site_label
_atom_site_type_symbol
_atom_site_description
_atom_site_fract_x
_atom_site_fract_y
_atom_site_fract_z
_atom_type_partial_charge
O1    O     O_R   0.419950 0.645670 0.495380 -0.547534
O2    O     O_R   0.580050 0.354330 0.504620 -0.547767
O3    O     O_R   0.611110 0.658410 0.506370 -0.524905
O4    O     O_R   0.388890 0.341590 0.493630 -0.525156
C1    C     C_R   0.520659 0.700181 0.499657 0.913164
C2    C     C_R   0.479516 0.299768 0.499940 0.911776
O5    O     O_R   0.350820 0.490050 0.621260 -0.524655
O6    O     O_R   0.649180 0.509950 0.378740 -0.526754
O7    O     O_R   0.541970 0.502800 0.632250 -0.550205
O8    O     O_R   0.458030 0.497200 0.367750 -0.549676
C3    C     C_R   0.426267 0.495035 0.668447 0.866048
C4    C     C_R   0.573778 0.505291 0.331593 0.869296
Cu1   Cu    Cu3+1 0.386820 0.492450 0.493500 1.143446
Cu2   Cu    Cu3+1 0.613180 0.507550 0.506500 1.142194
C5    C     C_R   0.380767 0.483279 0.765251 -0.145498
C6    C     C_R   0.619696 0.516522 0.234830 -0.146477
C7    C     C_R   0.232267 0.403807 0.896089 0.373347
C8    C     C_R   0.776291 0.580327 0.102117 0.370510
C9    C     C_R   0.266780 0.428990 0.805853 -0.103933
C10   C     C_R   0.737363 0.562707 0.193639 -0.099048
C11   C     C_R   0.459034 0.516281 0.815777 -0.068524
C12   C     C_R   0.541632 0.485041 0.183937 -0.070292
C13   C     C_R   0.432483 0.486183 0.904932 0.040784
C14   C     C_R   0.570975 0.513250 0.094156 0.041951
C15   C     C_R   0.313017 0.437061 0.947892 -0.172394
C16   C     C_R   0.691866 0.559246 0.051318 -0.170222
C17   C     C_R   0.520580 0.506846 0.952769 -0.143466
C18   C     C_R   0.483242 0.494140 0.046098 -0.145030
C19   C     C_R   0.358623 0.465060 0.088703 0.581680
C20   C     C_R   0.644667 0.540461 0.910584 0.581791
C21   C     C_R   0.276891 0.429217 0.041228 0.243342
C22   C     C_R   0.724665 0.578296 0.959138 0.240206
H1    H     H_    0.458974 0.435587 0.216100 0.253491
H2    H     H_    0.538993 0.568892 0.783838 0.255048
H3    H     H_    0.800606 0.582389 0.232293 0.229050
H4    H     H_    0.206003 0.401915 0.766623 0.229397
C23   C     C_R   0.466630 0.187044 0.506114 -0.354019
C24   C     C_R   0.533686 0.812770 0.492750 -0.352934
C25   C     C_R   0.650239 0.975012 0.427902 0.674452
C26   C     C_R   0.349782 0.024582 0.570152 0.674072
C27   C     C_R   0.640805 0.868689 0.438672 0.191002
C28   C     C_R   0.359107 0.130784 0.559298 0.193716
C29   C     C_R   0.435956 0.863636 0.536002 0.283242
C30   C     C_R   0.564500 0.136253 0.462908 0.283473
C31   C     C_R   0.445780 0.971624 0.526299 -0.244698
C32   C     C_R   0.554513 0.028127 0.472188 -0.243624
N1    N     N_R   0.216750 0.481110 0.483710 -0.354697
N2    N     N_R   0.783250 0.518890 0.516290 -0.355262
C33   C     C_R   0.933040 0.586070 0.589805 0.662058
C34   C     C_R   0.067346 0.414792 0.409562 0.661112
C35   C     C_R   0.816819 0.579429 0.579927 0.637707
C36   C     C_R   0.183405 0.421085 0.419697 0.637037
C37   C     C_R   0.864616 0.466754 0.458527 0.816769
C38   C     C_R   0.135411 0.533350 0.541386 0.818625
C39   C     C_R   0.982902 0.470140 0.466305 -0.461394
C40   C     C_R   0.017269 0.530253 0.533394 -0.463006
N3    N     N_R   0.154218 0.395716 0.090895 0.203132
O9    O     O_R   0.129553 0.320675 0.148416 -0.140208
O10   O     O_R   0.073394 0.454292 0.093910 -0.219505
N4    N     N_R   0.835870 0.641289 0.913549 0.198843
O11   O     O_R   0.906646 0.608222 0.842027 -0.126852
O12   O     O_R   0.858030 0.737197 0.936429 -0.224915
F1    F     F_    0.262358 0.365445 0.365451 -0.565817
F2    F     F_    0.737990 0.635382 0.633915 -0.562432
F3    F     F_    0.962641 0.648012 0.653492 -0.463973
F4    F     F_    0.038331 0.354110 0.344959 -0.465700
N5    N     N_R   0.120280 0.336334 0.930995 0.167152
O13   O     O_R   0.024711 0.351571 0.909779 -0.234140
O14   O     O_R   0.120332 0.248013 0.966443 -0.229788
N6    N     N_R   0.902770 0.613240 0.062498 0.171638
O15   O     O_R   0.961418 0.685682 0.099335 -0.229016
O16   O     O_R   0.963355 0.557214 0.001568 -0.230857
F5    F     F_    0.310523 0.481182 0.176319 -0.605625
F6    F     F_    0.692617 0.534243 0.821833 -0.603835
N7    N     N_R   0.674329 0.195386 0.410744 0.224365
O17   O     O_R   0.769522 0.209203 0.439196 -0.188982
O18   O     O_R   0.676956 0.240793 0.337945 -0.241838
N8    N     N_R   0.326333 0.804657 0.588641 0.224367
O19   O     O_R   0.231137 0.789842 0.560189 -0.187773
O20   O     O_R   0.324152 0.759815 0.661579 -0.240675
N9    N     N_R   0.261254 0.181742 0.608424 0.181977
O21   O     O_R   0.151714 0.147586 0.606024 -0.203722
O22   O     O_R   0.278881 0.251947 0.665535 -0.374289
N10   N     N_R   0.738154 0.817364 0.388977 0.181326
O23   O     O_R   0.848260 0.852120 0.389693 -0.201623
O24   O     O_R   0.719215 0.745454 0.333478 -0.366923
F7    F     F_    0.751416 0.023887 0.369243 -0.518300
F8    F     F_    0.248228 0.975698 0.628427 -0.517616
F9    F     F_    0.168582 0.586574 0.607852 -0.517374
F10   F     F_    0.831269 0.413260 0.392251 -0.519637

loop_
_geom_bond_atom_site_label_1
_geom_bond_atom_site_label_2
_geom_bond_distance
_ccdc_geom_bond_type
C8    N6    1.434922 S    
C39   C40   1.409900 A    
C16   C22   1.414112 A    
C8    C16   1.430837 A    
C25   F7    1.358236 S    
O7    Cu2   1.918847 S    
N9    O21   1.301121 A    
C25   C27   1.390845 A    
C31   C32   1.422169 A    
C29   N8    1.433928 S    
O5    C3    1.301224 A    
C33   F3    1.357072 S    
O1    C1    1.296750 A    
C18   C19   1.417395 A    
C14   C16   1.427015 A    
N1    C38   1.367927 A    
C9    H4    1.082714 S    
C20   F6    1.356438 S    
N8    O20   1.301289 A    
N3    O10   1.298794 A    
C19   F5    1.358427 S    
C23   C28   1.406520 A    
N4    O12   1.301260 A    
O4    Cu1   1.978564 S    
N7    O18   1.301293 A    
C10   H3    1.083438 S    
C3    C5    1.471429 S    
N2    C35   1.364977 A    
C4    C6    1.470538 S    
C33   C35   1.402696 A    
C34   C36   1.402814 A    
N6    O15   1.301345 A    
C13   C17   1.431722 A    
C6    C10   1.392677 A    
C26   C28   1.389609 A    
C1    C24   1.461902 S    
C17   C20   1.419371 A    
O2    C2    1.297177 A    
C28   N9    1.434497 S    
N9    O22   1.299499 A    
C30   C32   1.410671 A    
C37   C39   1.419010 A    
N2    C37   1.367919 A    
C38   C40   1.419049 A    
C7    N5    1.434844 S    
N5    O13   1.301336 A    
N10   O23   1.301151 A    
C38   F9    1.353920 S    
O4    C2    1.297470 A    
Cu1   N1    2.023431 S    
N8    O19   1.301425 A    
Cu2   N2    2.023430 S    
C11   H2    1.075090 S    
O6    Cu2   1.937927 S    
C27   N10   1.435728 S    
C36   F1    1.354998 S    
N4    O11   1.301328 A    
N5    O14   1.301268 A    
C30   N7    1.433792 S    
C5    C9    1.393180 A    
N7    O17   1.301437 A    
C29   C31   1.409861 A    
C5    C11   1.389596 A    
O6    C4    1.300624 A    
C2    C23   1.462932 S    
C34   F4    1.357362 S    
O3    Cu2   1.978564 S    
O8    C4    1.300670 A    
C24   C27   1.406842 A    
C25   C32   1.412099 A    
O7    C3    1.300577 A    
C12   C14   1.406380 A    
O1    Cu1   1.982468 S    
C22   N4    1.435327 S    
C17   C18   1.418641 A    
C12   H1    1.076039 S    
C6    C12   1.388513 A    
C15   C21   1.413622 A    
C35   F2    1.355000 S    
C14   C18   1.429651 A    
N10   O24   1.300215 A    
O3    C1    1.297326 A    
O8    Cu1   1.918847 S    
N1    C36   1.365233 A    
C33   C40   1.407390 A    
C34   C39   1.407371 A    
C7    C15   1.427902 A    
C21   N3    1.432616 S    
C23   C30   1.408512 A    
C11   C13   1.406830 A    
C24   C29   1.408036 A    
C19   C21   1.393208 A    
C20   C22   1.395456 A    
C26   F8    1.358252 S    
N3    O9    1.301106 A    
C7    C9    1.399863 A    
C8    C10   1.399680 A    
C13   C15   1.426498 A    
O2    Cu2   1.982467 S    
O5    Cu1   1.937926 S    
C26   C31   1.411492 A    
C37   F10   1.353873 S    
N6    O16   1.300737 A    
Cu1   Cu2   2.692973 S    
