data_mof_unit_1729.cif
_audit_creation_date              2012-12-10T17:33:10-0500
_audit_creation_method            fapswitch 2.2
_symmetry_space_group_name_H-M    P1
_symmetry_Int_Tables_number       1
_space_group_crystal_system       triclinic
_cell_length_a                    15.516797
_cell_length_b                    15.462602
_cell_length_c                    17.881218
_cell_angle_alpha                 90.388296
_cell_angle_beta                  109.793312
_cell_angle_gamma                 68.910421
_cell_volume                      3733.89334065

loop_
_atom_site_label
_atom_site_type_symbol
_atom_type_description
_atom_site_fract_x
_atom_site_fract_y
_atom_site_fract_z
_atom_type_partial_charge
C1    C     C_R   0.464066 0.740306 0.531677 0.510648
C2    C     C_R   0.617209 0.436564 0.085013 -0.151894
C3    C     C_R   0.680570 0.386252 0.047460 -0.119996
C4    C     C_R   0.533261 0.259948 0.468546 0.480553
C5    C     C_R   0.648914 0.392097 0.964025 0.009055
C6    C     C_R   0.551246 0.453531 0.916973 -0.024926
C7    C     C_R   0.715144 0.338105 0.927660 0.292073
C8    C     C_R   0.685249 0.346749 0.843381 0.281017
C9    C     C_R   0.523762 0.461389 0.833176 -0.196962
C10   C     C_R   0.327238 0.990417 0.547154 0.254043
C11   C     C_R   0.443909 0.837289 0.544238 -0.020791
C12   C     C_R   0.318233 0.651038 0.152428 0.265851
C13   C     C_R   0.649152 0.104644 0.461255 -0.124133
C14   C     C_R   0.685758 0.007416 0.476512 0.256599
C15   C     C_R   0.631746 0.964307 0.499015 -0.100557
C16   C     C_R   0.757826 0.447888 0.532934 0.497362
C17   C     C_R   0.535870 0.016499 0.499574 -0.009682
C18   C     C_R   0.497067 0.115112 0.479533 0.010095
C19   C     C_R   0.477588 0.974115 0.520064 -0.010416
C20   C     C_R   0.384256 0.031052 0.523950 0.035309
C21   C     C_R   0.346110 0.127157 0.499958 -0.131793
C22   C     C_R   0.399698 0.167729 0.475087 -0.119981
C23   C     C_R   0.475456 0.530195 0.162526 -0.183463
C24   C     C_R   0.506685 0.876682 0.532628 -0.159509
C25   C     C_R   0.354044 0.893120 0.552405 -0.011619
C26   C     C_R   0.556815 0.159182 0.464988 -0.029095
C27   C     C_R   0.017781 0.405201 0.659282 -0.014606
C28   C     C_R   0.241840 0.552879 0.469358 0.490978
C29   C     C_R   0.862050 0.430059 0.551568 0.016100
C30   C     C_R   0.068768 0.616951 0.374565 -0.133236
C31   C     C_R   0.972468 0.620415 0.348495 -0.150588
C32   C     C_R   0.942268 0.576791 0.396973 -0.122065
C33   C     C_R   0.007618 0.531013 0.474869 0.035863
C34   C     C_R   0.452159 0.546350 0.079265 0.015165
C35   C     C_R   0.103645 0.534281 0.503379 0.027422
C36   C     C_R   0.980506 0.483293 0.525737 0.020223
C37   C     C_R   0.046015 0.448095 0.606748 0.037532
C38   C     C_R   0.137554 0.457696 0.634007 -0.150249
C39   C     C_R   0.164840 0.501363 0.584015 -0.131753
C40   C     C_R   0.561028 0.439854 0.711824 0.509364
C41   C     C_R   0.889522 0.470903 0.499087 -0.133623
C42   C     C_R   0.926471 0.396065 0.630522 -0.121038
C43   C     C_R   0.136136 0.571459 0.450689 0.023186
C44   C     C_R   0.439675 0.559132 0.287091 0.508033
C45   C     C_R   0.358350 0.614103 0.032861 -0.000014
C46   C     C_R   0.410389 0.581772 0.199637 0.015404
C47   C     C_R   0.590319 0.412764 0.797162 -0.010279
C48   C     C_R   0.293893 0.667393 0.069765 -0.114589
C49   C     C_3   0.838331 0.190003 0.977666 0.017859
C50   C     C_3   0.780450 0.153919 0.015954 -0.300277
C51   C     C_3   0.815746 0.047558 0.022652 -0.485270
C52   C     C_R   0.286665 0.850071 0.563567 0.062501
C53   C     C_R   0.188889 0.877779 0.508791 -0.040375
C54   C     C_R   0.127545 0.833399 0.516568 -0.103184
C55   C     C_R   0.163106 0.761273 0.579044 -0.099272
C56   C     C_R   0.518527 0.495996 0.040751 0.045411
C57   C     C_R   0.259986 0.733583 0.634080 -0.122261
C58   C     C_R   0.321576 0.777740 0.626540 -0.110079
C59   C     C_3   0.265208 0.075815 0.635568 0.003134
C60   C     C_3   0.290384 0.998571 0.702019 -0.266970
C61   C     C_3   0.304987 0.034286 0.783268 -0.484426
C62   C     C_3   0.784007 0.947744 0.402647 0.008774
C63   C     C_3   0.763237 0.862317 0.370567 -0.264529
C64   C     C_3   0.771767 0.850709 0.288254 -0.484148
C65   C     C_R   0.076830 0.376872 0.746240 0.027411
C66   C     C_R   0.107792 0.284360 0.780526 -0.098048
C67   C     C_R   0.486022 0.507604 0.955359 0.052403
C68   C     C_R   0.161151 0.258070 0.862815 -0.104861
C69   C     C_R   0.183253 0.324054 0.911478 -0.091725
C70   C     C_R   0.151228 0.416666 0.878094 -0.108169
C71   C     C_R   0.097448 0.443306 0.795937 -0.096472
C72   C     C_3   0.721820 0.244647 0.749214 -0.001787
C73   C     C_3   0.663528 0.189522 0.766912 -0.299447
C74   C     C_3   0.641089 0.128009 0.701782 -0.460220
C75   C     C_3   0.189333 0.662824 0.192695 0.033056
C76   C     C_3   0.091950 0.698573 0.120301 -0.284189
C77   C     C_3   0.015293 0.666212 0.132991 -0.482739
C78   C     C_R   0.390236 0.574381 0.911511 -0.126689
C79   C     C_R   0.328914 0.627683 0.949805 -0.140208
H1    H     H_    0.256817 0.678984 0.913769 0.102897
H2    H     H_    0.835837 0.496681 0.439270 0.102920
H3    H     H_    0.091712 0.646823 0.333788 0.114589
H4    H     H_    0.866694 0.582011 0.372083 0.101340
H5    H     H_    0.921573 0.654714 0.289096 0.112639
H6    H     H_    0.234010 0.510960 0.610558 0.139471
H7    H     H_    0.755541 0.342428 0.084963 0.157125
H8    H     H_    0.223536 0.721394 0.034143 0.112691
H9    H     H_    0.543102 0.475679 0.200016 0.136735
H10   H     H_    0.360089 0.589116 0.847192 0.095811
H11   H     H_    0.649556 0.429212 0.149373 0.104966
H12   H     H_    0.272644 0.171302 0.497507 0.153550
H13   H     H_    0.918248 0.155888 0.014885 0.156645
H14   H     H_    0.831676 0.167708 0.917803 0.168632
H15   H     H_    0.791018 0.175117 0.076871 0.165230
H16   H     H_    0.700148 0.184113 0.979059 0.148752
H17   H     H_    0.804748 0.024559 0.962296 0.142728
H18   H     H_    0.772598 0.023551 0.050187 0.149823
H19   H     H_    0.895411 0.014841 0.060930 0.150585
H20   H     H_    0.160863 0.932375 0.459203 0.134845
H21   H     H_    0.052659 0.854399 0.473749 0.106996
H22   H     H_    0.115691 0.726659 0.584648 0.117365
H23   H     H_    0.573031 0.829240 0.525359 0.112272
H24   H     H_    0.287549 0.677563 0.682361 0.092779
H25   H     H_    0.396656 0.755228 0.669415 0.103112
H26   H     H_    0.199120 0.136298 0.635463 0.158658
H27   H     H_    0.326577 0.101723 0.648826 0.123489
H28   H     H_    0.229652 0.971983 0.687276 0.185769
H29   H     H_    0.359939 0.939780 0.706595 0.154596
H30   H     H_    0.363846 0.063291 0.798507 0.149966
H31   H     H_    0.327149 0.975827 0.830284 0.149828
H32   H     H_    0.234894 0.089139 0.782327 0.143746
H33   H     H_    0.859966 0.938480 0.406852 0.148265
H34   H     H_    0.696207 0.137436 0.451510 0.141500
H35   H     H_    0.732765 0.012224 0.359468 0.118371
H36   H     H_    0.817001 0.798366 0.412949 0.179300
H37   H     H_    0.687324 0.870385 0.365621 0.158912
H38   H     H_    0.718091 0.913627 0.244733 0.148051
H39   H     H_    0.755159 0.789055 0.266290 0.145559
H40   H     H_    0.847990 0.839768 0.292008 0.144410
H41   H     H_    0.090421 0.232889 0.743419 0.097404
H42   H     H_    0.185146 0.186599 0.888942 0.105893
H43   H     H_    0.224635 0.303557 0.975123 0.109602
H44   H     H_    0.167673 0.467913 0.915927 0.108423
H45   H     H_    0.668068 0.889884 0.516528 0.122640
H46   H     H_    0.071919 0.515580 0.770989 0.109224
H47   H     H_    0.789342 0.192734 0.742569 0.147630
H48   H     H_    0.680317 0.288627 0.690138 0.146435
H49   H     H_    0.706713 0.144063 0.825167 0.144048
H50   H     H_    0.591991 0.237986 0.769497 0.163882
H51   H     H_    0.595505 0.171713 0.642830 0.185555
H52   H     H_    0.599181 0.089363 0.715708 0.148324
H53   H     H_    0.710840 0.076557 0.698280 0.150729
H54   H     H_    0.172691 0.682059 0.247640 0.168427
H55   H     H_    0.223474 0.584782 0.200405 0.107813
H56   H     H_    0.362950 0.241125 0.451627 0.147201
H57   H     H_    0.061744 0.776268 0.110311 0.175201
H58   H     H_    0.105718 0.671967 0.065907 0.148156
H59   H     H_    0.044472 0.588690 0.144616 0.154296
H60   H     H_    0.947076 0.690299 0.078428 0.154101
H61   H     H_    0.995798 0.696241 0.184381 0.137105
H62   H     H_    0.902070 0.368318 0.671658 0.132370
H63   H     H_    0.452028 0.508023 0.793340 0.107109
H64   H     H_    0.189855 0.431152 0.694508 0.121327
O1    O     O_3   0.500000 0.500000 0.500000 -0.437283
O2    O     O_R   0.596500 0.492780 0.688380 -0.522437
O3    O     O_R   0.388780 0.611210 0.325000 -0.506215
O4    O     O_R   0.499860 0.410860 0.661600 -0.561107
O5    O     O_R   0.514860 0.485140 0.325020 -0.556286
O6    O     O_3   0.813337 0.287790 0.975776 -0.555496
O7    O     O_3   0.241076 0.045462 0.558881 -0.586346
O8    O     O_3   0.780951 0.954309 0.480759 -0.571836
O9    O     O_3   0.754948 0.297716 0.810048 -0.561129
O10   O     O_3   0.253161 0.706556 0.186532 -0.548947
O11   O     O_R   0.707110 0.418540 0.472990 -0.540719
O12   O     O_R   0.267620 0.606720 0.435250 -0.551246
O13   O     O_R   0.540230 0.674660 0.578090 -0.542552
O14   O     O_R   0.485030 0.300080 0.513670 -0.557792
O15   O     O_R   0.403610 0.721990 0.472930 -0.526570
O16   O     O_R   0.571130 0.303270 0.435320 -0.545071
O17   O     O_R   0.717650 0.497270 0.578120 -0.536299
O18   O     O_R   0.307610 0.477470 0.513630 -0.546411
Zn1   Zn    Zn3+2 0.572030 0.427990 0.434470 0.918522
Zn2   Zn    Zn3+2 0.587090 0.540470 0.584680 0.945381
Zn3   Zn    Zn3+2 0.449010 0.423430 0.546420 0.903022
Zn4   Zn    Zn3+2 0.391880 0.608100 0.434430 0.948788

loop_
_geom_bond_atom_site_label_1
_geom_bond_atom_site_label_2
_ccdc_geom_bond_type
C51   H18   S    
C40   C47   S    
C66   C68   A    
C34   C56   A    
C74   H53   S    
C29   C42   A    
C16   O17   A    
C38   H64   S    
C19   C20   A    
C18   C26   A    
C77   H61   S    
C12   O10   S    
C12   C48   A    
C61   H30   S    
C6    C9    A    
C76   H57   S    
C75   H55   S    
C29   C41   A    
C7    C8    A    
C56   C67   A    
C53   C54   A    
C53   H20   S    
C37   C38   A    
C64   H40   S    
C40   O2    A    
C21   C22   A    
C36   C37   A    
C8    O9    S    
C27   C37   A    
C62   H35   S    
O4    Zn3   S    
C30   C31   A    
C50   H16   S    
C45   C48   A    
C4    O16   A    
C11   C25   A    
C11   C24   A    
C33   C36   A    
C64   H39   S    
C73   C74   S    
C2    H11   S    
C33   C35   A    
C7    O6    S    
C70   H44   S    
C4    O14   A    
O13   Zn2   S    
C10   C20   A    
C68   C69   A    
C72   O9    S    
C1    C11   S    
C14   O8    S    
C28   O12   A    
C44   O3    A    
C70   C71   A    
C35   C43   A    
C60   H29   S    
C51   H17   S    
C63   H36   S    
C51   H19   S    
C22   H56   S    
C59   C60   S    
C23   C46   A    
C66   H41   S    
C74   H52   S    
O1    Zn3   S    
C3    H7    S    
C54   H21   S    
C36   C41   A    
C67   C78   A    
C61   H31   S    
C44   C46   S    
C28   O18   A    
C50   C51   S    
C78   H10   S    
C38   C39   A    
C57   H24   S    
C73   H50   S    
O16   Zn1   S    
C59   H27   S    
C62   O8    S    
C72   H48   S    
O17   Zn2   S    
C76   C77   S    
C12   C46   A    
C15   H45   S    
C5    C7    A    
C78   C79   A    
C50   H15   S    
O2    Zn2   S    
C16   C29   S    
C76   H58   S    
C64   H38   S    
C63   C64   S    
C72   H47   S    
C60   C61   S    
C30   H3    S    
C1    O13   A    
C35   C39   A    
C75   C76   S    
C62   C63   S    
C27   C65   S    
C75   O10   S    
C31   C32   A    
C23   C34   A    
C41   H2    S    
C42   H62   S    
C17   C18   A    
C48   H8    S    
C45   C79   A    
C34   C45   A    
C59   H26   S    
C77   H59   S    
O14   Zn3   S    
C60   H28   S    
C52   C58   A    
C63   H37   S    
C10   C25   A    
C6    C67   A    
O3    Zn4   S    
C9    C47   A    
C23   H9    S    
C55   C57   A    
O1    Zn2   S    
C16   O11   A    
C49   C50   S    
C30   C43   A    
C58   H25   S    
C39   H6    S    
C49   H13   S    
C17   C19   A    
C61   H32   S    
O18   Zn3   S    
C52   C53   A    
C21   H12   S    
C59   O7    S    
C15   C17   A    
C32   H4    S    
C54   C55   A    
C1    O15   A    
C40   O4    A    
O1    Zn1   S    
C18   C22   A    
O11   Zn1   S    
C77   H60   S    
C72   C73   S    
C3    C5    A    
C68   H42   S    
C4    C26   S    
C9    H63   S    
C75   H54   S    
C73   H49   S    
C55   H22   S    
C28   C43   S    
C49   O6    S    
O1    Zn4   S    
O5    Zn1   S    
C32   C33   A    
C74   H51   S    
C2    C3    A    
C25   C52   S    
C65   C71   A    
C10   O7    S    
C27   C42   A    
C57   C58   A    
C5    C6    A    
C69   H43   S    
O12   Zn4   S    
C44   O5    A    
C19   C24   A    
C24   H23   S    
C69   C70   A    
C13   C26   A    
C8    C47   A    
C31   H5    S    
C79   H1    S    
C62   H33   S    
C20   C21   A    
C65   C66   A    
C14   C15   A    
C71   H46   S    
C2    C56   A    
C49   H14   S    
C13   C14   A    
C13   H34   S    
O15   Zn4   S    
