data_mof_unit_3935.cif
_audit_creation_date              2012-12-11T15:50:26-0500
_audit_creation_method            fapswitch 2.2
_symmetry_space_group_name_H-M    P1
_symmetry_Int_Tables_number       1
_space_group_crystal_system       triclinic
_cell_length_a                    18.956618
_cell_length_b                    10.931741
_cell_length_c                    18.78054
_cell_angle_alpha                 90.183882
_cell_angle_beta                  90.924649
_cell_angle_gamma                 90.066819
_cell_volume                      3891.33976839

loop_
_atom_site_label
_atom_site_type_symbol
_atom_type_description
_atom_site_fract_x
_atom_site_fract_y
_atom_site_fract_z
_atom_type_partial_charge
C1    C     C_R   0.273773 0.039652 0.854883 0.541720
C2    C     C_R   0.727413 0.041929 0.146196 0.542924
C3    C     C_R   0.790142 0.497082 0.860862 0.548252
C4    C     C_R   0.226162 0.539234 0.145048 0.540909
C5    C     C_3   0.509682 0.719440 0.970385 -0.117853
C6    C     C_3   0.465482 0.736333 0.037670 -0.112619
C7    C     C_3   0.032289 0.231013 0.962469 -0.106248
C8    C     C_3   0.987711 0.218389 0.029881 -0.103165
C9    C     C_R   0.240233 0.573506 0.071861 0.017116
C10   C     C_R   0.780563 0.511994 0.937997 0.004142
C11   C     C_R   0.746124 0.085589 0.075781 0.018616
C12   C     C_R   0.259603 0.074384 0.928037 0.016172
C13   C     C_R   0.304534 0.551220 0.038893 -0.001675
C14   C     C_R   0.721417 0.467005 0.973488 0.028092
C15   C     C_R   0.805870 0.044881 0.039644 0.003895
C16   C     C_R   0.195393 0.051046 0.960949 -0.001017
C17   C     C_R   0.310446 0.562002 0.965462 0.023253
C18   C     C_R   0.710918 0.492196 0.045289 0.017019
C19   C     C_R   0.810345 0.056772 0.966165 0.014013
C20   C     C_R   0.189502 0.061441 0.034430 0.022486
C21   C     C_R   0.186992 0.613329 0.955850 -0.177536
C22   C     C_R   0.824020 0.590974 0.051706 -0.169409
C23   C     C_R   0.695485 0.150737 0.963178 -0.160286
C24   C     C_R   0.312970 0.113493 0.044152 -0.177924
C25   C     C_R   0.182154 0.609702 0.029158 -0.172314
C26   C     C_R   0.834554 0.565278 0.979708 -0.176665
C27   C     C_R   0.693752 0.148237 0.036654 -0.154297
C28   C     C_R   0.317645 0.110970 0.970830 -0.174198
C29   C     C_3   0.349878 0.440126 0.041722 -0.272097
C30   C     C_3   0.644768 0.480743 0.956092 -0.269001
C31   C     C_3   0.840735 0.922698 0.039239 -0.265496
C32   C     C_3   0.150508 0.939173 0.957656 -0.270993
C33   C     C_3   0.356649 0.451539 0.961760 -0.276668
C34   C     C_3   0.633180 0.503099 0.034997 -0.279422
C35   C     C_3   0.846166 0.935802 0.959159 -0.277165
C36   C     C_3   0.143560 0.950458 0.037625 -0.277704
C37   C     C_R   0.251152 0.589012 0.922798 0.017490
C38   C     C_R   0.758699 0.565942 0.083680 0.014511
C39   C     C_R   0.753072 0.102158 0.926384 0.014893
C40   C     C_R   0.248839 0.088559 0.077130 0.017497
C41   C     C_R   0.509414 0.826048 0.426942 0.018785
C42   C     C_R   0.496546 0.836967 0.575638 0.012109
C43   C     C_R   0.009421 0.326046 0.426946 0.018805
C44   C     C_R   0.996556 0.336967 0.575642 0.011677
C45   C     C_R   0.441734 0.817835 0.862939 0.559107
C46   C     C_R   0.553495 0.818332 0.136739 0.551219
C47   C     C_R   0.946673 0.318355 0.863275 0.539240
C48   C     C_R   0.058637 0.317123 0.137093 0.559304
C49   C     C_R   0.540449 0.738395 0.471556 0.044055
C50   C     C_R   0.535469 0.743929 0.544357 0.008309
C51   C     C_R   0.040458 0.238394 0.471559 0.044066
C52   C     C_R   0.035478 0.243928 0.544362 0.007605
C53   C     C_R   0.469985 0.931989 0.531944 -0.169813
C54   C     C_R   0.475214 0.925475 0.457755 -0.187322
C55   C     C_R   0.969997 0.431989 0.531948 -0.169680
C56   C     C_R   0.975222 0.425472 0.457760 -0.187155
C57   C     C_3   0.532032 0.602645 0.470468 -0.266207
C58   C     C_3   0.530911 0.607721 0.550901 -0.275307
C59   C     C_3   0.032040 0.102643 0.470473 -0.265921
C60   C     C_3   0.030918 0.107721 0.550906 -0.275637
C61   C     C_R   0.239504 0.575401 0.426866 0.044400
C62   C     C_R   0.764132 0.555715 0.568200 0.012809
C63   C     C_R   0.739504 0.075395 0.426867 0.044726
C64   C     C_R   0.264122 0.055737 0.568208 0.014337
C65   C     C_R   0.180661 0.569405 0.470727 0.075647
C66   C     C_R   0.817997 0.614576 0.532835 0.020805
C67   C     C_R   0.680660 0.069404 0.470727 0.075618
C68   C     C_R   0.317978 0.114627 0.532849 0.021607
C69   C     C_R   0.187012 0.572450 0.542911 -0.017979
C70   C     C_R   0.816934 0.625013 0.460898 -0.007615
C71   C     C_R   0.687011 0.072450 0.542911 -0.017689
C72   C     C_R   0.316914 0.125074 0.460913 -0.007872
C73   C     C_R   0.313772 0.581803 0.530978 -0.112005
C74   C     C_R   0.713764 0.496908 0.453725 -0.152700
C75   C     C_R   0.813772 0.081789 0.530980 -0.112359
C76   C     C_R   0.213766 0.996917 0.453731 -0.153013
C77   C     C_R   0.306866 0.572894 0.457458 -0.176031
C78   C     C_R   0.715412 0.485566 0.527856 -0.148323
C79   C     C_R   0.806866 0.072876 0.457459 -0.175881
C80   C     C_R   0.215412 0.985572 0.527861 -0.147895
C81   C     C_3   0.111606 0.635941 0.470891 -0.030176
C82   C     C_3   0.852201 0.736001 0.545345 -0.040611
C83   C     C_3   0.611605 0.135940 0.470889 -0.030291
C84   C     C_3   0.352152 0.236073 0.545368 -0.040334
C85   C     C_3   0.118086 0.637237 0.551634 -0.232861
C86   C     C_3   0.850584 0.749984 0.465068 -0.210328
C87   C     C_3   0.618085 0.137238 0.551632 -0.232759
C88   C     C_3   0.350527 0.250074 0.465092 -0.210328
C89   C     C_R   0.260684 0.635396 0.851248 0.537133
C90   C     C_R   0.740188 0.633674 0.148867 0.532051
C91   C     C_R   0.761161 0.137987 0.852395 0.535202
C92   C     C_R   0.239328 0.135075 0.148764 0.536986
C93   C     C_R   0.253204 0.588757 0.573758 0.041187
C94   C     C_R   0.759690 0.578300 0.421311 0.013412
C95   C     C_R   0.753203 0.088751 0.573758 0.040896
C96   C     C_R   0.259683 0.078329 0.421322 0.013258
C97   C     C_R   0.273767 0.039103 0.643309 0.545764
C98   C     C_R   0.728006 0.046141 0.353874 0.546469
C99   C     C_R   0.773772 0.539092 0.643304 0.552144
C100  C     C_R   0.228006 0.546143 0.353873 0.547074
C101  C     C_R   0.469348 0.824031 0.646750 0.557854
C102  C     C_R   0.529580 0.822940 0.352880 0.550239
C103  C     C_R   0.969352 0.324032 0.646753 0.557738
C104  C     C_R   0.029583 0.322939 0.352882 0.551412
C105  C     C_R   0.260550 0.637279 0.643767 0.557173
C106  C     C_R   0.741494 0.634801 0.354822 0.549039
C107  C     C_R   0.760550 0.137280 0.643767 0.558756
C108  C     C_R   0.241491 0.134810 0.354826 0.548559
C109  C     C_3   0.480871 0.935137 0.031992 -0.111786
C110  C     C_3   0.524817 0.918365 0.963823 -0.105242
C111  C     C_3   0.978119 0.418321 0.036089 -0.114350
C112  C     C_3   0.022290 0.430932 0.967909 -0.120776
C113  C     C_3   0.424966 0.843425 0.002592 -0.138704
C114  C     C_3   0.565310 0.811204 0.998842 -0.145885
C115  C     C_3   0.934655 0.313630 0.001254 -0.133981
C116  C     C_3   0.075715 0.335647 0.997299 -0.137493
C117  C     C_3   0.469634 0.826284 0.935974 0.058589
C118  C     C_3   0.520991 0.827325 0.065690 0.055213
C119  C     C_3   0.979263 0.325986 0.934370 0.054444
C120  C     C_3   0.030760 0.323060 0.063987 0.055950
Cr1   Cr    Cr6+3 0.229640 0.835880 0.747370 0.999130
Cr2   Cr    Cr6+3 0.770360 0.835880 0.252630 1.000690
Cr3   Cr    Cr6+3 0.729640 0.335880 0.747370 1.001323
Cr4   Cr    Cr6+3 0.270360 0.335880 0.252630 0.999288
Cr5   Cr    Cr6+3 0.387390 0.989720 0.750850 1.003538
Cr6   Cr    Cr6+3 0.612610 0.989720 0.249150 1.003999
Cr7   Cr    Cr6+3 0.887390 0.489720 0.750850 1.000830
Cr8   Cr    Cr6+3 0.112610 0.489720 0.249150 1.001445
Cr9   Cr    Cr6+3 0.385770 0.677220 0.749340 1.009001
Cr10  Cr    Cr6+3 0.614230 0.677220 0.250660 1.005296
Cr11  Cr    Cr6+3 0.885770 0.177220 0.749340 1.007259
Cr12  Cr    Cr6+3 0.114230 0.177220 0.250660 1.006042
H1    H     H_    0.366829 0.855618 0.002517 0.117186
H2    H     H_    0.623482 0.799281 0.998222 0.101425
H3    H     H_    0.876323 0.304576 0.001752 0.117351
H4    H     H_    0.134107 0.343918 0.997293 0.116883
H5    H     H_    0.441485 0.007424 0.554822 0.141612
H6    H     H_    0.453351 0.997784 0.424885 0.120457
H7    H     H_    0.941499 0.507425 0.554828 0.141486
H8    H     H_    0.953358 0.497781 0.424889 0.120584
H9    H     H_    0.078466 0.056007 0.449075 0.149714
H10   H     H_    0.981036 0.072727 0.572795 0.157189
H11   H     H_    0.578459 0.556011 0.449070 0.149739
H12   H     H_    0.481030 0.572724 0.572790 0.157044
H13   H     H_    0.480959 0.573159 0.446077 0.128876
H14   H     H_    0.579086 0.569014 0.576523 0.135387
H15   H     H_    0.980966 0.073159 0.446083 0.128954
H16   H     H_    0.079093 0.069013 0.576529 0.134720
H17   H     H_    0.366006 0.592103 0.553671 0.146521
H18   H     H_    0.673469 0.452586 0.422100 0.155843
H19   H     H_    0.866006 0.092082 0.553673 0.146548
H20   H     H_    0.173480 0.952578 0.422103 0.155772
H21   H     H_    0.353300 0.567918 0.424761 0.113064
H22   H     H_    0.677632 0.426443 0.553194 0.145751
H23   H     H_    0.853300 0.067894 0.424764 0.113276
H24   H     H_    0.177639 0.926431 0.553197 0.145959
H25   H     H_    0.067772 0.582065 0.448406 0.152923
H26   H     H_    0.906281 0.730467 0.568983 0.145206
H27   H     H_    0.567771 0.082063 0.448405 0.152933
H28   H     H_    0.406235 0.230569 0.569003 0.145132
H29   H     H_    0.122707 0.730708 0.574469 0.171385
H30   H     H_    0.815065 0.824033 0.446063 0.188046
H31   H     H_    0.622707 0.230710 0.574466 0.171298
H32   H     H_    0.314983 0.324087 0.446091 0.188095
H33   H     H_    0.078644 0.578496 0.578004 0.115519
H34   H     H_    0.904125 0.750860 0.441752 0.102572
H35   H     H_    0.578642 0.078500 0.578002 0.115755
H36   H     H_    0.404067 0.251005 0.441773 0.102535
H37   H     H_    0.470152 0.023549 0.058846 0.112296
H38   H     H_    0.548728 0.993025 0.932318 0.121408
H39   H     H_    0.958311 0.494879 0.068880 0.123343
H40   H     H_    0.034871 0.518129 0.940901 0.111897
H41   H     H_    0.519540 0.629828 0.944700 0.125392
H42   H     H_    0.441748 0.662409 0.069631 0.133322
H43   H     H_    0.054094 0.154918 0.930612 0.132123
H44   H     H_    0.973507 0.130488 0.055438 0.126922
H45   H     H_    0.140741 0.640204 0.925136 0.131407
H46   H     H_    0.864805 0.641760 0.079998 0.133321
H47   H     H_    0.651136 0.191588 0.935270 0.133004
H48   H     H_    0.359327 0.140096 0.074963 0.131854
H49   H     H_    0.130877 0.627777 0.051541 0.144478
H50   H     H_    0.883562 0.593796 0.955926 0.137451
H51   H     H_    0.647135 0.184791 0.061633 0.140677
H52   H     H_    0.368855 0.129699 0.948480 0.144835
H53   H     H_    0.804402 0.848167 0.054913 0.168228
H54   H     H_    0.180821 0.857606 0.941183 0.173944
H55   H     H_    0.319974 0.358043 0.058016 0.173384
H56   H     H_    0.620031 0.394965 0.936283 0.132673
H57   H     H_    0.400288 0.455673 0.071342 0.126496
H58   H     H_    0.634410 0.562363 0.922400 0.147059
H59   H     H_    0.892794 0.923829 0.067316 0.128599
H60   H     H_    0.100094 0.953665 0.927977 0.125601
H61   H     H_    0.411009 0.474950 0.945103 0.137777
H62   H     H_    0.613635 0.595556 0.047994 0.153698
H63   H     H_    0.901427 0.945647 0.941043 0.139183
H64   H     H_    0.089111 0.973318 0.054265 0.136514
H65   H     H_    0.331581 0.374870 0.931583 0.143567
H66   H     H_    0.604464 0.427247 0.061159 0.130941
H67   H     H_    0.813865 0.867721 0.928849 0.149084
H68   H     H_    0.168736 0.874048 0.067558 0.143641
O1    O     O_R   0.214300 0.709080 0.827500 -0.532488
O2    O     O_R   0.785700 0.709080 0.172500 -0.532711
O3    O     O_R   0.714300 0.209080 0.827500 -0.533078
O4    O     O_R   0.285700 0.209080 0.172500 -0.532280
O5    O     O_R   0.445900 0.919370 0.676500 -0.507503
O6    O     O_R   0.554100 0.919370 0.323500 -0.504937
O7    O     O_R   0.945900 0.419370 0.676500 -0.507241
O8    O     O_R   0.054100 0.419370 0.323500 -0.504358
O9    O     O_R   0.456660 0.717710 0.669820 -0.521865
O10   O     O_R   0.543340 0.717710 0.330180 -0.515510
O11   O     O_R   0.956660 0.217710 0.669820 -0.521428
O12   O     O_R   0.043340 0.217710 0.330180 -0.515490
O13   O     O_R   0.320590 0.625770 0.672930 -0.507732
O14   O     O_R   0.679410 0.625770 0.327070 -0.507985
O15   O     O_R   0.820590 0.125770 0.672930 -0.505615
O16   O     O_R   0.179410 0.125770 0.327070 -0.508841
O17   O     O_3   0.334270 0.834280 0.749190 -0.265497
O18   O     O_3   0.665730 0.834280 0.250810 -0.258040
O19   O     O_3   0.834270 0.334280 0.749190 -0.279989
O20   O     O_3   0.165730 0.334280 0.250810 -0.263140
O21   O     O_R   0.236190 0.958390 0.823150 -0.501682
O22   O     O_R   0.763810 0.958390 0.176850 -0.502461
O23   O     O_R   0.736190 0.458390 0.823150 -0.494737
O24   O     O_R   0.263810 0.458390 0.176850 -0.502520
O25   O     O_R   0.332090 0.075280 0.831290 -0.535306
O26   O     O_R   0.667910 0.075280 0.168710 -0.533647
O27   O     O_R   0.832090 0.575280 0.831290 -0.523451
O28   O     O_R   0.167910 0.575280 0.168710 -0.536518
O29   O     O_R   0.446280 0.918040 0.826620 -0.504861
O30   O     O_R   0.553720 0.918040 0.173380 -0.501229
O31   O     O_R   0.946280 0.418040 0.826620 -0.516376
O32   O     O_R   0.053720 0.418040 0.173380 -0.505917
O33   O     O_R   0.457080 0.716270 0.831760 -0.521172
O34   O     O_R   0.542920 0.716270 0.168240 -0.527414
O35   O     O_R   0.957080 0.216270 0.831760 -0.517780
O36   O     O_R   0.042920 0.216270 0.168240 -0.521859
O37   O     O_R   0.320980 0.624440 0.823040 -0.511386
O38   O     O_R   0.679020 0.624440 0.176960 -0.510773
O39   O     O_R   0.820980 0.124440 0.823040 -0.508578
O40   O     O_R   0.179020 0.124440 0.176960 -0.512239
O41   O     O_R   0.213880 0.710510 0.665560 -0.531219
O42   O     O_R   0.786120 0.710510 0.334440 -0.526589
O43   O     O_R   0.713880 0.210510 0.665560 -0.531234
O44   O     O_R   0.286120 0.210510 0.334440 -0.526595
O45   O     O_R   0.235800 0.959720 0.673040 -0.508889
O46   O     O_R   0.764200 0.959720 0.326960 -0.512892
O47   O     O_R   0.735800 0.459720 0.673040 -0.505682
O48   O     O_R   0.264200 0.459720 0.326960 -0.512242
O49   O     O_R   0.331670 0.076720 0.669350 -0.527660
O50   O     O_R   0.668330 0.076720 0.330650 -0.524035
O51   O     O_R   0.831670 0.576720 0.669350 -0.524490
O52   O     O_R   0.168330 0.576720 0.330650 -0.523416
N1    N     N_3   0.115474 0.758544 0.441139 -0.654151
H69   H     H_    0.108324 0.752193 0.386015 0.253191
H70   H     H_    0.071907 0.807518 0.459330 0.207088
N2    N     N_3   0.806578 0.823757 0.581398 -0.637733
H71   H     H_    0.754234 0.814116 0.563555 0.237264
H72   H     H_    0.807884 0.805077 0.635913 0.254778
N3    N     N_3   0.615474 0.258543 0.441136 -0.654099
H73   H     H_    0.608325 0.252190 0.386011 0.253234
H74   H     H_    0.571907 0.307518 0.459327 0.207069
N4    N     N_3   0.306510 0.323782 0.581434 -0.638230
H75   H     H_    0.254168 0.314115 0.563589 0.236976
H76   H     H_    0.307818 0.305077 0.635946 0.252779

loop_
_geom_bond_atom_site_label_1
_geom_bond_atom_site_label_2
_ccdc_geom_bond_type
Cr12  O40   S    
C87   H31   S    
C55   C56   A    
Cr4   O20   S    
C67   C83   S    
C57   H13   S    
C5    C114  S    
Cr1   O21   S    
C85   H29   S    
C14   C18   A    
C48   O36   A    
C89   O1    A    
C111  C112  S    
Cr12  O12   S    
C73   C93   A    
C22   H46   S    
C29   H57   S    
C82   N2    S    
C115  H3    S    
Cr3   O43   S    
C28   H52   S    
C84   H28   S    
Cr7   O19   S    
C7    C8    S    
C48   C120  S    
C63   C79   A    
C53   C54   A    
C15   C19   A    
C32   H60   S    
C33   H65   S    
C35   H67   S    
C55   H7    S    
C17   C33   S    
C12   C28   A    
C53   H5    S    
C32   C36   S    
C13   C29   S    
C16   C20   A    
Cr6   O30   S    
C45   O33   A    
C98   O46   A    
C63   C98   S    
C69   C93   A    
C42   C53   A    
C97   O45   A    
C5    C6    S    
C56   H8    S    
C72   C96   A    
C23   C39   A    
C59   H15   S    
C71   C95   A    
C76   H20   S    
C45   C117  S    
C22   C38   A    
C31   H59   S    
Cr12  O16   S    
C2    O22   A    
C91   O3    A    
C49   C57   S    
C41   C102  S    
C46   C118  S    
C1    O21   A    
N2    H72   S    
C105  O41   A    
Cr10  O18   S    
C9    C13   A    
C43   C104  S    
Cr9   O17   S    
C83   H27   S    
C52   C60   S    
C8    C115  S    
C93   C105  S    
Cr5   O5    S    
C11   C15   A    
C41   C49   A    
Cr10  O38   S    
C12   C16   A    
C29   C33   S    
C75   H19   S    
C88   H36   S    
C7    H43   S    
C24   H48   S    
Cr6   O18   S    
C83   N3    S    
C86   H30   S    
C104  O8    A    
C23   C27   A    
Cr4   O44   S    
C24   C28   A    
Cr8   O20   S    
N4    H75   S    
C23   H47   S    
C92   O4    A    
C109  C113  S    
N3    H73   S    
Cr2   O46   S    
C60   H10   S    
C34   H62   S    
Cr1   O45   S    
C96   C108  S    
Cr2   O22   S    
C33   H61   S    
C59   C60   S    
Cr8   O32   S    
C113  H1    S    
C100  O52   A    
Cr7   O27   S    
C4    O24   A    
C64   C80   A    
C107  O43   A    
Cr6   O26   S    
C1    C12   S    
C45   O29   A    
C106  O42   A    
Cr5   O25   S    
C2    C11   S    
C101  O5    A    
C110  C117  S    
C39   C91   S    
C72   C88   S    
C44   C103  S    
C25   H49   S    
C109  C118  S    
C80   H24   S    
C47   O35   A    
C111  C115  S    
C106  O14   A    
C63   C67   A    
C81   H25   S    
C90   O38   A    
C75   C95   A    
C51   C52   A    
C68   C84   S    
C7    C119  S    
Cr11  O19   S    
Cr7   O7    S    
C99   O51   A    
C21   C25   A    
C10   C14   A    
C3    O27   A    
Cr11  O39   S    
N1    H70   S    
C30   C34   S    
C102  O10   A    
N4    H76   S    
C6    H42   S    
C101  O9    A    
C14   C30   S    
Cr11  O15   S    
Cr10  O34   S    
C116  C120  S    
C115  C119  S    
C5    C117  S    
C68   C72   A    
Cr12  O20   S    
C50   C58   S    
C7    C116  S    
Cr4   O48   S    
Cr1   O41   S    
C31   H53   S    
C36   H64   S    
C6    C113  S    
C100  O48   A    
C69   C85   S    
C89   O37   A    
C84   N4    S    
C102  O6    A    
C34   H66   S    
C44   C52   A    
C65   C81   S    
C114  C118  S    
C20   C40   A    
C11   C27   A    
C88   H32   S    
Cr8   O28   S    
N2    H71   S    
C108  O44   A    
Cr7   O31   S    
C10   C26   A    
C114  H2    S    
C107  O15   A    
C82   H26   S    
Cr8   O52   S    
C30   H56   S    
C40   C92   S    
C92   O40   A    
C112  H40   S    
C18   C34   S    
C59   H9    S    
C108  O16   A    
C87   H35   S    
C95   C107  S    
C42   C50   A    
C71   C87   S    
C110  H38   S    
C47   O31   A    
C64   C97   S    
Cr4   O4    S    
C54   H6    S    
C61   C77   A    
C46   O34   A    
Cr11  O11   S    
C31   C35   S    
Cr10  O10   S    
C61   C100  S    
C51   C59   S    
C109  H37   S    
C17   C37   A    
C103  O11   A    
C48   O32   A    
C70   C86   S    
C42   C101  S    
C64   C68   A    
C16   C32   S    
C112  C116  S    
C77   H21   S    
C47   C119  S    
C2    O26   A    
Cr7   O51   S    
C98   O50   A    
C113  C117  S    
C1    O25   A    
C8    C120  S    
Cr3   O19   S    
C94   C106  S    
C3    O23   A    
Cr2   O18   S    
C73   H17   S    
C46   O30   A    
C5    H41   S    
C62   C78   A    
C78   H22   S    
C76   C80   A    
C103  O7    A    
N3    H74   S    
C105  O13   A    
C83   C87   S    
C9    C25   A    
C112  C119  S    
C97   O49   A    
C8    H44   S    
C15   C31   S    
C36   H68   S    
C116  H4    S    
C60   H16   S    
C37   C89   S    
Cr2   O42   S    
Cr1   O17   S    
C29   H55   S    
C38   C90   S    
Cr5   O29   S    
Cr3   O23   S    
C32   H54   S    
C13   C17   A    
C58   H14   S    
Cr6   O50   S    
C85   H33   S    
C110  C114  S    
Cr2   O2    S    
Cr5   O49   S    
C18   C38   A    
C74   H18   S    
Cr1   O1    S    
Cr11  O35   S    
C3    C10   S    
C82   C86   S    
C109  C110  S    
C76   C96   A    
C35   H63   S    
C44   C55   A    
C43   C51   A    
C57   C58   S    
N1    H69   S    
C84   C88   S    
C75   C79   A    
Cr6   O6    S    
C65   C69   A    
Cr9   O33   S    
C30   H58   S    
C21   H45   S    
C26   H50   S    
Cr12  O36   S    
Cr10  O14   S    
C67   C71   A    
Cr9   O9    S    
C4    O28   A    
C61   C65   A    
Cr9   O13   S    
C27   H51   S    
C41   C54   A    
Cr3   O47   S    
Cr9   O37   S    
C62   C66   A    
C79   H23   S    
C62   C99   S    
C20   C36   S    
C58   H12   S    
C43   C56   A    
C21   C37   A    
C66   C70   A    
C24   C40   A    
C73   C77   A    
C19   C39   A    
C49   C50   A    
C22   C26   A    
C91   O39   A    
C74   C94   A    
C70   C94   A    
Cr4   O24   S    
C104  O12   A    
C111  C120  S    
C19   C35   S    
Cr8   O8    S    
Cr3   O3    S    
C81   N1    S    
C4    C9    S    
C99   O47   A    
C6    C118  S    
C81   C85   S    
C66   C82   S    
C57   H11   S    
C86   H34   S    
C74   C78   A    
C90   O2    A    
C111  H39   S    
Cr5   O17   S    
