data_mof_unit_2032.cif
_audit_creation_date              2012-10-26T21:03:37-0400
_audit_creation_method            fapswitch 2.2
_symmetry_space_group_name_H-M    P1
_symmetry_Int_Tables_number       1
_space_group_crystal_system       triclinic
_cell_length_a                    15.986701
_cell_length_b                    14.72138
_cell_length_c                    10.768351
_cell_angle_alpha                 89.850693
_cell_angle_beta                  90.292436
_cell_angle_gamma                 89.880919
_cell_volume                      2534.24441059

loop_
_atom_site_label
_atom_site_type_symbol
_atom_type_description
_atom_site_fract_x
_atom_site_fract_y
_atom_site_fract_z
_atom_type_partial_charge
C1    C     C_R   0.340820 0.500108 0.500397 0.550724
C2    C     C_R   0.445991 0.951340 0.578295 -0.123573
C3    C     C_R   0.500516 0.902771 0.500971 -0.084268
C4    C     C_R   0.446064 0.048227 0.581102 0.250144
C5    C     C_R   0.555481 0.048056 0.424588 0.242033
C6    C     C_R   0.500005 0.096958 0.501458 0.041830
C7    C     C_1   0.500233 0.802767 0.500215 0.160877
C8    C     C_1   0.499887 0.197227 0.500531 0.285244
C9    C     C_R   0.511175 0.500140 0.261900 0.592282
C10   C     C_R   0.488799 0.499973 0.738074 0.598716
C11   C     C_R   0.547932 0.667630 0.106588 0.302632
C12   C     C_R   0.659188 0.499878 0.499898 0.549706
C13   C     C_R   0.448315 0.666475 0.891842 0.300440
C14   C     C_R   0.523216 0.749190 0.050731 -0.129936
C15   C     C_R   0.471117 0.748594 0.947034 -0.131627
C16   C     C_R   0.481029 0.583181 0.939915 -0.074479
C17   C     C_R   0.517031 0.583595 0.059356 -0.072483
C18   C     C_R   0.521781 0.500444 0.125732 -0.053602
C19   C     C_R   0.478113 0.499961 0.874202 -0.050595
C20   C     C_R   0.516729 0.417206 0.061036 0.210653
C21   C     C_R   0.484823 0.416897 0.939536 0.218446
C22   C     C_R   0.956243 0.563450 0.441248 0.264001
C23   C     C_R   0.956533 0.441095 0.597208 0.216945
C24   C     C_R   0.043595 0.563399 0.441503 0.261734
C25   C     C_R   0.912917 0.500761 0.515871 -0.063762
C26   C     C_R   0.087527 0.505900 0.523268 -0.070084
C27   C     C_3   0.683193 0.642274 0.164020 -0.093911
C28   C     C_3   0.313853 0.638259 0.833544 -0.085414
C29   C     C_3   0.111181 0.697187 0.408255 -0.088790
C30   C     C_3   0.879941 0.694253 0.419991 -0.117501
C31   C     C_3   0.687663 0.099038 0.397349 -0.095397
C32   C     C_3   0.385626 0.062879 0.775075 -0.057567
C33   C     C_R   0.044713 0.450245 0.609168 0.213821
C34   C     C_1   0.823188 0.499592 0.508383 0.066962
C35   C     C_1   0.177104 0.502538 0.513922 0.070607
C36   C     C_1   0.251934 0.500761 0.506550 0.051789
C37   C     C_1   0.748182 0.499617 0.503433 0.043966
C38   C     C_R   0.554712 0.951917 0.423906 -0.109046
Cu1   Cu    Cu3+1 0.500000 0.589220 0.500000 1.065643
Cu2   Cu    Cu3+1 0.500000 0.410780 0.500000 1.159118
H1    H     H_    0.544027 0.813336 0.088838 0.143918
H2    H     H_    0.290391 0.678892 0.913249 0.120714
H3    H     H_    0.315954 0.564922 0.858268 0.171884
H4    H     H_    0.268354 0.646155 0.756099 0.154680
H5    H     H_    0.149871 0.686449 0.493257 0.098391
H6    H     H_    0.056466 0.740775 0.429848 0.125957
H7    H     H_    0.150263 0.734577 0.340458 0.154890
H8    H     H_    0.918881 0.718256 0.499538 0.094351
H9    H     H_    0.815990 0.678453 0.453037 0.119786
H10   H     H_    0.874390 0.751504 0.353264 0.149554
H11   H     H_    0.927905 0.222060 0.757592 0.370660
H12   H     H_    0.448955 0.812251 0.908273 0.129041
H13   H     H_    0.078372 0.346112 0.916778 0.377683
H14   H     H_    0.715523 0.030237 0.409754 0.114927
H15   H     H_    0.686476 0.135892 0.487523 0.139206
H16   H     H_    0.728884 0.137619 0.333724 0.172306
H17   H     H_    0.448548 0.045741 0.813642 0.140991
H18   H     H_    0.343165 0.003389 0.779461 0.108414
H19   H     H_    0.358250 0.115942 0.835430 0.208144
H20   H     H_    0.596479 0.915760 0.362295 0.141956
H21   H     H_    0.402601 0.913321 0.634927 0.125925
H22   H     H_    0.656685 0.292451 0.268696 0.373596
H23   H     H_    0.341335 0.288069 0.741833 0.389019
H24   H     H_    0.705226 0.682674 0.082995 0.123844
H25   H     H_    0.682723 0.568663 0.141250 0.152489
H26   H     H_    0.728926 0.652023 0.240594 0.159683
N1    N     N_1   0.500000 0.276710 0.500000 -0.149385
N2    N     N_1   0.500000 0.723290 0.500000 -0.160123
O1    O     O_R   0.380310 0.575320 0.500020 -0.502029
O2    O     O_2   0.604031 0.262548 0.019348 -0.192716
O3    O     O_3   0.643542 0.348098 0.220482 -0.529526
O4    O     O_2   0.500035 0.260415 0.811905 -0.242047
O5    O     O_2   0.399957 0.261589 0.983589 -0.235648
O6    O     O_3   0.358756 0.345746 0.781324 -0.492652
O7    O     O_3   0.604089 0.672161 0.204670 -0.551749
O8    O     O_3   0.392466 0.669665 0.793224 -0.553565
O9    O     O_3   0.085796 0.614570 0.353836 -0.510013
O10   O     O_3   0.914347 0.618812 0.357154 -0.518528
O11   O     O_2   0.869755 0.390155 0.798061 -0.223557
O12   O     O_R   0.619690 0.575320 0.499980 -0.508108
O13   O     O_2   0.826652 0.322442 0.600835 -0.292884
O14   O     O_3   0.961351 0.261897 0.702761 -0.434300
O15   O     O_2   0.132971 0.305663 0.687585 -0.219037
O16   O     O_2   0.176748 0.453500 0.767538 -0.305279
O17   O     O_3   0.043498 0.382882 0.859242 -0.428628
O18   O     O_3   0.607167 0.094278 0.343780 -0.535964
O19   O     O_3   0.389860 0.097404 0.652827 -0.553036
O20   O     O_R   0.380310 0.424640 0.499960 -0.474624
O21   O     O_R   0.619690 0.424640 0.500040 -0.474197
O22   O     O_R   0.500000 0.575360 0.319640 -0.462549
O23   O     O_R   0.500000 0.575360 0.680360 -0.464695
O24   O     O_R   0.500000 0.424670 0.319580 -0.448011
O25   O     O_R   0.500000 0.424670 0.680420 -0.439765
O26   O     O_2   0.503623 0.260759 0.190438 -0.214282
S1    S     S_3+6 0.566403 0.317760 0.122125 0.100748
S2    S     S_3+6 0.436541 0.316789 0.879746 0.075630
S3    S     S_3+6 0.900538 0.353335 0.676480 0.081220
S4    S     S_3+6 0.102496 0.396613 0.731764 0.081016

loop_
_geom_bond_atom_site_label_1
_geom_bond_atom_site_label_2
_ccdc_geom_bond_type
C20   S1    S    
C34   C37   T    
Cu1   N2    S    
C35   C36   T    
C32   H18   S    
Cu2   O25   S    
C4    O19   S    
C29   H7    S    
C30   H8    S    
C19   C21   A    
C24   C26   A    
C3    C7    S    
C5    C6    A    
C11   C14   A    
O3    S1    S    
C22   C25   A    
C33   S4    S    
C12   C37   S    
O17   S4    S    
C7    N2    T    
C3    C38   A    
C16   C17   A    
C23   C33   A    
O15   S4    D    
C31   H16   S    
Cu1   O22   S    
C2    H21   S    
C25   C34   S    
C1    O20   A    
C30   H10   S    
C31   O18   S    
C5    C38   A    
C32   H17   S    
C27   O7    S    
C9    O24   A    
Cu1   O23   S    
O6    S2    S    
C12   O21   A    
C22   O10   S    
C4    C6    A    
Cu1   Cu2   S    
C6    C8    S    
C10   O25   A    
C32   O19   S    
Cu2   N1    S    
C1    O1    A    
C29   H5    S    
C30   O10   S    
C2    C4    A    
C27   H25   S    
C26   C35   S    
C26   C33   A    
C13   O8    S    
C10   C19   S    
C17   C18   A    
Cu1   O1    S    
C15   H12   S    
Cu2   O24   S    
H11   O14   S    
C14   H1    S    
C38   H20   S    
C5    O18   S    
H23   O6    S    
C30   H9    S    
C10   O23   A    
C13   C15   A    
Cu2   O21   S    
O14   S3    S    
C22   C24   A    
C28   O8    S    
C11   C17   A    
C23   S3    S    
O11   S3    D    
C9    O22   A    
C21   S2    S    
C28   H3    S    
O5    S2    D    
C29   H6    S    
O16   S4    D    
Cu1   O12   S    
Cu2   O20   S    
C2    C3    A    
C27   H26   S    
C11   O7    S    
O13   S3    D    
C9    C18   S    
C16   C19   A    
C12   O12   A    
C28   H2    S    
C28   H4    S    
H22   O3    S    
O2    S1    D    
C18   C20   A    
C23   C25   A    
C31   H14   S    
O26   S1    D    
C27   H24   S    
O4    S2    D    
C24   O9    S    
C29   O9    S    
C20   C21   A    
C8    N1    T    
C13   C16   A    
C14   C15   A    
H13   O17   S    
C32   H19   S    
C31   H15   S    
C1    C36   S    
