data_mof_unit_3763.cif
_audit_creation_date              2012-12-11T14:24:51-0500
_audit_creation_method            fapswitch 2.2
_symmetry_space_group_name_H-M    P1
_symmetry_Int_Tables_number       1
_space_group_crystal_system       triclinic
_cell_length_a                    19.204326
_cell_length_b                    10.961911
_cell_length_c                    18.851349
_cell_angle_alpha                 89.06792
_cell_angle_beta                  91.49626
_cell_angle_gamma                 90.678226
_cell_volume                      3966.37607942

loop_
_atom_site_label
_atom_site_type_symbol
_atom_type_description
_atom_site_fract_x
_atom_site_fract_y
_atom_site_fract_z
_atom_type_partial_charge
C1    C     C_R   0.729894 0.376437 0.146296 0.534879
C2    C     C_R   0.240282 0.906413 0.070671 0.003775
C3    C     C_R   0.697491 0.608609 0.407824 -0.078821
C4    C     C_R   0.944158 0.001513 0.509206 -0.148265
C5    C     C_R   0.142175 0.179456 0.426934 -0.111812
C6    C     C_R   0.444164 0.501479 0.509197 -0.148355
C7    C     C_R   0.642142 0.679429 0.426963 -0.111707
C8    C     C_R   0.939710 0.954590 0.441273 -0.110447
C9    C     C_R   0.115147 0.165349 0.494212 -0.145189
C10   C     C_R   0.439711 0.454564 0.441262 -0.110318
C11   C     C_R   0.615116 0.665309 0.494240 -0.145264
C12   C     C_R   0.876753 0.906739 0.415955 -0.070716
C13   C     C_R   0.250250 0.414793 0.925035 -0.004165
C14   C     C_R   0.145204 0.085097 0.543237 -0.076641
C15   C     C_R   0.376752 0.406720 0.415947 -0.070685
C16   C     C_R   0.645175 0.585045 0.543258 -0.076622
C17   C     C_R   0.749933 0.918168 0.426223 -0.016582
C18   C     C_R   0.238834 0.933854 0.572941 -0.026985
C19   C     C_R   0.249934 0.418172 0.426221 -0.016754
C20   C     C_R   0.738819 0.433824 0.572952 -0.026954
C21   C     C_R   0.730447 0.375145 0.355284 0.526111
C22   C     C_R   0.271387 0.380398 0.645259 0.576016
C23   C     C_R   0.230450 0.875151 0.355280 0.526300
C24   C     C_R   0.747177 0.412146 0.073134 -0.005490
C25   C     C_R   0.771385 0.880404 0.645262 0.576123
C26   C     C_R   0.561544 0.150539 0.361384 0.545832
C27   C     C_R   0.444152 0.154050 0.638429 0.541164
C28   C     C_R   0.061547 0.650541 0.361384 0.546101
C29   C     C_R   0.944155 0.654053 0.638429 0.541961
C30   C     C_R   0.742613 0.966581 0.354797 0.512637
C31   C     C_R   0.255764 0.972587 0.644157 0.529231
C32   C     C_R   0.242614 0.466580 0.354796 0.512486
C33   C     C_R   0.755760 0.472576 0.644163 0.529447
C34   C     C_3   0.497451 0.280473 0.975114 -0.115333
C35   C     C_R   0.694844 0.870897 0.961078 -0.014228
C36   C     C_3   0.449798 0.221498 0.031552 -0.137902
C37   C     C_3   0.019481 0.769725 0.971251 -0.131157
C38   C     C_3   0.963680 0.752709 0.028664 -0.133536
C39   C     C_3   0.562067 0.222721 0.012608 -0.122684
C40   C     C_3   0.441672 0.106410 0.985711 -0.104893
C41   C     C_3   0.067961 0.679805 0.012285 -0.116968
C42   C     C_3   0.931673 0.643957 0.987295 -0.105921
C43   C     C_3   0.513796 0.163565 0.067618 0.042304
C44   C     C_3   0.489811 0.164715 0.930445 0.051776
C45   C     C_3   0.011649 0.662844 0.068441 0.043837
C46   C     C_R   0.303878 0.882181 0.039325 -0.011783
C47   C     C_3   0.988102 0.661046 0.931211 0.052779
C48   C     C_R   0.199238 0.350880 0.964932 -0.010816
C49   C     C_R   0.802892 0.359164 0.036759 -0.000689
C50   C     C_R   0.694895 0.862631 0.036359 0.016415
C51   C     C_R   0.305742 0.867749 0.964883 0.002522
C52   C     C_R   0.204484 0.350171 0.040178 0.010127
C53   C     C_R   0.269701 0.376386 0.853419 0.542955
C54   C     C_R   0.799383 0.354189 0.961580 0.011872
C55   C     C_R   0.807989 0.962924 0.040526 -0.155621
C56   C     C_R   0.185999 0.929876 0.953812 -0.150175
C57   C     C_R   0.296330 0.502903 0.033131 -0.155658
C58   C     C_R   0.694309 0.473155 0.961080 -0.157968
C59   C     C_R   0.811545 0.956098 0.967973 -0.147286
C60   C     C_R   0.181114 0.925480 0.026691 -0.151594
C61   C     C_R   0.296978 0.492714 0.960399 -0.154409
C62   C     C_R   0.694334 0.470089 0.033786 -0.165155
C63   C     C_R   0.636891 0.827293 0.921921 -0.066619
C64   C     C_R   0.228059 0.874500 0.145321 0.531625
C65   C     C_R   0.363547 0.857639 0.081215 -0.079123
C66   C     C_R   0.143869 0.285637 0.932525 -0.061783
C67   C     C_R   0.861051 0.308155 0.072747 -0.078703
C68   C     C_R   0.104502 0.202265 0.971360 0.139067
C69   C     C_R   0.907602 0.235571 0.037156 0.111755
C70   C     C_R   0.592267 0.742320 0.951888 0.113015
C71   C     C_R   0.413284 0.780049 0.056065 0.094938
C72   C     C_R   0.596620 0.721155 0.025284 -0.099077
C73   C     C_R   0.409954 0.748304 0.984597 -0.096296
C74   C     C_R   0.117159 0.189116 0.044503 -0.067000
C75   C     C_R   0.770667 0.875958 0.853774 0.537770
C76   C     C_R   0.897985 0.218761 0.964355 -0.080291
C77   C     C_R   0.644277 0.786701 0.067988 -0.111172
C78   C     C_R   0.360434 0.800001 0.937790 -0.119021
C79   C     C_R   0.165162 0.264500 0.078962 -0.113302
C80   C     C_R   0.845548 0.278809 0.926625 -0.115206
C81   C     C_R   0.534133 0.155585 0.143168 0.558168
C82   C     C_R   0.467362 0.155699 0.855798 0.556995
C83   C     C_R   0.032648 0.655671 0.143926 0.553968
C84   C     C_R   0.967533 0.655164 0.855829 0.555284
C85   C     C_R   0.749200 0.921882 0.076061 0.002051
C86   C     C_3   0.506150 0.048685 0.022350 -0.094945
C87   C     C_R   0.249211 0.910807 0.921911 0.000249
C88   C     C_R   0.250104 0.433257 0.074187 0.000103
C89   C     C_R   0.748154 0.421537 0.923837 -0.001098
C90   C     C_R   0.472982 0.154217 0.566702 0.005583
C91   C     C_R   0.537331 0.144414 0.434827 -0.005816
C92   C     C_R   0.972983 0.654233 0.566701 0.005650
C93   C     C_R   0.037339 0.644424 0.434829 -0.005804
C94   C     C_R   0.466291 0.046874 0.524981 0.015437
C95   C     C_R   0.504370 0.036253 0.463050 0.034305
C96   C     C_R   0.966290 0.546897 0.524979 0.015472
C97   C     C_3   0.553831 0.107758 0.966583 -0.124972
C98   C     C_R   0.004379 0.536266 0.463055 0.034282
C99   C     C_R   0.545825 0.247062 0.477507 -0.171155
C100  C     C_R   0.515706 0.250330 0.543826 -0.141001
C101  C     C_R   0.045825 0.747081 0.477506 -0.171077
C102  C     C_R   0.015705 0.750350 0.543824 -0.140983
C103  C     C_R   0.425295 0.945737 0.545947 -0.095951
C104  C     C_R   0.507206 0.917002 0.432454 -0.092472
C105  C     C_R   0.925281 0.445775 0.545936 -0.096144
C106  C     C_R   0.007221 0.417012 0.432468 -0.092148
C107  C     C_R   0.929347 0.332605 0.515320 -0.134089
C108  C     C_3   0.980161 0.554340 0.027990 -0.100715
C109  C     C_R   0.967763 0.319620 0.456222 -0.153920
C110  C     C_R   0.429353 0.832576 0.515319 -0.133877
C111  C     C_R   0.467754 0.819606 0.456209 -0.154195
C112  C     C_R   0.762862 0.923047 0.572536 0.055775
C113  C     C_R   0.249866 0.907725 0.427627 0.015480
C114  C     C_R   0.262867 0.423038 0.572533 0.055844
C115  C     C_R   0.749853 0.407713 0.427636 0.015640
C116  C     C_R   0.823059 0.939896 0.529441 0.027822
C117  C     C_R   0.220770 0.013794 0.453620 -0.000110
C118  C     C_R   0.323064 0.439876 0.529436 0.027648
C119  C     C_3   0.035933 0.571377 0.971150 -0.105381
C120  C     C_R   0.720743 0.513768 0.453635 -0.000234
C121  C     C_R   0.816638 0.913046 0.457388 0.021915
C122  C     C_R   0.202360 0.013159 0.524777 0.027155
C123  C     C_R   0.316638 0.413032 0.457383 0.021784
C124  C     C_R   0.702334 0.513118 0.524791 0.027159
C125  C     C_R   0.691114 0.929984 0.468813 -0.140794
C126  C     C_R   0.270733 0.832486 0.548294 -0.128739
C127  C     C_R   0.191118 0.430009 0.468813 -0.140785
C128  C     C_R   0.770724 0.332465 0.548303 -0.128807
C129  C     C_R   0.741062 0.969142 0.148412 0.539913
C130  C     C_R   0.755275 0.911783 0.926773 -0.001958
C131  C     C_R   0.258533 0.967210 0.851075 0.538108
C132  C     C_R   0.241317 0.471578 0.147919 0.535769
C133  C     C_R   0.758137 0.468584 0.851257 0.537220
C134  C     C_R   0.696908 0.926568 0.541896 0.066972
C135  C     C_R   0.272823 0.814822 0.476353 0.054914
C136  C     C_R   0.196913 0.426582 0.541894 0.067038
C137  C     C_R   0.772816 0.314811 0.476360 0.055021
C138  C     C_R   0.887225 0.993021 0.553373 -0.073362
C139  C     C_R   0.197522 0.108630 0.407801 -0.078935
C140  C     C_R   0.387233 0.492989 0.553367 -0.073420
Cr1   Cr    Cr6+3 0.772820 0.169820 0.252640 0.991650
Cr2   Cr    Cr6+3 0.383280 0.011130 0.749340 1.009699
Cr3   Cr    Cr6+3 0.116720 0.511130 0.250660 0.989042
Cr4   Cr    Cr6+3 0.883280 0.511130 0.749340 1.006944
Cr5   Cr    Cr6+3 0.227180 0.169820 0.747360 1.014054
Cr6   Cr    Cr6+3 0.272820 0.669820 0.252640 0.991565
Cr7   Cr    Cr6+3 0.727180 0.669820 0.747360 1.012159
Cr8   Cr    Cr6+3 0.615040 0.323610 0.249150 1.003520
Cr9   Cr    Cr6+3 0.384960 0.323610 0.750850 1.007703
Cr10  Cr    Cr6+3 0.115040 0.823610 0.249150 0.997549
Cr11  Cr    Cr6+3 0.884960 0.823610 0.750850 1.002912
Cr12  Cr    Cr6+3 0.616720 0.011130 0.250660 0.986575
H1    H     H_    0.612183 0.268897 0.025729 0.133274
H2    H     H_    0.542612 0.889452 0.393062 0.143794
H3    H     H_    0.890015 0.451799 0.586622 0.176927
H4    H     H_    0.042635 0.389462 0.393082 0.143765
H5    H     H_    0.902677 0.254499 0.537643 0.136858
H6    H     H_    0.970780 0.231605 0.431270 0.113857
H7    H     H_    0.402688 0.754465 0.537643 0.137021
H8    H     H_    0.470767 0.731595 0.431250 0.113968
H9    H     H_    0.641101 0.950181 0.445493 0.126417
H10   H     H_    0.292541 0.765426 0.585272 0.132976
H11   H     H_    0.141109 0.450235 0.445495 0.126336
H12   H     H_    0.391436 0.060970 0.972500 0.137773
H13   H     H_    0.792539 0.265410 0.585279 0.132553
H14   H     H_    0.893327 0.038238 0.603622 0.136994
H15   H     H_    0.216660 0.118837 0.354434 0.119935
H16   H     H_    0.393340 0.538202 0.603617 0.137619
H17   H     H_    0.716629 0.618833 0.354458 0.120830
H18   H     H_    0.992068 0.043251 0.528347 0.097802
H19   H     H_    0.119673 0.242543 0.388651 0.107646
H20   H     H_    0.492076 0.543205 0.528339 0.097966
H21   H     H_    0.619638 0.742520 0.388684 0.107967
H22   H     H_    0.984274 0.959346 0.407325 0.128034
H23   H     H_    0.124472 0.692073 0.024179 0.127636
H24   H     H_    0.071154 0.216358 0.509642 0.107945
H25   H     H_    0.484274 0.459317 0.407312 0.128310
H26   H     H_    0.571122 0.716313 0.509674 0.108076
H27   H     H_    0.873508 0.875911 0.361642 0.125932
H28   H     H_    0.118854 0.073955 0.592851 0.141310
H29   H     H_    0.373503 0.375898 0.361633 0.126117
H30   H     H_    0.618827 0.573890 0.592873 0.141521
H31   H     H_    0.494432 0.375506 0.954213 0.111468
H32   H     H_    0.407118 0.267156 0.059111 0.116691
H33   H     H_    0.034627 0.855929 0.944518 0.096887
H34   H     H_    0.875293 0.628543 0.975534 0.126912
H35   H     H_    0.934624 0.826366 0.053968 0.104915
H36   H     H_    0.511100 0.953684 0.042398 0.176130
H37   H     H_    0.596683 0.064701 0.938261 0.119306
H38   H     H_    0.965292 0.466644 0.053287 0.150627
H39   H     H_    0.065479 0.498031 0.946158 0.131683
H40   H     H_    0.851912 0.001874 0.069165 0.139875
H41   H     H_    0.140284 0.949145 0.921701 0.127380
H42   H     H_    0.332246 0.567490 0.057167 0.157130
H43   H     H_    0.652129 0.519288 0.933870 0.152264
H44   H     H_    0.629062 0.850094 0.866297 0.143156
H45   H     H_    0.575890 0.325256 0.459341 0.136950
H46   H     H_    0.367781 0.886396 0.135808 0.128977
H47   H     H_    0.129476 0.299446 0.877246 0.145726
H48   H     H_    0.872155 0.326560 0.128018 0.130906
H49   H     H_    0.860564 0.981021 0.944625 0.140850
H50   H     H_    0.129727 0.932307 0.048282 0.136603
H51   H     H_    0.336384 0.543109 0.931864 0.137971
H52   H     H_    0.649591 0.506379 0.059086 0.140806
H53   H     H_    0.089377 0.121781 0.075523 0.133470
H54   H     H_    0.929577 0.156989 0.936149 0.154906
H55   H     H_    0.565102 0.650193 0.048801 0.139065
H56   H     H_    0.525513 0.328515 0.577121 0.137799
H57   H     H_    0.442405 0.677664 0.966518 0.155772
H58   H     H_    0.645925 0.766873 0.124370 0.137869
H59   H     H_    0.360118 0.773414 0.882772 0.140600
H60   H     H_    0.172997 0.251720 0.135610 0.126589
H61   H     H_    0.839348 0.260273 0.870626 0.132266
H62   H     H_    0.617051 0.029924 0.572199 0.239953
H63   H     H_    0.599589 0.878894 0.572803 0.239591
H64   H     H_    0.333257 0.702134 0.421291 0.281288
H65   H     H_    0.246760 0.659784 0.431411 0.260618
H66   H     H_    0.117064 0.529957 0.572202 0.239995
H67   H     H_    0.075887 0.825278 0.459337 0.137059
H68   H     H_    0.099590 0.378930 0.572799 0.239393
H69   H     H_    0.833261 0.202152 0.421293 0.281307
H70   H     H_    0.746767 0.159778 0.431411 0.260586
H71   H     H_    0.070714 0.099034 0.888545 0.224437
H72   H     H_    0.037724 0.057234 0.967252 0.211095
H73   H     H_    0.963008 0.195789 0.128940 0.219010
H74   H     H_    0.959333 0.084001 0.069246 0.206462
H75   H     H_    0.574602 0.650053 0.860369 0.237500
H76   H     H_    0.538250 0.585917 0.930631 0.195581
H77   H     H_    0.460445 0.762016 0.154634 0.230124
H78   H     H_    0.025508 0.828539 0.577118 0.137677
H79   H     H_    0.449629 0.632425 0.109192 0.221315
H80   H     H_    0.390045 0.951732 0.586650 0.176919
N1    N     N_3   0.637589 0.944291 0.585052 -0.614414
N2    N     N_3   0.291449 0.696270 0.455526 -0.624536
N3    N     N_3   0.137595 0.444316 0.585051 -0.614049
N4    N     N_3   0.791454 0.196268 0.455528 -0.624547
N5    N     N_3   0.051402 0.132383 0.935670 -0.650929
N6    N     N_3   0.964503 0.178338 0.074638 -0.636393
N7    N     N_3   0.547690 0.670547 0.906145 -0.652377
N8    N     N_3   0.463084 0.724785 0.104062 -0.659952
O1    O     O_R   0.788190 0.043000 0.172520 -0.519942
O2    O     O_R   0.454170 0.051610 0.669840 -0.522589
O3    O     O_R   0.045830 0.551610 0.330160 -0.537958
O4    O     O_R   0.954170 0.551610 0.669840 -0.522931
O5    O     O_R   0.681920 0.959720 0.327070 -0.539995
O6    O     O_R   0.318080 0.959720 0.672930 -0.542974
O7    O     O_R   0.181920 0.459720 0.327070 -0.540231
O8    O     O_R   0.818080 0.459720 0.672930 -0.543583
O9    O     O_3   0.668190 0.168190 0.250820 -0.262571
O10   O     O_3   0.331810 0.168190 0.749180 -0.265068
O11   O     O_3   0.168190 0.668190 0.250820 -0.263078
O12   O     O_R   0.211810 0.043000 0.827480 -0.522555
O13   O     O_3   0.831810 0.668190 0.749180 -0.264020
O14   O     O_R   0.766240 0.292300 0.176860 -0.505996
O15   O     O_R   0.233760 0.292300 0.823140 -0.511483
O16   O     O_R   0.266240 0.792300 0.176860 -0.502719
O17   O     O_R   0.733760 0.792300 0.823140 -0.508720
O18   O     O_R   0.670310 0.409160 0.168720 -0.528360
O19   O     O_R   0.329690 0.409160 0.831280 -0.523173
O20   O     O_R   0.170310 0.909160 0.168720 -0.532653
O21   O     O_R   0.829690 0.909160 0.831280 -0.529328
O22   O     O_R   0.556160 0.251900 0.173380 -0.498226
O23   O     O_R   0.288190 0.543000 0.172520 -0.524853
O24   O     O_R   0.443840 0.251900 0.826620 -0.502102
O25   O     O_R   0.056160 0.751900 0.173380 -0.502276
O26   O     O_R   0.943840 0.751900 0.826620 -0.502464
O27   O     O_R   0.545410 0.050140 0.168240 -0.517869
O28   O     O_R   0.454590 0.050140 0.831760 -0.504643
O29   O     O_R   0.045410 0.550140 0.168240 -0.513242
O30   O     O_R   0.954590 0.550140 0.831760 -0.507116
O31   O     O_R   0.681530 0.958350 0.176970 -0.508365
O32   O     O_R   0.318470 0.958350 0.823030 -0.508216
O33   O     O_R   0.181530 0.458350 0.176970 -0.503677
O34   O     O_R   0.711810 0.543000 0.827480 -0.528325
O35   O     O_R   0.818470 0.458350 0.823030 -0.505207
O36   O     O_R   0.788610 0.044480 0.334450 -0.529416
O37   O     O_R   0.211390 0.044480 0.665550 -0.530100
O38   O     O_R   0.288610 0.544480 0.334450 -0.528475
O39   O     O_R   0.711390 0.544480 0.665550 -0.529525
O40   O     O_R   0.766630 0.293670 0.326970 -0.513713
O41   O     O_R   0.233370 0.293670 0.673030 -0.469996
O42   O     O_R   0.266630 0.793670 0.326970 -0.513338
O43   O     O_R   0.733370 0.793670 0.673030 -0.469890
O44   O     O_R   0.670730 0.410640 0.330640 -0.531503
O45   O     O_R   0.556550 0.253260 0.323480 -0.496663
O46   O     O_R   0.329270 0.410640 0.669360 -0.560517
O47   O     O_R   0.170730 0.910640 0.330640 -0.531456
O48   O     O_R   0.829270 0.910640 0.669360 -0.560559
O49   O     O_R   0.443450 0.253260 0.676520 -0.502885
O50   O     O_R   0.056550 0.753260 0.323480 -0.496868
O51   O     O_R   0.943450 0.753260 0.676520 -0.502721
O52   O     O_R   0.545830 0.051610 0.330160 -0.538184

loop_
_geom_bond_atom_site_label_1
_geom_bond_atom_site_label_2
_ccdc_geom_bond_type
C50   C77   A    
C55   C59   A    
Cr1   O9    S    
Cr5   O12   S    
H63   N1    S    
C100  H56   S    
Cr12  O52   S    
C86   H36   S    
H70   N4    S    
Cr3   O11   S    
C133  O35   A    
C26   O52   A    
C16   H30   S    
C136  N3    S    
C58   H43   S    
C27   C90   S    
C40   C86   S    
C110  C111  A    
C38   C45   S    
C22   O46   A    
C25   C112  S    
C85   C129  S    
C37   H33   S    
Cr2   O6    S    
C45   C108  S    
C92   C102  A    
Cr11  O13   S    
C17   C30   S    
C117  C139  A    
C118  C140  A    
C19   C32   S    
C107  H5    S    
C76   H54   S    
C79   H60   S    
C116  C121  A    
C83   O25   A    
C127  C136  A    
C46   C65   A    
C67   H48   S    
C93   C101  A    
C71   C73   A    
C3    H17   S    
Cr4   O30   S    
C111  H8    S    
C37   C38   S    
C129  O31   A    
C23   C113  S    
C101  H67   S    
Cr6   O23   S    
C139  H15   S    
Cr10  O25   S    
Cr12  O5    S    
C18   C122  A    
C132  O23   A    
C20   C33   S    
C60   H50   S    
C74   C79   A    
H69   N4    S    
H62   N1    S    
C27   O2    A    
C1    O14   A    
C1    O18   A    
C23   O42   A    
Cr9   O10   S    
Cr5   O37   S    
C112  C134  A    
C57   C61   A    
C3    C7    A    
C98   C106  A    
Cr6   O11   S    
C71   N8    S    
C25   O48   A    
C16   C124  A    
C51   C78   A    
Cr4   O4    S    
C58   C89   A    
C48   C52   A    
C113  C135  A    
C102  H78   S    
C114  C136  A    
C63   H44   S    
C35   C63   A    
C18   C31   S    
Cr8   O22   S    
C14   H28   S    
C75   O21   A    
Cr5   O41   S    
C6    H20   S    
C105  C107  A    
C19   C123  A    
C4    H18   S    
C9    H24   S    
C103  C110  A    
Cr1   O14   S    
C73   H57   S    
Cr2   O28   S    
H66   N3    S    
C40   H12   S    
C8    H22   S    
C68   C74   A    
C92   C96   A    
C33   O8    A    
C87   C131  S    
C86   C97   S    
C12   C121  A    
C115  C137  A    
C96   C98   A    
C25   O43   A    
C52   C79   A    
C97   H37   S    
C108  H38   S    
C45   C83   S    
C5    C139  A    
C89   C133  S    
C34   C39   S    
C52   C88   A    
C26   O45   A    
H71   N5    S    
Cr2   O2    S    
C46   C51   A    
Cr7   O13   S    
H79   N8    S    
C117  C122  A    
C5    C9    A    
Cr11  O26   S    
C8    C12   A    
C135  N2    S    
C84   O26   A    
C34   H31   S    
C35   C130  A    
C62   H52   S    
C77   H58   S    
C113  C117  A    
C105  H3    S    
C106  H4    S    
C82   O24   A    
C128  H13   S    
Cr10  O50   S    
Cr3   O3    S    
C112  C116  A    
C24   C62   A    
Cr3   O29   S    
C10   H25   S    
C76   C80   A    
H74   N6    S    
C80   H61   S    
C57   H42   S    
C138  H14   S    
C18   C126  A    
C43   C81   S    
C132  O33   A    
C34   C36   S    
C37   C41   S    
C20   C124  A    
C91   C95   A    
C65   H46   S    
C22   C114  S    
C1    C24   S    
C70   N7    S    
C81   O27   A    
C82   O28   A    
C91   C99   A    
Cr6   O38   S    
C106  C109  A    
C125  C134  A    
C58   C62   A    
C96   C105  A    
C30   O36   A    
C101  C102  A    
C14   C122  A    
H64   N2    S    
Cr9   O46   S    
H68   N3    S    
C21   C115  S    
C131  O12   A    
Cr8   O9    S    
C39   H1    S    
Cr2   O10   S    
C44   C82   S    
C68   N5    S    
C2    C60   A    
C39   C97   S    
Cr12  O31   S    
C103  H80   S    
Cr9   O19   S    
C50   C85   A    
C75   O17   A    
C31   O6    A    
C49   C67   A    
C69   N6    S    
C13   C53   S    
Cr6   O42   S    
C75   C130  S    
C41   H23   S    
H73   N6    S    
C107  C109  A    
C108  C119  S    
C90   C94   A    
C54   C80   A    
C32   O7    A    
C26   C91   S    
Cr1   O1    S    
C56   C60   A    
C28   C93   S    
C55   C85   A    
C9    C14   A    
C104  C111  A    
Cr7   O43   S    
C11   C16   A    
H75   N7    S    
C47   C84   S    
C27   O49   A    
C137  N4    S    
C17   C121  A    
C126  C135  A    
Cr8   O45   S    
C32   O38   A    
C127  H11   S    
C43   C86   S    
C125  H9    S    
Cr1   O40   S    
H65   N2    S    
C6    C10   A    
C38   C42   S    
C84   O30   A    
C55   H40   S    
C41   C45   S    
C129  O1    A    
C15   H29   S    
C29   O4    A    
Cr3   O7    S    
C54   C89   A    
Cr11  O51   S    
C118  C123  A    
C6    C140  A    
C94   C95   A    
Cr11  O21   S    
C4    C138  A    
Cr3   O33   S    
Cr5   O15   S    
C36   C43   S    
C53   O15   A    
C104  H2    S    
C78   H59   S    
C29   C92   S    
C38   H35   S    
C23   O47   A    
C140  H16   S    
C66   C68   A    
C59   C130  A    
Cr7   O17   S    
C53   O19   A    
C30   O5    A    
C4    C8    A    
Cr11  O48   S    
Cr10  O11   S    
C2    C46   A    
C7    C11   A    
C15   C123  A    
C69   C76   A    
Cr4   O35   S    
C21   O44   A    
C119  H39   S    
C20   C128  A    
C10   C15   A    
C49   C54   A    
C83   O29   A    
Cr10  O20   S    
C73   C78   A    
C36   H32   S    
C28   O3    A    
H72   N5    S    
C29   O51   A    
Cr9   O24   S    
C66   H47   S    
C42   H34   S    
C47   C119  S    
C81   O22   A    
C109  H6    S    
C90   C100  A    
Cr12  O9    S    
C2    C64   S    
C72   H55   S    
C116  C138  A    
Cr12  O27   S    
Cr9   O49   S    
C131  O32   A    
Cr5   O10   S    
C36   C40   S    
C34   C44   S    
H76   N7    S    
C21   O40   A    
C51   C87   A    
C56   C87   A    
C39   C43   S    
C65   C71   A    
C41   C119  S    
C67   C69   A    
C128  C137  A    
C72   C77   A    
C44   C97   S    
C59   H49   S    
C99   C100  A    
C63   C70   A    
C40   C44   S    
C99   H45   S    
C35   C50   A    
C5    H19   S    
C11   H26   S    
H77   N8    S    
C114  C118  A    
Cr4   O8    S    
C37   C47   S    
Cr10  O47   S    
C88   C132  S    
C95   C104  A    
C33   O39   A    
C24   C49   A    
C133  O34   A    
Cr8   O44   S    
Cr6   O16   S    
Cr8   O18   S    
C22   O41   A    
C94   C103  A    
C13   C48   A    
Cr7   O39   S    
Cr4   O13   S    
C57   C88   A    
C48   C66   A    
C28   O50   A    
C61   H51   S    
C17   C125  A    
C7    H21   S    
C19   C127  A    
C134  N1    S    
C42   C47   S    
C31   O37   A    
Cr2   O32   S    
Cr7   O34   S    
C3    C120  A    
C56   H41   S    
C64   O20   A    
C12   H27   S    
C13   C61   A    
C115  C120  A    
C70   C72   A    
Cr1   O36   S    
C126  H10   S    
C42   C108  S    
C93   C98   A    
C74   H53   S    
C110  H7    S    
C120  C124  A    
C64   O16   A    
