data_mof_unit_1587.cif
_audit_creation_date              2012-12-10T19:14:26-0500
_audit_creation_method            fapswitch 2.2
_symmetry_space_group_name_H-M    P1
_symmetry_Int_Tables_number       1
_space_group_crystal_system       triclinic
_cell_length_a                    16.003615
_cell_length_b                    14.777035
_cell_length_c                    10.77692
_cell_angle_alpha                 89.937234
_cell_angle_beta                  90.069672
_cell_angle_gamma                 89.648563
_cell_volume                      2548.53909997

loop_
_atom_site_label
_atom_site_type_symbol
_atom_type_description
_atom_site_fract_x
_atom_site_fract_y
_atom_site_fract_z
_atom_type_partial_charge
C1    C     C_R   0.341000 0.500250 0.500122 0.798283
C2    C     C_R   0.659093 0.499827 0.499932 0.823372
C3    C     C_R   0.956295 0.414030 0.501547 0.123810
C4    C     C_R   0.044873 0.413424 0.501311 0.134862
C5    C     C_1   0.823072 0.499479 0.498167 0.034005
C6    C     C_1   0.177324 0.499693 0.502016 0.033116
C7    C     C_1   0.252191 0.500694 0.501015 -0.200093
C8    C     C_1   0.748097 0.499730 0.499097 -0.193601
C9    C     C_R   0.577013 0.951402 0.502483 0.327006
C10   C     C_R   0.425091 0.952055 0.509578 0.309501
C11   C     C_R   0.500970 0.902671 0.505096 -0.278032
C12   C     C_R   0.425018 0.048374 0.512535 0.299040
C13   C     C_R   0.576469 0.047563 0.503136 0.335232
C14   C     C_R   0.500554 0.097001 0.505112 -0.282762
C15   C     C_1   0.500234 0.802562 0.501730 0.258677
C16   C     C_1   0.500172 0.197352 0.501788 0.280588
C17   C     C_R   0.497321 0.500077 0.262019 0.789235
C18   C     C_R   0.497536 0.500002 0.737958 0.787760
C19   C     C_R   0.358331 0.585279 0.128827 -0.172534
C20   C     C_R   0.358829 0.585788 0.869773 -0.174796
C21   C     C_R   0.292731 0.625754 0.063476 -0.140181
C22   C     C_R   0.293142 0.626329 0.934375 -0.142659
C23   C     C_R   0.426022 0.544324 0.934079 0.095474
C24   C     C_R   0.425884 0.544268 0.065208 0.093132
C25   C     C_R   0.491973 0.500054 0.128591 -0.094710
C26   C     C_R   0.492078 0.499911 0.871302 -0.095101
C27   C     C_R   0.554250 0.453418 0.064164 -0.197815
C28   C     C_R   0.554267 0.453285 0.936246 -0.205400
C29   C     C_R   0.956529 0.579787 0.493323 0.341836
C30   C     C_R   0.043478 0.579541 0.505754 0.334909
C31   C     C_R   0.912982 0.497566 0.497046 -0.096787
C32   C     C_R   0.087679 0.496999 0.503362 -0.090698
Cu1   Cu    Cu3+1 0.500000 0.589220 0.500000 0.965561
Cu2   Cu    Cu3+1 0.500000 0.410780 0.500000 0.976406
H1    H     H_    0.604033 0.418468 0.113334 0.148724
H2    H     H_    0.604055 0.418235 0.887490 0.144680
H3    H     H_    0.354520 0.584812 0.228987 0.143864
H4    H     H_    0.355352 0.585722 0.769589 0.141292
H5    H     H_    0.240802 0.655710 0.113161 0.141283
H6    H     H_    0.241851 0.657278 0.883990 0.132999
N1    N     N_1   0.500000 0.276710 0.500000 -0.166081
N2    N     N_1   0.500000 0.723290 0.500000 -0.171556
O1    O     O_R   0.380310 0.575320 0.500020 -0.583776
O2    O     O_R   0.619690 0.575320 0.499980 -0.570207
O3    O     O_R   0.380310 0.424640 0.499960 -0.567922
O4    O     O_R   0.619690 0.424640 0.500040 -0.571159
O5    O     O_R   0.500000 0.575360 0.319640 -0.576838
O6    O     O_R   0.500000 0.575360 0.680360 -0.579816
O7    O     O_R   0.500000 0.424670 0.319580 -0.567090
O8    O     O_R   0.500000 0.424670 0.680420 -0.578617
O9    O     O_3   0.085480 0.661251 0.509651 -0.604266
C33   C     C_3   0.109949 0.680631 0.633192 0.068959
H7    H     H_    0.168858 0.719858 0.628817 0.160799
H8    H     H_    0.124187 0.619071 0.689764 0.121147
C34   C     C_3   0.043260 0.738303 0.698044 -0.318487
H9    H     H_    0.029224 0.799175 0.640811 0.233909
H10   H     H_    0.985084 0.698418 0.708283 0.238667
C35   C     C_3   0.072104 0.768119 0.826611 -0.963345
H11   H     H_    0.129982 0.808913 0.819534 0.261818
H12   H     H_    0.084185 0.708173 0.886437 0.257517
H13   H     H_    0.022621 0.810171 0.870559 0.263239
O10   O     O_3   0.913977 0.661656 0.488029 -0.601397
C36   C     C_3   0.890782 0.680877 0.363774 0.076391
H14   H     H_    0.833769 0.724037 0.366631 0.168827
H15   H     H_    0.873704 0.619407 0.309472 0.122935
C37   C     C_3   0.960130 0.732865 0.297097 -0.327375
H16   H     H_    0.978840 0.792106 0.354007 0.242117
H17   H     H_    0.015345 0.687899 0.284917 0.227453
C38   C     C_3   0.931705 0.765671 0.169460 -0.940195
H18   H     H_    0.877560 0.812587 0.178478 0.265697
H19   H     H_    0.913762 0.707319 0.110453 0.260092
H20   H     H_    0.983648 0.802191 0.123510 0.261707
C39   C     C_3   0.906152 0.327457 0.507000 -0.833497
H21   H     H_    0.944063 0.264804 0.513082 0.235494
H22   H     H_    0.865683 0.329616 0.590427 0.234588
H23   H     H_    0.866220 0.322176 0.423008 0.232400
C40   C     C_3   0.092491 0.324322 0.499439 -0.828850
H24   H     H_    0.073818 0.284421 0.416800 0.233922
H25   H     H_    0.161131 0.332090 0.494512 0.233639
H26   H     H_    0.078800 0.285420 0.585132 0.227850
O11   O     O_3   0.651622 0.092878 0.497519 -0.565025
C41   C     C_3   0.677137 0.113359 0.619801 0.073315
H27   H     H_    0.678984 0.051574 0.679049 0.128791
H28   H     H_    0.633883 0.163753 0.662498 0.129690
C42   C     C_3   0.764579 0.153591 0.615813 -0.314283
H29   H     H_    0.808142 0.105122 0.570262 0.224649
H30   H     H_    0.762538 0.216727 0.559981 0.229458
C43   C     C_3   0.796708 0.174619 0.745982 -0.947405
H31   H     H_    0.755981 0.225991 0.791203 0.259167
H32   H     H_    0.861162 0.201624 0.740313 0.259973
H33   H     H_    0.798115 0.112173 0.803466 0.260433
O12   O     O_3   0.349995 0.095123 0.515675 -0.594139
C44   C     C_3   0.327399 0.109312 0.640772 0.089394
H34   H     H_    0.379893 0.139119 0.695113 0.121715
H35   H     H_    0.308582 0.044083 0.684106 0.170250
C45   C     C_3   0.253608 0.175270 0.645135 -0.330379
H36   H     H_    0.272171 0.240296 0.601469 0.232465
H37   H     H_    0.200376 0.146877 0.591789 0.225873
C46   C     C_3   0.225761 0.193377 0.778215 -0.927591
H38   H     H_    0.205586 0.129486 0.823225 0.256993
H39   H     H_    0.172348 0.241688 0.777941 0.259264
H40   H     H_    0.277674 0.223376 0.832607 0.262307
O13   O     O_3   0.653127 0.907149 0.489099 -0.570479
C47   C     C_3   0.675527 0.861883 0.600273 0.060349
H41   H     H_    0.656165 0.789975 0.593911 0.167854
H42   H     H_    0.646513 0.892299 0.684891 0.103659
C48   C     C_3   0.770519 0.864626 0.615076 -0.309331
H43   H     H_    0.800665 0.835659 0.531125 0.238206
H44   H     H_    0.790937 0.935991 0.624561 0.215404
C49   C     C_3   0.799369 0.811259 0.728764 -0.898397
H45   H     H_    0.769685 0.838666 0.814047 0.248959
H46   H     H_    0.868178 0.816890 0.738483 0.259698
H47   H     H_    0.783089 0.738663 0.718558 0.268790
O14   O     O_3   0.350470 0.905771 0.518196 -0.598839
C50   C     C_3   0.315185 0.898531 0.398521 0.080972
H48   H     H_    0.361502 0.871615 0.330290 0.130445
H49   H     H_    0.292208 0.965916 0.366550 0.182059
C51   C     C_3   0.241598 0.833229 0.403760 -0.306457
H50   H     H_    0.264647 0.764952 0.431333 0.232680
H51   H     H_    0.195866 0.856826 0.474437 0.228301
C52   C     C_3   0.197820 0.826660 0.278301 -0.926987
H52   H     H_    0.168665 0.892664 0.253542 0.256100
H53   H     H_    0.148262 0.774616 0.282964 0.272677
H54   H     H_    0.243123 0.807142 0.204981 0.251254

loop_
_geom_bond_atom_site_label_1
_geom_bond_atom_site_label_2
_ccdc_geom_bond_type
C37   H17   S    
C34   H9    S    
C36   H15   S    
C44   H34   S    
C39   H22   S    
C39   H21   S    
C43   H32   S    
C6    C32   S    
C18   C26   S    
C30   O9    S    
C47   H42   S    
O14   C50   S    
C40   H24   S    
C2    O4    A    
O10   C36   S    
Cu1   N2    S    
C19   C21   A    
C42   C43   S    
C37   C38   S    
C35   H12   S    
C50   H48   S    
C45   C46   S    
C13   O11   S    
C23   C26   A    
C38   H19   S    
C9    C13   A    
C49   H45   S    
C52   H54   S    
C19   H3    S    
C51   H50   S    
C11   C15   S    
C1    O1    A    
C2    O2    A    
C50   H49   S    
C45   H37   S    
C23   C24   A    
C20   C23   A    
Cu2   O4    S    
C10   O14   S    
C33   C34   S    
C35   H13   S    
C40   H25   S    
C37   H16   S    
C36   C37   S    
C44   H35   S    
C21   C22   A    
C48   H44   S    
Cu2   N1    S    
C47   H41   S    
C33   H8    S    
O11   C41   S    
C51   H51   S    
C42   H30   S    
Cu2   O8    S    
O9    C33   S    
Cu1   O1    S    
C24   C25   A    
C17   O7    A    
C27   H1    S    
C35   H11   S    
C42   H29   S    
C51   C52   S    
C38   H20   S    
C29   C30   A    
C20   H4    S    
C46   H38   S    
C21   H5    S    
C43   H33   S    
C9    O13   S    
C50   C51   S    
C22   H6    S    
C45   H36   S    
Cu1   Cu2   S    
Cu2   O3    S    
C3    C31   A    
C9    C11   A    
C49   H47   S    
C52   H52   S    
C4    C32   A    
C10   C12   A    
C46   H39   S    
C12   C14   A    
C44   C45   S    
C41   H28   S    
C34   H10   S    
Cu1   O5    S    
C39   H23   S    
C14   C16   S    
C48   H43   S    
C3    C4    A    
O13   C47   S    
C33   H7    S    
C18   O8    A    
C40   H26   S    
C29   O10   S    
Cu2   O7    S    
C1    C7    S    
Cu1   O2    S    
C12   O12   S    
C2    C8    S    
C17   O5    A    
C15   N2    T    
C20   C22   A    
C18   O6    A    
C5    C8    T    
C6    C7    T    
C25   C27   A    
C41   C42   S    
C26   C28   A    
C17   C25   S    
C19   C24   A    
C4    C40   S    
C29   C31   A    
C30   C32   A    
C1    O3    A    
O12   C44   S    
C48   C49   S    
C38   H18   S    
C3    C39   S    
C49   H46   S    
C52   H53   S    
C10   C11   A    
C36   H14   S    
C46   H40   S    
C43   H31   S    
C28   H2    S    
C41   H27   S    
C34   C35   S    
C27   C28   A    
Cu1   O6    S    
C13   C14   A    
C16   N1    T    
C47   C48   S    
C5    C31   S    
