data_mof_unit_1445.cif
_audit_creation_date              2012-12-10T20:49:43-0500
_audit_creation_method            fapswitch 2.2
_symmetry_space_group_name_H-M    P1
_symmetry_Int_Tables_number       1
_space_group_crystal_system       triclinic
_cell_length_a                    8.10388
_cell_length_b                    8.937485
_cell_length_c                    16.712576
_cell_angle_alpha                 89.995903
_cell_angle_beta                  84.940004
_cell_angle_gamma                 90.00774
_cell_volume                      1205.7462412

loop_
_atom_site_label
_atom_site_type_symbol
_atom_type_description
_atom_site_fract_x
_atom_site_fract_y
_atom_site_fract_z
_atom_type_partial_charge
C1    C     C_R   0.500004 0.782041 0.500019 0.943688
C2    C     C_R   0.499994 0.217959 0.500012 0.938909
C3    C     C_1   0.500008 0.934832 0.500030 -0.193497
C4    C     C_1   0.499992 0.065183 0.500028 -0.190291
C5    C     C_R   0.476863 0.493726 0.653702 0.863359
C6    C     C_R   0.523229 0.497456 0.346102 0.867856
C7    C     C_R   0.461168 0.445773 0.737040 -0.048493
C8    C     C_R   0.538720 0.468456 0.260220 -0.053377
C9    C     C_R   0.585092 0.354899 0.764439 -0.198816
C10   C     C_R   0.402308 0.490381 0.216038 -0.199690
C11   C     C_R   0.565811 0.295139 0.841018 -0.166289
C12   C     C_R   0.409179 0.444534 0.136752 -0.150911
C13   C     C_R   0.424937 0.329727 0.892486 0.142244
C14   C     C_R   0.551743 0.373368 0.100780 0.141212
C15   C     C_R   0.296122 0.415444 0.863921 0.041839
C16   C     C_R   0.690896 0.354340 0.144611 0.033008
C17   C     C_R   0.314779 0.472207 0.785912 -0.237422
C18   C     C_R   0.683724 0.402512 0.224081 -0.236174
C19   C     C_2   0.426190 0.299445 0.978533 -0.229927
C20   C     C_2   0.561033 0.336081 0.015199 -0.214814
H1    H     H_    0.303422 0.467628 0.103411 0.153541
H2    H     H_    0.664143 0.226450 0.861256 0.149906
H3    H     H_    0.695949 0.327760 0.726149 0.163586
H4    H     H_    0.289833 0.541989 0.242983 0.162003
H5    H     H_    0.789091 0.383441 0.258532 0.163712
H6    H     H_    0.216762 0.538953 0.763701 0.157930
H7    H     H_    0.677479 0.360132 0.980262 0.176674
H8    H     H_    0.309397 0.277123 0.013471 0.177595
N1    N     N_1   0.926360 0.500000 0.499990 -0.035071
N2    N     N_1   0.073640 0.500000 0.500010 -0.034207
O1    O     O_R   0.363150 0.714660 0.500000 -0.612655
O2    O     O_R   0.636850 0.285340 0.500000 -0.617383
O3    O     O_R   0.636850 0.714660 0.500000 -0.610222
O4    O     O_R   0.363150 0.285340 0.500000 -0.611485
O5    O     O_R   0.346950 0.500000 0.615800 -0.616973
O6    O     O_R   0.653050 0.500000 0.384200 -0.620761
O7    O     O_R   0.620700 0.500000 0.615800 -0.619559
O8    O     O_R   0.379300 0.500000 0.384200 -0.617836
Zn1   Zn    Zn3+2 0.317220 0.500000 0.500010 0.989500
Zn2   Zn    Zn3+2 0.682780 0.500000 0.499990 0.985450
C21   C     C_1   0.148847 0.454495 0.914655 0.131002
N3    N     N_1   0.030818 0.486359 0.955103 -0.209354
C22   C     C_1   0.839727 0.281112 0.110432 0.151469
N4    N     N_1   0.958877 0.222118 0.083269 -0.209275

loop_
_geom_bond_atom_site_label_1
_geom_bond_atom_site_label_2
_ccdc_geom_bond_type
C2    C4    S    
C22   N4    T    
C6    O8    A    
C15   C17   A    
N1    N2    T    
C20   H7    S    
C5    O7    A    
C11   C13   A    
C21   N3    T    
C11   H2    S    
O5    Zn1   S    
C19   C20   D    
O1    Zn1   S    
O6    Zn2   S    
C2    O4    A    
O2    Zn2   S    
C1    O3    A    
C19   H8    S    
C9    C11   A    
C16   C22   S    
C18   H5    S    
C10   C12   A    
C17   H6    S    
C5    O5    A    
N1    Zn2   S    
C16   C18   A    
C6    O6    A    
N2    Zn1   S    
O7    Zn2   S    
C5    C7    S    
C13   C15   A    
O8    Zn1   S    
C14   C16   A    
O3    Zn2   S    
C13   C19   S    
C3    C4    T    
C14   C20   S    
C1    O1    A    
C15   C21   S    
C2    O2    A    
C7    C9    A    
C9    H3    S    
C6    C8    S    
C10   H4    S    
C12   H1    S    
C8    C10   A    
C8    C18   A    
O4    Zn1   S    
C12   C14   A    
C1    C3    S    
C7    C17   A    
