data_mof_unit_2986.cif
_audit_creation_date              2012-12-10T17:18:55-0500
_audit_creation_method            fapswitch 2.2
_symmetry_space_group_name_H-M    P1
_symmetry_Int_Tables_number       1
_space_group_crystal_system       triclinic
_cell_length_a                    9.602137
_cell_length_b                    10.832413
_cell_length_c                    13.399632
_cell_angle_alpha                 93.785802
_cell_angle_beta                  72.835884
_cell_angle_gamma                 88.868366
_cell_volume                      1327.64886222

loop_
_atom_site_label
_atom_site_type_symbol
_atom_type_description
_atom_site_fract_x
_atom_site_fract_y
_atom_site_fract_z
_atom_type_partial_charge
C1    C     C_R   0.498600 0.738131 0.497297 0.803420
C2    C     C_R   0.426962 0.540639 0.982957 0.038288
C3    C     C_R   0.461530 0.566438 0.876464 -0.056935
C4    C     C_R   0.533550 0.560543 0.036472 -0.057583
C5    C     C_R   0.670098 0.610560 0.985116 -0.034306
C6    C     C_R   0.690901 0.655958 0.885474 0.308865
C7    C     C_R   0.581422 0.641237 0.835086 0.365310
C8    C     C_R   0.509094 0.527880 0.139359 -0.216425
C9    C     C_R   0.754546 0.573038 0.136584 -0.262409
C10   C     C_R   0.371849 0.520192 0.815829 -0.097982
C11   C     C_R   0.224059 0.897090 0.514383 -0.136879
C12   C     C_R   0.421338 0.508766 0.700313 0.832008
C13   C     C_R   0.092672 0.965184 0.556053 -0.237101
C14   C     C_R   0.090485 0.081074 0.607262 -0.110485
C15   C     C_R   0.220699 0.134206 0.609544 0.424505
C16   C     C_R   0.356763 0.071916 0.553721 0.004867
C17   C     C_R   0.357464 0.945093 0.521667 0.080941
C18   C     C_R   0.491834 0.873828 0.498016 -0.119481
C19   C     C_R   0.622410 0.934352 0.487803 -0.187753
C20   C     C_R   0.622613 0.061876 0.497458 -0.184057
C21   C     C_R   0.491359 0.131752 0.525551 -0.146322
C22   C     C_R   0.904093 0.319428 0.376844 -0.345851
C23   C     C_R   0.497026 0.263932 0.509659 0.832734
C24   C     C_R   0.981441 0.207259 0.340533 0.305519
C25   C     C_R   0.118588 0.193400 0.354253 0.255356
C26   C     C_R   0.188410 0.300820 0.377240 0.430188
C27   C     C_R   0.099842 0.405376 0.439721 0.052777
C28   C     C_R   0.950216 0.409101 0.439726 0.083232
C29   C     C_R   0.901495 0.587847 0.555957 -0.026305
C30   C     C_R   0.048911 0.587614 0.556405 -0.058219
C31   C     C_R   0.577521 0.506474 0.300498 0.829298
C32   C     C_R   0.780428 0.616204 0.036960 0.451489
C33   C     C_R   0.617560 0.532047 0.189256 -0.143835
C34   C     C_R   0.235802 0.473596 0.866191 -0.141953
C35   C     C_R   0.193028 0.463397 0.973173 -0.091803
C36   C     C_R   0.287910 0.493112 0.030827 -0.149385
Cu1   Cu    Cu3+1 0.359340 0.500010 0.500010 1.007063
Cu2   Cu    Cu3+1 0.640660 0.499990 0.499990 0.965334
H1    H     H_    0.839267 0.578661 0.174944 0.173877
H2    H     H_    0.218004 0.810865 0.471532 0.172476
H3    H     H_    0.991765 0.926586 0.550570 0.146005
H4    H     H_    0.987052 0.129856 0.645782 0.149987
H5    H     H_    0.726231 0.105821 0.481605 0.200832
H6    H     H_    0.826748 0.660944 0.600589 0.166799
H7    H     H_    0.805495 0.331037 0.358416 0.242910
H8    H     H_    0.083136 0.659248 0.603136 0.140515
H9    H     H_    0.404779 0.498183 0.183429 0.174511
H10   H     H_    0.163119 0.441881 0.822471 0.199750
H11   H     H_    0.246733 0.478386 0.112718 0.113273
H12   H     H_    0.087607 0.427441 0.011209 0.145742
H13   H     H_    0.726078 0.883183 0.469343 0.171494
N1    N     N_R   0.852480 0.498790 0.499000 -0.163005
N2    N     N_R   0.148360 0.498710 0.498970 -0.161789
O1    O     O_R   0.381190 0.680360 0.500010 -0.611194
O2    O     O_R   0.618760 0.680340 0.500000 -0.565281
O3    O     O_R   0.323240 0.499990 0.650990 -0.570429
O4    O     O_R   0.560820 0.499960 0.650980 -0.536544
O5    O     O_R   0.381240 0.319660 0.500000 -0.488562
O6    O     O_R   0.618810 0.319640 0.499990 -0.614024
O7    O     O_R   0.439180 0.500040 0.349020 -0.528873
O8    O     O_R   0.676760 0.500010 0.349010 -0.615475
O9    O     O_3   0.210110 0.241442 0.673189 -0.735230
H14   H     H_    0.300925 0.247352 0.693752 0.292202
O10   O     O_3   0.924204 0.107926 0.296382 -0.580106
C37   C     C_3   0.859162 0.144950 0.220734 -0.303007
H15   H     H_    0.921346 0.216844 0.172142 0.147661
H16   H     H_    0.743945 0.177260 0.258803 0.165184
H17   H     H_    0.857532 0.063080 0.166871 0.192419
O11   O     O_3   0.194596 0.080272 0.334336 -0.726386
H18   H     H_    0.129381 0.013393 0.325635 0.365449
O12   O     O_3   0.338619 0.303394 0.335616 -0.525156
C38   C     C_3   0.392650 0.251637 0.230703 -0.274980
H19   H     H_    0.319522 0.273220 0.182741 0.132014
H20   H     H_    0.415823 0.150659 0.227927 0.222307
H21   H     H_    0.500002 0.290022 0.193850 0.146435
O13   O     O_3   0.816815 0.716551 0.839792 -0.720608
H22   H     H_    0.816782 0.742685 0.770507 0.343281
O14   O     O_3   0.914567 0.663116 0.992541 -0.694227
H23   H     H_    0.896899 0.753864 0.994271 0.348990
O15   O     O_3   0.588915 0.705859 0.748061 -0.593868
C39   C     C_3   0.500258 0.815113 0.780739 -0.353850
H24   H     H_    0.533565 0.872929 0.841023 0.169623
H25   H     H_    0.382999 0.793751 0.810569 0.179805
H26   H     H_    0.513357 0.870812 0.712334 0.192927

loop_
_geom_bond_atom_site_label_1
_geom_bond_atom_site_label_2
_ccdc_geom_bond_type
C23   O5    A    
C16   C21   A    
C28   N1    A    
C31   O8    A    
C19   C20   A    
C4    C8    A    
C39   H26   S    
C13   H3    S    
C39   H24   S    
C23   O6    A    
C26   C27   A    
C29   C30   A    
Cu1   Cu2   S    
C18   C19   A    
C3    C7    A    
C5    C6    A    
Cu2   N1    S    
C15   C16   A    
C9    H1    S    
C34   C35   A    
C9    C32   A    
Cu1   O3    S    
Cu2   O2    S    
C35   C36   A    
C16   C17   A    
C37   H16   S    
C31   C33   S    
Cu1   O5    S    
C14   H4    S    
Cu2   O8    S    
Cu1   N2    S    
C24   O10   S    
C22   C28   A    
C13   C14   A    
C9    C33   A    
C26   O12   S    
O11   H18   S    
C38   H21   S    
C39   H25   S    
C30   N2    A    
O13   H22   S    
C38   H19   S    
C38   H20   S    
O14   H23   S    
O15   C39   S    
C25   C26   A    
C31   O7    A    
C2    C4    A    
C1    O1    A    
O9    H14   S    
Cu2   O4    S    
C37   H17   S    
C35   H12   S    
C17   C18   A    
C1    C18   S    
C10   C34   A    
C24   C25   A    
C12   O3    A    
C10   C12   S    
Cu1   O1    S    
C21   C23   S    
C29   H6    S    
C22   C24   A    
C34   H10   S    
C12   O4    A    
C20   H5    S    
C2    C36   A    
C11   C17   A    
C30   H8    S    
C4    C5    A    
C27   N2    A    
C6    O13   S    
C6    C7    A    
O10   C37   S    
C5    C32   A    
C2    C3    A    
C1    O2    A    
C8    H9    S    
O12   C38   S    
C3    C10   A    
C11   C13   A    
C15   O9    S    
C8    C33   A    
C11   H2    S    
Cu1   O7    S    
C32   O14   S    
Cu2   O6    S    
C19   H13   S    
C22   H7    S    
C25   O11   S    
C20   C21   A    
C37   H15   S    
C27   C28   A    
C14   C15   A    
C36   H11   S    
C7    O15   S    
C29   N1    A    
