data_mof_unit_968.cif
_audit_creation_date              2012-12-10T17:54:21-0500
_audit_creation_method            fapswitch 2.2
_symmetry_space_group_name_H-M    P1
_symmetry_Int_Tables_number       1
_space_group_crystal_system       triclinic
_cell_length_a                    27.668784
_cell_length_b                    10.672618
_cell_length_c                    9.868355
_cell_angle_alpha                 90.482641
_cell_angle_beta                  90.298966
_cell_angle_gamma                 91.400462
_cell_volume                      2913.09236697

loop_
_atom_site_label
_atom_site_type_symbol
_atom_type_description
_atom_site_fract_x
_atom_site_fract_y
_atom_site_fract_z
_atom_type_partial_charge
C1    C     C_R   0.506261 0.261538 0.500127 0.915148
C2    C     C_R   0.278283 0.480164 0.371362 -0.132829
C3    C     C_R   0.252437 0.479841 0.492554 0.170230
C4    C     C_R   0.101233 0.469513 0.464100 -0.098152
C5    C     C_R   0.126014 0.356608 0.485674 -0.121399
C6    C     C_R   0.098912 0.243112 0.497879 0.455066
C7    C     C_R   0.127434 0.583348 0.449183 -0.069896
C8    C     C_R   0.353160 0.493282 0.497878 -0.100675
C9    C     C_R   0.646755 0.494675 0.500803 -0.045135
C10   C     C_R   0.972512 0.355316 0.458288 0.071038
C11   C     C_R   0.975907 0.585351 0.471191 0.062049
C12   C     C_R   0.405976 0.498759 0.499575 0.883301
C13   C     C_R   0.948969 0.471066 0.469439 0.087312
C14   C     C_R   0.944007 0.244381 0.442542 -0.190083
C15   C     C_R   0.893826 0.247397 0.446570 -0.113053
C16   C     C_R   0.870604 0.360634 0.468751 -0.028211
C17   C     C_R   0.898187 0.472672 0.481769 -0.059028
C18   C     C_R   0.875069 0.586354 0.508190 -0.028889
C19   C     C_R   0.824692 0.586322 0.517337 0.521869
C20   C     C_R   0.820223 0.365217 0.477238 0.521411
C21   C     C_R   0.721744 0.475158 0.378439 -0.093164
C22   C     C_R   0.671711 0.482182 0.378068 -0.204515
C23   C     C_R   0.496697 0.740455 0.501280 0.886820
C24   C     C_R   0.672559 0.500154 0.623796 -0.152417
C25   C     C_R   0.722678 0.493526 0.623730 -0.087729
C26   C     C_R   0.747170 0.480905 0.501075 0.306337
C27   C     C_R   0.023589 0.354750 0.467082 0.000960
C28   C     C_R   0.050194 0.469431 0.458125 0.051156
C29   C     C_R   0.025975 0.584463 0.443926 -0.072016
C30   C     C_R   0.048748 0.243637 0.488747 -0.223627
C31   C     C_R   0.103406 0.692612 0.415800 -0.144884
C32   C     C_R   0.952574 0.695362 0.511004 -0.100462
C33   C     C_R   0.902759 0.696540 0.526950 -0.117000
C34   C     C_R   0.594022 0.499555 0.500322 0.910258
C35   C     C_R   0.053264 0.692874 0.404671 0.377443
C36   C     C_R   0.538305 0.117915 0.747189 0.413737
C37   C     C_R   0.527261 0.063716 0.871947 -0.167174
C38   C     C_R   0.498229 0.955725 0.876869 -0.235507
C39   C     C_R   0.484665 0.894221 0.756891 -0.156457
C40   C     C_R   0.498933 0.942900 0.629585 0.052346
C41   C     C_R   0.518343 0.064928 0.625797 0.009916
C42   C     C_R   0.514671 0.129190 0.501386 -0.082306
C43   C     C_R   0.507487 0.063933 0.379525 -0.210143
C44   C     C_R   0.499697 0.936990 0.381280 -0.201346
C45   C     C_R   0.176922 0.363034 0.494689 0.627470
C46   C     C_R   0.495368 0.875257 0.505159 -0.100286
C47   C     C_R   0.437443 0.334231 0.138410 -0.183987
C48   C     C_R   0.406830 0.251937 0.066961 -0.177411
C49   C     C_R   0.406742 0.251887 0.926776 -0.149519
C50   C     C_R   0.437260 0.334129 0.857333 -0.159466
C51   C     C_R   0.469159 0.418054 0.926452 0.179401
C52   C     C_R   0.469202 0.418093 0.071328 0.166376
C53   C     C_R   0.529385 0.578547 0.072772 -0.118814
C54   C     C_R   0.529372 0.578512 0.929356 -0.095280
C55   C     C_R   0.177651 0.584426 0.461222 0.618697
C56   C     C_R   0.276794 0.486132 0.618238 0.445813
C57   C     C_R   0.327248 0.492073 0.619813 -0.313972
C58   C     C_R   0.328328 0.487020 0.373706 -0.189167
H1    H     H_    0.347479 0.487097 0.278249 0.186493
H2    H     H_    0.123866 0.777329 0.391851 0.225766
H3    H     H_    0.972764 0.780445 0.534421 0.201590
H4    H     H_    0.654112 0.509656 0.719733 0.180623
H5    H     H_    0.886113 0.783988 0.554206 0.198308
H6    H     H_    0.742533 0.498325 0.718560 0.146869
H7    H     H_    0.506403 0.111113 0.282748 0.172420
H8    H     H_    0.541315 0.105066 0.965137 0.170952
H9    H     H_    0.259331 0.475608 0.275052 0.190954
H10   H     H_    0.488030 0.916442 0.973705 0.158255
H11   H     H_    0.461966 0.810896 0.765581 0.176768
H12   H     H_    0.496340 0.887734 0.285072 0.167668
H13   H     H_    0.553342 0.642639 0.127823 0.151046
H14   H     H_    0.434934 0.329539 0.245703 0.209758
H15   H     H_    0.382858 0.188278 0.120880 0.170897
H16   H     H_    0.382710 0.188160 0.871283 0.173357
H17   H     H_    0.434494 0.329156 0.749978 0.203743
H18   H     H_    0.553291 0.642615 0.876046 0.153149
H19   H     H_    0.652661 0.477378 0.281938 0.171345
H20   H     H_    0.740889 0.465997 0.283564 0.146680
H21   H     H_    0.873337 0.160251 0.433819 0.203309
H22   H     H_    0.959567 0.154264 0.423429 0.190649
H23   H     H_    0.029923 0.155633 0.505422 0.210570
H24   H     H_    0.346307 0.495766 0.715900 0.197592
N1    N     N_R   0.200962 0.475862 0.485424 -0.353668
N2    N     N_R   0.798555 0.477065 0.500115 -0.360854
N3    N     N_R   0.499540 0.498800 0.142780 -0.121558
N4    N     N_R   0.499520 0.498720 0.857170 -0.112899
O1    O     O_R   0.500000 0.316780 0.614690 -0.613526
O2    O     O_2   0.793022 0.259174 0.462908 -0.528858
O3    O     O_2   0.203251 0.693083 0.449047 -0.505401
O4    O     O_2   0.801851 0.694572 0.541233 -0.536650
O5    O     O_R   0.500000 0.316750 0.385360 -0.651551
O6    O     O_R   0.428760 0.500030 0.614650 -0.647368
O7    O     O_R   0.428750 0.500010 0.385320 -0.640049
O8    O     O_R   0.500000 0.683250 0.614640 -0.632731
O9    O     O_R   0.500000 0.683220 0.385310 -0.619892
O10   O     O_R   0.571250 0.499990 0.614680 -0.579393
O11   O     O_R   0.571240 0.499970 0.385350 -0.625374
O12   O     O_2   0.202658 0.258723 0.511887 -0.446005
Zn1   Zn    Zn3+2 0.500000 0.500020 0.653130 0.969804
Zn2   Zn    Zn3+2 0.500000 0.499980 0.346870 0.945438
S1    S     S_3+6 0.245060 0.486514 0.773389 0.063462
O13   O     O_2   0.205623 0.580809 0.769065 -0.266097
O14   O     O_2   0.222628 0.358781 0.795549 -0.201995
O15   O     O_3   0.282608 0.521233 0.903744 -0.544036
H25   H     H_    0.291509 0.611010 0.892588 0.357737
S2    S     S_3+6 0.028891 0.818024 0.310309 0.042199
O16   O     O_2   0.981682 0.779207 0.244545 -0.242237
O17   O     O_2   0.021193 0.928945 0.401775 -0.349140
O18   O     O_3   0.067942 0.860448 0.187721 -0.482928
H26   H     H_    0.088299 0.929076 0.227633 0.386375
Cl1   Cl    Cl    0.584061 0.235913 0.746319 -0.615222
Cl2   Cl    Cl    0.124441 0.095487 0.527007 -0.456502

loop_
_geom_bond_atom_site_label_1
_geom_bond_atom_site_label_2
_ccdc_geom_bond_type
C10   C27   A    
C1    O1    A    
C21   C26   A    
C40   C41   A    
S1    O13   D    
C41   C42   A    
C7    C55   A    
C53   C54   A    
C40   C46   A    
C28   C29   A    
C36   C37   A    
C34   O10   A    
C56   S1    S    
C45   O12   S    
C5    C6    A    
C9    C22   A    
S2    O16   D    
C15   C16   A    
O10   Zn1   S    
C34   O11   A    
C56   C57   A    
C18   C19   A    
C8    C58   A    
C15   H21   S    
C16   C17   A    
C21   H20   S    
C24   H4    S    
C44   H12   S    
C14   H22   S    
O5    Zn2   S    
C16   C20   A    
S1    O14   D    
C23   C46   S    
C21   C22   A    
C27   C30   A    
C36   C41   A    
C45   N1    A    
C4    C7    A    
C51   N4    A    
O15   H25   S    
C4    C28   A    
C44   C46   A    
C50   C51   A    
O1    Zn1   S    
C33   H5    S    
C7    C31   A    
C51   C52   A    
C24   C25   A    
C2    H9    S    
C10   C14   A    
C39   C40   A    
C54   N4    A    
O9    Zn2   S    
C58   H1    S    
C5    C45   A    
C25   H6    S    
C31   H2    S    
C43   C44   A    
C37   C38   A    
C8    C57   A    
C3    C56   A    
C47   C48   A    
C19   O4    S    
C43   H7    S    
C37   H8    S    
C36   Cl1   S    
C17   C18   A    
C39   H11   S    
C49   H16   S    
N4    Zn1   S    
O7    Zn2   S    
C54   H18   S    
C48   C49   A    
C6    C30   A    
C38   H10   S    
C11   C32   A    
S1    O15   S    
C20   N2    A    
C3    N1    S    
C9    C34   S    
C31   C35   A    
C12   O7    A    
C42   C43   A    
C55   N1    A    
C19   N2    A    
C53   H13   S    
O11   Zn2   S    
C52   N3    A    
C26   N2    S    
C14   C15   A    
C6    Cl2   S    
C48   H15   S    
C12   O6    A    
C22   H19   S    
C4    C5    A    
C10   C13   A    
C32   H3    S    
C2    C58   A    
C9    C24   A    
C47   C52   A    
C29   C35   A    
C23   O8    A    
C13   C17   A    
C32   C33   A    
C30   H23   S    
C2    C3    A    
C25   C26   A    
C55   O3    S    
N3    Zn2   S    
C50   H17   S    
C11   C13   A    
C38   C39   A    
S2    O17   D    
O8    Zn1   S    
C20   O2    S    
C23   O9    A    
C18   C33   A    
C47   H14   S    
C1    C42   S    
C11   C29   A    
C1    O5    A    
C49   C50   A    
C27   C28   A    
C35   S2    S    
C57   H24   S    
C53   N3    A    
O18   H26   S    
C8    C12   S    
O6    Zn1   S    
S2    O18   S    
