data_mof_unit_999.cif
_audit_creation_date              2012-12-10T19:42:32-0500
_audit_creation_method            fapswitch 2.2
_symmetry_space_group_name_H-M    P1
_symmetry_Int_Tables_number       1
_space_group_crystal_system       triclinic
_cell_length_a                    10.797535
_cell_length_b                    10.819725
_cell_length_c                    9.78617
_cell_angle_alpha                 98.590056
_cell_angle_beta                  98.576827
_cell_angle_gamma                 90.684486
_cell_volume                      1117.13055149

loop_
_atom_site_label
_atom_site_type_symbol
_atom_type_description
_atom_site_fract_x
_atom_site_fract_y
_atom_site_fract_z
_atom_type_partial_charge
C1    C     C_R   0.495510 0.262266 0.500675 0.794724
C2    C     C_R   0.771946 0.857090 0.700511 -0.144725
C3    C     C_R   0.341139 0.087851 0.273005 0.129435
C4    C     C_R   0.659086 0.912125 0.726812 0.129551
C5    C     C_R   0.371982 0.072994 0.137309 -0.118164
C6    C     C_R   0.628643 0.927286 0.862711 -0.118722
C7    C     C_R   0.291092 0.113933 0.029043 -0.185272
C8    C     C_R   0.709699 0.886285 0.970811 -0.185290
C9    C     C_R   0.178080 0.167333 0.055153 -0.161939
C10   C     C_R   0.822494 0.832544 0.944331 -0.161850
C11   C     C_R   0.436546 0.917372 0.387124 -0.251180
C12   C     C_R   0.504492 0.737733 0.499321 0.794728
C13   C     C_R   0.563469 0.082623 0.612857 -0.251196
C14   C     C_R   0.507640 0.871675 0.498854 -0.076115
C15   C     C_R   0.492372 0.128322 0.501129 -0.076077
C16   C     C_R   0.262334 0.503845 0.500166 0.811997
C17   C     C_R   0.737665 0.496128 0.499835 0.811975
C18   C     C_R   0.573514 0.954893 0.612113 0.001265
C19   C     C_R   0.426536 0.045100 0.387843 0.001149
C20   C     C_2   0.510927 0.509205 0.078855 -0.031802
C21   C     C_2   0.489077 0.490789 0.921145 -0.031801
C22   C     C_R   0.137301 0.785361 0.172793 -0.278143
C23   C     C_R   0.871589 0.494820 0.500654 -0.059148
C24   C     C_R   0.862849 0.214535 0.827273 -0.278063
C25   C     C_R   0.101187 0.733133 0.283827 -0.174833
C26   C     C_R   0.898930 0.266764 0.716220 -0.174948
C27   C     C_R   0.090581 0.602937 0.275910 0.125343
C28   C     C_R   0.909415 0.396961 0.724076 0.125295
C29   C     C_R   0.115318 0.525852 0.155298 -0.137630
C30   C     C_R   0.884602 0.474042 0.844653 -0.137624
C31   C     C_R   0.154249 0.577812 0.045772 -0.130546
C32   C     C_R   0.845692 0.422084 0.954186 -0.130496
C33   C     C_R   0.164928 0.708203 0.053387 0.083718
C34   C     C_R   0.128408 0.505116 0.499344 -0.059103
C35   C     C_R   0.835131 0.291696 0.946631 0.083772
C36   C     C_R   0.918729 0.541699 0.392586 -0.204687
C37   C     C_R   0.081268 0.458221 0.607404 -0.204654
C38   C     C_2   0.202991 0.765035 0.937234 0.282245
C39   C     C_2   0.797108 0.234879 0.062811 0.282070
C40   C     C_R   0.953330 0.452289 0.609532 -0.010590
C41   C     C_R   0.046665 0.547623 0.390456 -0.010579
C42   C     C_R   0.146303 0.180954 0.189863 -0.142818
C43   C     C_R   0.853889 0.818652 0.809427 -0.142806
C44   C     C_R   0.228067 0.142561 0.298948 -0.145111
Cu1   Cu    Cu3+1 0.521120 0.521140 0.639640 0.983645
Cu2   Cu    Cu3+1 0.478880 0.478860 0.360360 0.983660
H1    H     H_    0.458953 0.030954 0.116046 0.120654
H2    H     H_    0.378822 0.384126 0.094978 0.199393
H3    H     H_    0.143443 0.886050 0.179938 0.154022
H4    H     H_    0.856798 0.113846 0.820175 0.154116
H5    H     H_    0.104648 0.425538 0.146242 0.139415
H6    H     H_    0.895204 0.574352 0.853682 0.139412
H7    H     H_    0.174065 0.516060 0.954475 0.148035
H8    H     H_    0.825816 0.483837 0.045451 0.148036
H9    H     H_    0.855694 0.576245 0.310724 0.145002
H10   H     H_    0.144308 0.423677 0.689265 0.144982
H11   H     H_    0.115450 0.198480 0.971127 0.141415
H12   H     H_    0.541857 0.969613 0.884266 0.120606
H13   H     H_    0.885254 0.801352 0.028228 0.141438
H14   H     H_    0.058623 0.221801 0.210081 0.143280
H15   H     H_    0.941405 0.777547 0.788919 0.143458
H16   H     H_    0.202935 0.154278 0.403104 0.106455
H17   H     H_    0.796772 0.845141 0.596199 0.106236
H18   H     H_    0.205201 0.865765 0.942365 0.086603
H19   H     H_    0.795086 0.134167 0.057788 0.086457
H20   H     H_    0.080364 0.794050 0.375281 0.138530
H21   H     H_    0.919825 0.205848 0.624803 0.138562
H22   H     H_    0.315614 0.103474 0.924748 0.131909
H23   H     H_    0.685487 0.896983 0.075268 0.131886
H24   H     H_    0.384942 0.853399 0.301168 0.171063
H25   H     H_    0.615096 0.146596 0.698798 0.171059
H26   H     H_    0.417421 0.422861 0.865359 0.146239
H27   H     H_    0.582589 0.577125 0.134640 0.146242
H28   H     H_    0.621161 0.615894 0.905021 0.199343
N1    N     N_2   0.447120 0.447110 0.150550 -0.268146
N2    N     N_2   0.552880 0.552890 0.849450 -0.268169
O1    O     O_R   0.517830 0.337490 0.617920 -0.591992
O2    O     O_2   0.768122 0.299562 0.165688 -0.542710
O3    O     O_R   0.482170 0.662510 0.382080 -0.591981
O4    O     O_R   0.482150 0.301790 0.382070 -0.547831
O5    O     O_R   0.517850 0.698210 0.617930 -0.547815
O6    O     O_R   0.337480 0.517860 0.617920 -0.546942
O7    O     O_R   0.662520 0.482140 0.382080 -0.546966
O8    O     O_R   0.301810 0.482160 0.382070 -0.578589
O9    O     O_R   0.698190 0.517840 0.617930 -0.578615
O10   O     O_2   0.231807 0.700349 0.834264 -0.542754

loop_
_geom_bond_atom_site_label_1
_geom_bond_atom_site_label_2
_ccdc_geom_bond_type
Cu2   O4    S    
C27   C29   A    
C34   C37   A    
C1    O1    A    
C6    H12   S    
C2    C4    A    
Cu1   O6    S    
C11   H24   S    
Cu1   Cu2   S    
C15   C19   A    
C5    H1    S    
C21   N2    D    
C11   C19   A    
C9    C42   A    
C17   C23   S    
H28   N2    S    
C13   C18   A    
C38   O10   D    
Cu1   N2    S    
C17   O9    A    
C26   H21   S    
C24   C26   A    
C37   C40   A    
C35   C39   S    
C11   C14   A    
C28   C40   S    
C23   C40   A    
C12   O3    A    
C16   O8    A    
C14   C18   A    
C16   C34   S    
C7    H22   S    
C37   H10   S    
C22   C25   A    
C12   O5    A    
C31   C33   A    
C3    C19   S    
C1    C15   S    
C4    C18   S    
C39   H19   S    
H2    N1    S    
C36   C41   A    
C34   C41   A    
C42   C44   A    
C32   H8    S    
Cu2   N1    S    
C38   H18   S    
C24   H4    S    
C3    C44   A    
C24   C35   A    
C21   H26   S    
C39   O2    D    
C4    C6    A    
C42   H14   S    
C5    C7    A    
C6    C8    A    
C13   H25   S    
C44   H16   S    
C20   N1    D    
C17   O7    A    
Cu1   O9    S    
C32   C35   A    
C27   C41   S    
C2    C43   A    
C16   O6    A    
C8    H23   S    
C31   H7    S    
C22   H3    S    
Cu2   O8    S    
C12   C14   S    
C13   C15   A    
C2    H17   S    
C43   H15   S    
C29   H5    S    
C7    C9    A    
C22   C33   A    
C30   H6    S    
C10   C43   A    
Cu1   O5    S    
C25   H20   S    
C3    C5    A    
C25   C27   A    
C26   C28   A    
C33   C38   S    
C28   C30   A    
C10   H13   S    
C29   C31   A    
C36   H9    S    
C30   C32   A    
Cu2   O3    S    
C20   H27   S    
C9    H11   S    
Cu2   O7    S    
C20   C21   S    
C8    C10   A    
C23   C36   A    
C1    O4    A    
Cu1   O1    S    
