data_mof_unit_2340.cif
_audit_creation_date              2012-12-10T20:36:38-0500
_audit_creation_method            fapswitch 2.2
_symmetry_space_group_name_H-M    P1
_symmetry_Int_Tables_number       1
_space_group_crystal_system       triclinic
_cell_length_a                    10.523853
_cell_length_b                    10.709288
_cell_length_c                    9.882042
_cell_angle_alpha                 89.946179
_cell_angle_beta                  88.793046
_cell_angle_gamma                 90.170455
_cell_volume                      1113.48292276

loop_
_atom_site_label
_atom_site_type_symbol
_atom_type_description
_atom_site_fract_x
_atom_site_fract_y
_atom_site_fract_z
_atom_type_partial_charge
C1    C     C_R   0.496400 0.260383 0.499880 0.919196
C2    C     C_3   0.963307 0.500904 0.367596 -0.250457
C3    C     C_3   0.042395 0.398751 0.435314 0.010769
C4    C     C_3   0.122844 0.497891 0.503533 -0.135915
C5    C     C_R   0.560448 0.064302 0.597401 -0.018695
C6    C     C_R   0.495960 0.128336 0.497311 -0.146427
C7    C     C_R   0.442592 0.063645 0.387765 -0.045224
C8    C     C_R   0.445715 0.934404 0.387598 0.594072
C9    C     C_R   0.499627 0.871319 0.496750 -0.217514
C10   C     C_R   0.561651 0.936619 0.597368 -0.097885
C11   C     C_3   0.548120 0.927151 0.748012 -0.418545
C12   C     C_R   0.257523 0.499000 0.501275 0.944453
C13   C     C_3   0.545890 0.068851 0.748617 0.680710
C14   C     C_R   0.420640 0.421984 0.073248 0.078484
C15   C     C_R   0.585424 0.569710 0.070000 0.178690
C16   C     C_R   0.585565 0.568957 0.925735 -0.149910
C17   C     C_R   0.419555 0.423368 0.930705 0.165601
C18   C     C_3   0.277983 0.428356 0.931100 0.419339
C19   C     C_3   0.279247 0.422040 0.084123 -0.491512
C20   C     C_R   0.498252 0.739569 0.499710 0.959627
C21   C     C_R   0.742312 0.500021 0.498569 0.898818
C22   C     C_3   0.035461 0.496432 0.630719 -0.201206
C23   C     C_3   0.955103 0.397325 0.559693 0.100030
C24   C     C_3   0.876672 0.499706 0.495563 -0.102291
C25   C     C_3   0.955559 0.601236 0.564963 -0.262519
C26   C     C_3   0.044233 0.600754 0.438719 0.675871
H1    H     H_    0.633911 0.885863 0.794063 0.161020
H2    H     H_    0.652749 0.626570 0.869342 0.142365
H3    H     H_    0.233149 0.346594 0.881755 0.097736
H4    H     H_    0.240430 0.507122 0.134191 0.272924
H5    H     H_    0.241484 0.332380 0.125143 0.180840
H6    H     H_    0.063428 0.491243 0.737766 0.231283
H7    H     H_    0.915990 0.685336 0.615974 0.167456
H8    H     H_    0.931735 0.502556 0.261140 0.170078
H9    H     H_    0.456407 0.884096 0.781478 0.241451
N1    N     N_R   0.499140 0.499140 0.142800 -0.083853
N2    N     N_R   0.499140 0.499180 0.857150 -0.095370
O1    O     O_R   0.500020 0.316790 0.614690 -0.610441
O2    O     O_R   0.500000 0.316760 0.385350 -0.611721
O3    O     O_R   0.313960 0.499990 0.614650 -0.585190
O4    O     O_R   0.313940 0.499950 0.385310 -0.596264
O5    O     O_R   0.500000 0.683240 0.614650 -0.622133
O6    O     O_R   0.499980 0.683210 0.385310 -0.546451
O7    O     O_R   0.686060 0.500050 0.614690 -0.626280
O8    O     O_R   0.686040 0.500010 0.385350 -0.624882
Zn1   Zn    Zn3+2 0.500010 0.500020 0.653130 1.002686
Zn2   Zn    Zn3+2 0.499990 0.499980 0.346870 1.018971
N3    N     N_3   0.901643 0.286189 0.624501 -0.441031
H10   H     H_    0.977642 0.230446 0.653725 0.196531
H11   H     H_    0.852646 0.236367 0.551041 0.175681
F1    F     F_    0.431177 0.118531 0.794192 -0.674151
N4    N     N_3   0.656072 0.124097 0.813381 -0.478006
H12   H     H_    0.653750 0.220508 0.797065 0.211233
H13   H     H_    0.644689 0.110780 0.917774 0.184750
N5    N     N_3   0.673182 0.647146 0.139834 -0.387335
H14   H     H_    0.658663 0.739445 0.109401 0.189198
H15   H     H_    0.765049 0.621637 0.108765 0.165262
F2    F     F_    0.235287 0.543169 0.886690 -0.639030
F3    F     F_    0.095385 0.706203 0.377503 -0.629855
N6    N     N_3   0.093701 0.288644 0.367579 -0.452215
H16   H     H_    0.016678 0.235181 0.335834 0.196406
H17   H     H_    0.140636 0.235918 0.440101 0.188879
N7    N     N_3   0.378345 0.128133 0.281836 -0.413019
H18   H     H_    0.422579 0.105102 0.189487 0.228327
H19   H     H_    0.284430 0.096170 0.279848 0.229818
F4    F     F_    0.387557 0.871502 0.286502 -0.623229

loop_
_geom_bond_atom_site_label_1
_geom_bond_atom_site_label_2
_ccdc_geom_bond_type
C12   O3    A    
C4    C26   S    
C23   C24   S    
N7    H19   S    
C16   H2    S    
C12   O4    A    
C26   F3    S    
C4    C12   S    
C13   N4    S    
C4    C22   S    
C9    C10   A    
C9    C20   S    
C5    C13   S    
N2    Zn1   S    
C19   H4    S    
C11   H1    S    
C16   N2    A    
N5    H14   S    
C19   H5    S    
C3    N6    S    
C2    H8    S    
C11   H9    S    
C17   C18   S    
O4    Zn2   S    
C7    C8    A    
C2    C26   S    
C18   H3    S    
C17   N2    A    
C24   C25   S    
O3    Zn1   S    
C20   O5    A    
C11   C13   S    
C14   C17   A    
C7    N7    S    
C6    C7    A    
C22   H6    S    
C1    O1    A    
N3    H11   S    
N3    H10   S    
N4    H13   S    
C2    C3    S    
O6    Zn2   S    
C21   O8    A    
N5    H15   S    
C2    C24   S    
C5    C6    A    
C21   C24   S    
O1    Zn1   S    
C10   C11   S    
C1    O2    A    
N7    H18   S    
C21   O7    A    
C15   N1    A    
C5    C10   A    
C20   O6    A    
N4    H12   S    
N1    Zn2   S    
N6    H17   S    
C18   C19   S    
O5    Zn1   S    
O8    Zn2   S    
C1    C6    S    
C22   C23   S    
N6    H16   S    
C14   N1    A    
C23   N3    S    
O7    Zn1   S    
C25   C26   S    
C13   F1    S    
O2    Zn2   S    
C3    C23   S    
C14   C19   S    
C18   F2    S    
C8    F4    S    
C3    C4    S    
C15   C16   A    
C25   H7    S    
C8    C9    A    
C22   C25   S    
C15   N5    S    
