data_mof_unit_1064.cif
_audit_creation_date              2012-12-11T17:09:33-0500
_audit_creation_method            fapswitch 2.2
_symmetry_space_group_name_H-M    P1
_symmetry_Int_Tables_number       1
_space_group_crystal_system       monoclinic
_cell_length_a                    14.798818
_cell_length_b                    6.954227
_cell_length_c                    13.520344
_cell_angle_alpha                 90.0
_cell_angle_beta                  99.877119
_cell_angle_gamma                 90.0
_cell_volume                      1370.81326302

loop_
_atom_site_label
_atom_site_type_symbol
_atom_type_description
_atom_site_fract_x
_atom_site_fract_y
_atom_site_fract_z
_atom_type_partial_charge
O1    O     O_R   0.586930 0.505770 0.416350 -0.525574
O2    O     O_R   0.413070 0.005770 0.583650 -0.525577
O3    O     O_R   0.397900 0.173100 0.389630 -0.541379
O4    O     O_R   0.602100 0.673100 0.610370 -0.541378
C1    C     C_R   0.364628 0.345455 0.362519 0.792962
C2    C     C_R   0.635372 0.845455 0.637481 0.792963
O5    O     O_R   0.585280 0.175870 0.404330 -0.511216
O6    O     O_R   0.414720 0.675870 0.595670 -0.511214
O7    O     O_R   0.601790 0.008380 0.598460 -0.530138
O8    O     O_R   0.398210 0.508380 0.401540 -0.530138
C3    C     C_R   0.615795 0.344979 0.384061 0.720215
C4    C     C_R   0.384205 0.844979 0.615939 0.720216
O9    O     O_3   0.505200 0.340120 0.563670 -0.353844
O10   O     O_3   0.494800 0.840120 0.436330 -0.353843
V1    V     V_3+5 0.499040 0.064180 0.488190 1.575848
V2    V     V_3+5 0.500960 0.564180 0.511810 1.575851
C5    C     C_R   0.320321 0.999592 0.758156 0.060594
C6    C     C_R   0.679679 0.499593 0.241844 0.060592
C7    C     C_R   0.316253 0.855087 0.685127 -0.072911
C8    C     C_R   0.683747 0.355088 0.314872 -0.072912
C9    C     C_R   0.244043 0.722035 0.678781 -0.136928
C10   C     C_R   0.755957 0.222034 0.321218 -0.136928
H1    H     H_    0.232509 0.621951 0.617443 0.143231
H2    H     H_    0.767491 0.121950 0.382556 0.143230
C11   C     C_R   0.180670 0.728827 0.745426 -0.187763
C12   C     C_R   0.819329 0.228827 0.254574 -0.187761
H3    H     H_    0.125301 0.625058 0.736772 0.115553
H4    H     H_    0.874699 0.125057 0.263227 0.115553
C13   C     C_R   0.184402 0.877101 0.816967 -0.080036
C14   C     C_R   0.815597 0.377101 0.183033 -0.080035
C15   C     C_R   0.257094 0.008365 0.824149 0.064085
C16   C     C_R   0.742906 0.508366 0.175851 0.064084
C17   C     C_3   0.252541 0.222651 0.820155 -0.514802
C18   C     C_3   0.747460 0.722652 0.179846 -0.514800
C19   C     C_3   0.317145 0.213224 0.743428 -0.051243
C20   C     C_3   0.682856 0.713225 0.256572 -0.051242
H5    H     H_    0.283359 0.287172 0.893502 0.188271
H6    H     H_    0.716642 0.787174 0.106498 0.188273
H7    H     H_    0.182455 0.276954 0.790278 0.169172
H8    H     H_    0.817546 0.776953 0.209723 0.169171
C21   C     C_1   0.783342 0.877174 0.783052 -0.186293
C22   C     C_1   0.216658 0.377174 0.216948 -0.186293
C23   C     C_1   0.715942 0.860161 0.717074 -0.184219
C24   C     C_1   0.284058 0.360161 0.282926 -0.184219
O11   O     O_R   0.101720 0.231700 0.098560 -0.535763
O12   O     O_R   0.898280 0.731700 0.901440 -0.535763
O13   O     O_R   0.914700 0.558980 0.095690 -0.542046
O14   O     O_R   0.085300 0.058980 0.904310 -0.542046
C25   C     C_R   0.885242 0.389815 0.116779 0.700210
C26   C     C_R   0.114758 0.889815 0.883221 0.700211
O15   O     O_R   0.102080 0.561590 0.110390 -0.537127
O16   O     O_R   0.897920 0.061590 0.889610 -0.537127
O17   O     O_R   0.086950 0.728940 0.916330 -0.538807
O18   O     O_R   0.913050 0.228940 0.083670 -0.538807
C27   C     C_R   0.136056 0.391943 0.137367 0.734949
C28   C     C_R   0.863944 0.891943 0.862633 0.734950
O19   O     O_3   0.994770 0.394510 0.936380 -0.371108
O20   O     O_3   0.005230 0.894510 0.063620 -0.371108
V3    V     V_3+5 0.000970 0.670520 0.011800 1.419682
V4    V     V_3+5 0.999030 0.170520 0.988200 1.419682
C29   C     C_2   0.408697 0.309755 0.777791 0.854626
O21   O     O_2   0.411567 0.481344 0.797656 -0.558715
O22   O     O_R   0.489909 0.203313 0.786837 -0.664933
H9    H     H_    0.546479 0.284644 0.809766 0.283278
C30   C     C_2   0.591303 0.809756 0.222209 0.854628
O23   O     O_2   0.588434 0.981343 0.202340 -0.558716
O24   O     O_R   0.510092 0.703317 0.213168 -0.664932
H10   H     H_    0.453521 0.784647 0.190239 0.283278
C31   C     C_2   0.270021 0.265316 0.638561 0.292108
H11   H     H_    0.197240 0.237316 0.615671 0.039221
O25   O     O_2   0.312879 0.332437 0.577319 -0.529163
C32   C     C_2   0.729980 0.765316 0.361439 0.292105
H12   H     H_    0.802761 0.737317 0.384330 0.039221
O26   O     O_2   0.687121 0.832435 0.422682 -0.529164

loop_
_geom_bond_atom_site_label_1
_geom_bond_atom_site_label_2
_ccdc_geom_bond_type
O11   V4    S    
O12   V3    S    
O1    C3    A    
O2    C4    A    
C2    O7    A    
O17   V3    S    
O13   C25   A    
O18   V4    S    
O5    C3    A    
C17   H7    S    
C18   H8    S    
C7    C9    A    
O19   V3    S    
O20   V4    S    
C25   O18   A    
C31   O25   D    
C29   O22   S    
O16   V4    S    
C5    C7    A    
C30   O24   S    
C15   C17   S    
O10   V2    S    
C6    C8    A    
O14   C26   A    
O6    V2    S    
C21   C23   T    
C29   O21   D    
C22   C24   T    
O14   V4    S    
C13   C26   S    
C11   C13   A    
C3    C8    S    
C26   O17   A    
O24   H10   S    
C32   O26   D    
C20   C30   S    
O19   V4    S    
O20   V3    S    
C17   H5    S    
C16   C18   S    
O4    V2    S    
C21   C28   S    
C22   C27   S    
O6    C4    A    
C19   C29   S    
O1    V2    S    
O2    V1    S    
C19   C31   S    
O4    C2    A    
C1    C24   S    
C8    C10   A    
C12   C14   A    
C2    C23   S    
O9    V1    S    
C5    C15   A    
C10   H2    S    
C6    C16   A    
O3    V1    S    
C9    C11   A    
C18   H6    S    
C14   C25   S    
C32   H12   S    
O3    C1    A    
C11   H3    S    
C12   H4    S    
C9    H1    S    
O7    V1    S    
C1    O8    A    
C13   C15   A    
O8    V2    S    
C14   C16   A    
C4    C7    S    
O5    V1    S    
C17   C19   S    
C18   C20   S    
O15   C27   A    
C31   H11   S    
O13   V3    S    
O22   H9    S    
C20   C32   S    
O15   V3    S    
O11   C27   A    
C30   O23   D    
C10   C12   A    
O9    V2    S    
O12   C28   A    
O10   V1    S    
C5    C19   S    
C6    C20   S    
O16   C28   A    
