data_mof_unit_3704.cif
_audit_creation_date              2012-12-10T17:56:18-0500
_audit_creation_method            fapswitch 2.2
_symmetry_space_group_name_H-M    P1
_symmetry_Int_Tables_number       1
_space_group_crystal_system       triclinic
_cell_length_a                    13.170445
_cell_length_b                    10.793646
_cell_length_c                    9.519092
_cell_angle_alpha                 89.917218
_cell_angle_beta                  96.766815
_cell_angle_gamma                 90.242384
_cell_volume                      1343.76753197

loop_
_atom_site_label
_atom_site_type_symbol
_atom_type_description
_atom_site_fract_x
_atom_site_fract_y
_atom_site_fract_z
_atom_type_partial_charge
C1    C     C_R   0.503328 0.262386 0.500611 0.844026
C2    C     C_R   0.496641 0.737612 0.499382 0.845788
C3    C     C_R   0.493954 0.871550 0.498184 -0.112197
C4    C     C_R   0.505961 0.128450 0.501783 -0.114500
C5    C     C_R   0.463985 0.400243 0.068524 0.015165
C6    C     C_R   0.535993 0.599777 0.931470 -0.003809
C7    C     C_R   0.463560 0.400482 0.919878 0.045540
C8    C     C_R   0.536225 0.599642 0.080088 -0.007374
C9    C     C_R   0.300569 0.492582 0.473017 0.835739
C10   C     C_R   0.699684 0.506033 0.526696 0.846280
C11   C     C_R   0.813202 0.512472 0.541519 -0.190188
C12   C     C_R   0.187434 0.483323 0.456558 -0.169668
C13   C     C_R   0.024605 0.506958 0.311124 -0.182831
C14   C     C_R   0.976412 0.488507 0.686259 -0.212404
C15   C     C_R   0.129961 0.494280 0.321598 -0.036424
C16   C     C_R   0.871333 0.505014 0.676329 -0.016374
C17   C     C_R   0.134788 0.471080 0.578065 -0.126691
C18   C     C_R   0.865574 0.519097 0.418801 -0.027320
C19   C     C_R   0.028092 0.487341 0.565741 0.065988
C20   C     C_R   0.972570 0.505814 0.431482 0.077513
C21   C     C_R   0.565706 0.061313 0.414506 -0.023755
C22   C     C_R   0.434161 0.938687 0.585406 -0.011727
C23   C     C_R   0.557480 0.932879 0.412510 -0.202375
C24   C     C_R   0.442404 0.067128 0.587421 -0.201662
Cu1   Cu    Cu3+1 0.500000 0.500020 0.640660 1.028938
Cu2   Cu    Cu3+1 0.500000 0.499980 0.359340 1.030048
H1    H     H_    0.983553 0.515760 0.206073 0.180111
H2    H     H_    0.017921 0.480838 0.791095 0.183057
H3    H     H_    0.604444 0.879543 0.348546 0.188102
H4    H     H_    0.395428 0.120480 0.651355 0.193058
H5    H     H_    0.434766 0.320176 0.119223 0.152965
H6    H     H_    0.565172 0.679856 0.880767 0.157933
H7    H     H_    0.433515 0.320883 0.859698 0.153205
H8    H     H_    0.566214 0.679273 0.140258 0.159594
N1    N     N_R   0.500030 0.500030 0.852080 -0.168357
N2    N     N_R   0.499970 0.499970 0.147920 -0.170029
O1    O     O_R   0.499990 0.319660 0.618740 -0.598408
O2    O     O_R   0.500010 0.680340 0.381260 -0.596025
O3    O     O_R   0.499990 0.319630 0.381170 -0.574197
O4    O     O_R   0.500010 0.680370 0.618830 -0.572495
O5    O     O_R   0.349000 0.499990 0.599490 -0.550628
O6    O     O_R   0.651000 0.500010 0.400510 -0.551397
O7    O     O_R   0.348990 0.499960 0.361920 -0.564040
O8    O     O_R   0.651010 0.500040 0.638080 -0.567186
C25   C     C_2   0.809786 0.540107 0.276203 0.866294
O9    O     O_2   0.792745 0.645723 0.233545 -0.609319
O10   O     O_R   0.775115 0.438275 0.193304 -0.685044
H9    H     H_    0.730493 0.463317 0.103942 0.341238
C26   C     C_2   0.189793 0.436502 0.718114 0.883512
O11   O     O_2   0.211748 0.328306 0.743028 -0.556104
O12   O     O_R   0.217981 0.526545 0.820761 -0.708375
H10   H     H_    0.196765 0.612953 0.787817 0.332824
C27   C     C_2   0.827854 0.520870 0.811202 0.890590
O13   O     O_2   0.845002 0.443599 0.904891 -0.580287
O14   O     O_R   0.773419 0.628314 0.834458 -0.744549
H11   H     H_    0.753388 0.632483 0.933838 0.334420
C28   C     C_2   0.174737 0.486121 0.186809 0.921922
O15   O     O_2   0.162440 0.570778 0.101122 -0.554825
O16   O     O_R   0.225931 0.378513 0.154824 -0.738903
H12   H     H_    0.247817 0.380740 0.056362 0.360425
C29   C     C_2   0.641030 0.120305 0.330372 0.867660
O17   O     O_2   0.687715 0.213460 0.373714 -0.561313
O18   O     O_R   0.661361 0.066184 0.203289 -0.745042
H13   H     H_    0.714458 0.114028 0.156063 0.363409
C30   C     C_2   0.358746 0.879697 0.669408 0.859256
O19   O     O_2   0.312302 0.786339 0.626190 -0.599965
O20   O     O_R   0.338035 0.934050 0.796191 -0.741773
H14   H     H_    0.284879 0.886211 0.843308 0.352959

loop_
_geom_bond_atom_site_label_1
_geom_bond_atom_site_label_2
_ccdc_geom_bond_type
C12   C17   A    
O10   H9    S    
C6    H6    S    
O14   H11   S    
C5    N2    A    
C22   C30   S    
C9    O5    A    
C10   O6    A    
C15   C28   S    
C11   C16   A    
C2    O2    A    
C27   O14   S    
C21   C29   S    
C19   C20   A    
C12   C15   A    
C1    O1    A    
C1    C4    S    
Cu1   O1    S    
C22   C24   A    
C21   C23   A    
C2    C3    S    
Cu1   Cu2   S    
O16   H12   S    
C11   C18   A    
C8    H8    S    
C25   O9    D    
C4    C21   A    
C7    H7    S    
C28   O15   D    
C17   C26   S    
Cu1   N1    S    
O20   H14   S    
C23   H3    S    
Cu1   O8    S    
Cu2   N2    S    
C17   C19   A    
Cu2   O7    S    
C30   O19   D    
C18   C20   A    
C13   C15   A    
Cu1   O4    S    
C29   O17   D    
C4    C24   A    
C9    C12   S    
C14   C16   A    
Cu2   O3    S    
C9    O7    A    
C24   H4    S    
C28   O16   S    
C10   C11   S    
C1    O3    A    
C10   O8    A    
O12   H10   S    
C18   C25   S    
C2    O4    A    
C6    N1    A    
Cu2   O6    S    
C29   O18   S    
C26   O11   D    
C8    N2    A    
C25   O10   S    
Cu1   O5    S    
C5    C7    A    
C26   O12   S    
C16   C27   S    
C13   H1    S    
C3    C22   A    
C6    C8    A    
C13   C20   A    
C14   H2    S    
C3    C23   A    
C27   O13   D    
C7    N1    A    
C14   C19   A    
Cu2   O2    S    
C30   O20   S    
O18   H13   S    
C5    H5    S    
