data_mof_unit_4424.cif
_audit_creation_date              2013-03-05T16:30:41-0500
_audit_creation_method            fapswitch 2.2
_symmetry_space_group_name_H-M    P1
_symmetry_Int_Tables_number       1
_space_group_crystal_system       triclinic
_cell_length_a                    10.932925
_cell_length_b                    10.915622
_cell_length_c                    9.596107
_cell_angle_alpha                 89.931074
_cell_angle_beta                  87.653456
_cell_angle_gamma                 90.975485
_cell_volume                      1144.06811657

loop_
_atom_site_label
_atom_site_type_symbol
_atom_site_description
_atom_site_fract_x
_atom_site_fract_y
_atom_site_fract_z
_atom_type_partial_charge
O1    O     O_R   0.500000 0.319640 0.618810 -0.564927
O2    O     O_R   0.500010 0.319680 0.381230 -0.525320
C1    C     C_R   0.505039 0.262959 0.499179 0.906438
O3    O     O_R   0.321940 0.499980 0.618760 -0.554150
O4    O     O_R   0.321950 0.500020 0.381180 -0.544391
C2    C     C_R   0.265602 0.507722 0.503919 0.830923
Cu1   Cu    Cu3+1 0.499990 0.499980 0.640670 1.086088
Cu2   Cu    Cu3+1 0.500010 0.500020 0.359330 1.123289
O5    O     O_R   0.499990 0.680320 0.618770 -0.549331
O6    O     O_R   0.500000 0.680360 0.381190 -0.542004
O7    O     O_R   0.678050 0.499980 0.618820 -0.575868
O8    O     O_R   0.678060 0.500020 0.381240 -0.592625
C3    C     C_R   0.500176 0.737402 0.499025 0.887716
C4    C     C_R   0.733974 0.497078 0.496644 0.801254
C5    C     C_2   0.933363 0.580886 0.441852 -0.188911
C6    C     C_2   0.864468 0.483856 0.484065 0.258536
H1    H     H_    0.890516 0.668049 0.422123 0.195917
C7    C     C_2   0.066854 0.574755 0.420269 0.276938
C8    C     C_2   0.134078 0.527194 0.521231 0.170577
C9    C     C_R   0.481103 0.063096 0.617272 -0.108594
C10   C     C_R   0.506836 0.129985 0.495312 -0.180869
C11   C     C_R   0.523307 0.064866 0.367841 0.362384
C12   C     C_R   0.510498 0.936734 0.366767 0.271181
C13   C     C_R   0.498160 0.870740 0.494293 -0.187387
C14   C     C_R   0.484096 0.937731 0.616619 -0.089257
C15   C     C_3   0.531947 0.928335 0.760068 0.498723
C16   C     C_3   0.526855 0.070107 0.762952 0.496420
C17   C     C_R   0.587830 0.564025 0.069643 0.217034
N1    N     N_R   0.500780 0.500930 0.147930 -0.276378
C18   C     C_R   0.406745 0.445541 0.076337 0.435168
C19   C     C_R   0.406891 0.447984 0.928406 0.016692
H2    H     H_    0.333585 0.402824 0.874823 0.212422
N2    N     N_R   0.500780 0.500890 0.852020 -0.228107
C20   C     C_R   0.588309 0.563054 0.922550 0.223384
C21   C     C_3   0.722737 0.541734 0.911159 -0.394989
C22   C     C_3   0.722353 0.543622 0.069068 0.175924
H3    H     H_    0.745377 0.450233 0.867473 0.238572
H4    H     H_    0.773513 0.619684 0.859743 0.275429
H5    H     H_    0.747038 0.454726 0.116170 0.176259
N3    N     N_R   0.646817 0.132666 0.769857 0.145765
O9    O     O_R   0.730670 0.119816 0.670851 -0.262877
O10   O     O_R   0.671039 0.201236 0.876376 -0.249174
N4    N     N_R   0.307397 0.381230 0.147161 0.156145
O11   O     O_R   0.327038 0.277505 0.207989 -0.246523
O12   O     O_R   0.195837 0.405990 0.115802 -0.258111
Cl1   Cl    Cl    0.802187 0.673474 0.134249 -0.388012
Cl2   Cl    Cl    0.919538 0.332448 0.485768 -0.404758
N5    N     N_R   0.123209 0.635345 0.300383 0.154126
O13   O     O_R   0.071235 0.629867 0.181056 -0.183066
O14   O     O_R   0.210791 0.715555 0.316694 -0.293225
Cl3   Cl    Cl    0.070013 0.505323 0.693758 -0.448252
Cl4   Cl    Cl    0.571140 0.136829 0.208195 -0.361106
N6    N     N_R   0.512234 0.875361 0.235237 0.175161
O15   O     O_R   0.409960 0.837146 0.184767 -0.200401
O16   O     O_R   0.612936 0.870717 0.158960 -0.202629
Cl5   Cl    Cl    0.425166 0.846147 0.872734 -0.376021
N7    N     N_R   0.656607 0.880508 0.765751 0.134841
O17   O     O_R   0.716544 0.842678 0.654395 -0.345487
O18   O     O_R   0.711136 0.881502 0.883609 -0.184817
Cl6   Cl    Cl    0.412841 0.132912 0.881000 -0.395740

loop_
_geom_bond_atom_site_label_1
_geom_bond_atom_site_label_2
_geom_bond_distance
_ccdc_geom_bond_type
C5    C7    1.468327 S    
N4    O11   1.298350 A    
C19   N2    1.357075 A    
C22   Cl1   1.779555 S    
N1    C18   1.390012 A    
C9    C16   1.505508 S    
O4    Cu2   1.949422 S    
N4    O12   1.300884 A    
C21   C22   1.515313 S    
C16   N3    1.472256 S    
Cu2   O8    1.966469 S    
Cu1   O5    1.979457 S    
N5    O14   1.300770 A    
N2    C20   1.366125 A    
N7    O17   1.301812 A    
C17   C20   1.411370 A    
Cu1   Cu2   2.699759 S    
C10   C11   1.422098 A    
C9    C10   1.394973 A    
Cu1   O7    1.949421 S    
C2    C8    1.459934 S    
Cu1   N2    2.028545 S    
C15   C16   1.549720 S    
C18   C19   1.419716 A    
O3    Cu1   1.966469 S    
Cu2   N1    2.028302 S    
C6    Cl2   1.768850 S    
O3    C2    1.287682 A    
N5    O13   1.299979 A    
C21   H3    1.111541 S    
O8    C4    1.287296 A    
C12   N6    1.429250 S    
O2    C1    1.293063 A    
C16   Cl6   1.795083 S    
N6    O16   1.298639 A    
O4    C2    1.310117 A    
C3    C13   1.456692 S    
C15   N7    1.470803 S    
C4    C6    1.436588 S    
C18   N4    1.430695 S    
C1    C10   1.452460 S    
N7    O18   1.299872 A    
C9    C14   1.369405 A    
C12   C13   1.419762 A    
C5    C6    1.341647 D    
C8    Cl3   1.785204 S    
C21   H4    1.111782 S    
C7    C8    1.348486 D    
C13   C14   1.388309 A    
C17   C22   1.491024 S    
C11   Cl4   1.776233 S    
C20   C21   1.491525 S    
O7    C4    1.300555 A    
C5    H1    1.087440 S    
O5    C3    1.306404 A    
C11   C12   1.403357 A    
C17   N1    1.364688 A    
N3    O9    1.302360 A    
C14   C15   1.496516 S    
O1    Cu1   1.979922 S    
C22   H5    1.112016 S    
Cu2   O6    1.979921 S    
O2    Cu2   1.979457 S    
C19   H2    1.081956 S    
N6    O15   1.299145 A    
C15   Cl5   1.787542 S    
N3    O10   1.300940 A    
O1    C1    1.304380 A    
O6    C3    1.291566 A    
C7    N5    1.437629 S    
