data_mof_unit_3043.cif
_audit_creation_date              2012-12-11T16:45:53-0500
_audit_creation_method            fapswitch 2.2
_symmetry_space_group_name_H-M    P1
_symmetry_Int_Tables_number       1
_space_group_crystal_system       triclinic
_cell_length_a                    19.883501
_cell_length_b                    17.187914
_cell_length_c                    15.67656
_cell_angle_alpha                 89.997172
_cell_angle_beta                  52.448823
_cell_angle_gamma                 89.999323
_cell_volume                      4247.52083135

loop_
_atom_site_label
_atom_site_type_symbol
_atom_type_description
_atom_site_fract_x
_atom_site_fract_y
_atom_site_fract_z
_atom_type_partial_charge
C1    C     C_R   0.838757 0.670382 0.049807 -0.146595
C2    C     C_R   0.156403 0.311623 0.060204 0.103317
C3    C     C_1   0.566897 0.926587 0.637219 0.045484
C4    C     C_R   0.343628 0.811617 0.939761 0.103320
C5    C     C_R   0.656389 0.811623 0.060221 0.103322
C6    C     C_R   0.814977 0.643517 0.323039 0.038523
C7    C     C_R   0.185015 0.643529 0.676950 0.038522
C8    C     C_R   0.315089 0.143620 0.323090 0.038504
C9    C     C_R   0.685039 0.143508 0.676960 0.038518
C10   C     C_R   0.768135 0.680670 0.498819 0.013930
C11   C     C_R   0.231924 0.680635 0.501120 0.013884
C12   C     C_R   0.268189 0.180789 0.498883 0.013945
C13   C     C_R   0.161243 0.670382 0.950189 -0.146592
C14   C     C_R   0.731902 0.180649 0.501164 0.013907
C15   C     C_R   0.750334 0.676531 0.425906 0.014317
C16   C     C_R   0.249679 0.676534 0.574084 0.014333
C17   C     C_R   0.250439 0.176646 0.425921 0.014289
C18   C     C_R   0.749692 0.176516 0.574089 0.014332
C19   C     C_R   0.179381 0.216035 0.447567 0.253182
C20   C     C_R   0.820723 0.215967 0.552414 0.253222
C21   C     C_R   0.679302 0.715982 0.447579 0.253223
C22   C     C_R   0.320704 0.715985 0.552427 0.253232
C23   C     C_R   0.127880 0.258612 0.542586 -0.174982
C24   C     C_R   0.338732 0.170347 0.049861 -0.146558
C25   C     C_R   0.872147 0.258594 0.457421 -0.175001
C26   C     C_R   0.627882 0.758608 0.542567 -0.174991
C27   C     C_R   0.372150 0.758594 0.457421 -0.174978
C28   C     C_R   0.148571 0.262977 0.613418 0.036034
C29   C     C_R   0.851406 0.262958 0.386636 0.036025
C30   C     C_R   0.648628 0.762973 0.613347 0.036014
C31   C     C_R   0.351438 0.762939 0.386604 0.036048
C32   C     C_R   0.721192 0.726415 0.587894 0.071579
C33   C     C_R   0.278896 0.726360 0.412019 0.071528
C34   C     C_R   0.221167 0.226493 0.587989 0.071573
C35   C     C_R   0.661240 0.170386 0.950196 -0.146607
C36   C     C_R   0.778850 0.226393 0.412081 0.071568
C37   C     C_3   0.731915 0.672404 0.653611 -0.255860
C38   C     C_3   0.268242 0.672310 0.346277 -0.255824
C39   C     C_3   0.231892 0.172487 0.653709 -0.255774
C40   C     C_3   0.768151 0.172373 0.346354 -0.255846
C41   C     C_R   0.902073 0.302465 0.205865 -0.147588
C42   C     C_R   0.097858 0.302454 0.794189 -0.147648
C43   C     C_R   0.402085 0.802462 0.205853 -0.147583
C44   C     C_R   0.597943 0.802469 0.794129 -0.147603
C45   C     C_3   0.779185 0.618617 0.557111 0.004327
C46   C     C_R   0.892113 0.316342 0.298725 0.041335
C47   C     C_3   0.220939 0.618547 0.442809 0.004357
C48   C     C_3   0.279243 0.118735 0.557173 0.004254
C49   C     C_3   0.720875 0.118588 0.442863 0.004341
C50   C     C_2   0.789155 0.184500 0.938094 0.258836
C51   C     C_2   0.210829 0.184483 0.061938 0.258835
C52   C     C_2   0.289164 0.684493 0.938077 0.258841
C53   C     C_2   0.710842 0.684496 0.061912 0.258829
C54   C     C_2   0.283680 0.762484 0.943509 -0.249277
C55   C     C_2   0.716332 0.762489 0.056479 -0.249298
C56   C     C_2   0.783664 0.262492 0.943531 -0.249307
C57   C     C_R   0.107789 0.316328 0.701352 0.041329
C58   C     C_2   0.216338 0.262477 0.056474 -0.249318
C59   C     C_R   0.864391 0.386800 0.900541 -0.100166
C60   C     C_R   0.135615 0.386794 0.099452 -0.100137
C61   C     C_R   0.364404 0.886795 0.900527 -0.100164
C62   C     C_R   0.635607 0.886796 0.099461 -0.100177
C63   C     C_R   0.860123 0.579434 0.312664 -0.138488
C64   C     C_R   0.139861 0.579452 0.687325 -0.138429
C65   C     C_R   0.360211 0.079527 0.312736 -0.138369
C66   C     C_R   0.639882 0.079434 0.687338 -0.138479
C67   C     C_R   0.871141 0.300546 0.000052 0.048025
C68   C     C_R   0.392134 0.816334 0.298705 0.041270
C69   C     C_R   0.128864 0.300547 0.999946 0.048030
C70   C     C_R   0.371154 0.800541 0.000036 0.048021
C71   C     C_R   0.628858 0.800546 0.999954 0.048025
C72   C     C_R   0.860277 0.680515 0.223349 0.188201
C73   C     C_R   0.139726 0.680518 0.776644 0.188203
C74   C     C_R   0.360346 0.180569 0.223360 0.188216
C75   C     C_R   0.639740 0.180507 0.776646 0.188205
C76   C     C_R   0.908738 0.393641 0.300729 0.056479
C77   C     C_R   0.091227 0.393636 0.699296 0.056515
C78   C     C_R   0.408743 0.893638 0.300725 0.056635
C79   C     C_R   0.607916 0.816353 0.701261 0.041352
C80   C     C_R   0.591275 0.893649 0.699263 0.056478
C81   C     C_R   0.829722 0.583478 0.951231 0.219472
C82   C     C_R   0.170281 0.583474 0.048764 0.219474
C83   C     C_R   0.329712 0.083466 0.951250 0.219443
C84   C     C_R   0.670277 0.083476 0.048771 0.219466
C85   C     C_R   0.787023 0.642899 0.027093 -0.000626
C86   C     C_R   0.212980 0.642898 0.972900 -0.000635
C87   C     C_R   0.287000 0.142870 0.027138 -0.000598
C88   C     C_R   0.712975 0.142902 0.972910 -0.000620
C89   C     C_1   0.786336 0.707048 0.677710 0.179373
C90   C     C_R   0.843609 0.311625 0.939785 0.103322
C91   C     C_1   0.213863 0.706917 0.322079 0.179355
C92   C     C_1   0.286242 0.207167 0.677905 0.179322
C93   C     C_1   0.713741 0.207003 0.322225 0.179354
C94   C     C_1   0.876210 0.227553 0.040508 0.077989
C95   C     C_1   0.123789 0.227553 0.959501 0.077986
C96   C     C_1   0.376246 0.727544 0.040465 0.077996
C97   C     C_1   0.623794 0.727555 0.959496 0.077993
C98   C     C_1   0.933124 0.426578 0.362762 0.045499
C99   C     C_1   0.066843 0.426582 0.637261 0.045461
C100  C     C_1   0.433158 0.926562 0.362733 0.045484
H1    H     H_    0.826823 0.720320 0.097477 0.164974
H2    H     H_    0.328342 0.647640 0.274980 0.189580
H3    H     H_    0.171821 0.147774 0.725005 0.189562
H4    H     H_    0.828233 0.147709 0.275029 0.189563
H5    H     H_    0.846933 0.608763 0.521514 0.132214
H6    H     H_    0.153203 0.608674 0.478346 0.132200
H7    H     H_    0.346989 0.108922 0.521627 0.132226
H8    H     H_    0.653131 0.108725 0.478442 0.132204
H9    H     H_    0.224589 0.791871 0.973734 0.161412
H10   H     H_    0.775424 0.791877 0.026255 0.161412
H11   H     H_    0.724572 0.291879 0.973755 0.161414
H12   H     H_    0.173178 0.720321 0.902515 0.164988
H13   H     H_    0.275437 0.291853 0.026248 0.161437
H14   H     H_    0.911640 0.246067 0.171678 0.125653
H15   H     H_    0.088260 0.246060 0.828409 0.125684
H16   H     H_    0.411651 0.746068 0.171660 0.125640
H17   H     H_    0.588379 0.746067 0.828312 0.125662
H18   H     H_    0.862547 0.408214 0.837664 0.167098
H19   H     H_    0.137455 0.408198 0.162335 0.167090
H20   H     H_    0.362564 0.908211 0.837646 0.167099
H21   H     H_    0.637450 0.908205 0.162339 0.167098
H22   H     H_    0.846671 0.540578 0.374376 0.149027
H23   H     H_    0.326772 0.220264 0.097575 0.164995
H24   H     H_    0.153298 0.540604 0.625611 0.148978
H25   H     H_    0.346826 0.040722 0.374460 0.149005
H26   H     H_    0.653334 0.040581 0.625623 0.149004
H27   H     H_    0.673171 0.220329 0.902530 0.164981
H28   H     H_    0.071973 0.287282 0.561078 0.172505
H29   H     H_    0.928034 0.287302 0.438915 0.172477
H30   H     H_    0.571994 0.787318 0.561073 0.172485
H31   H     H_    0.428030 0.787305 0.438931 0.172491
H32   H     H_    0.671843 0.647734 0.724948 0.189561
I1    I     I_    0.705229 0.514525 0.592822 -0.287891
I2    I     I_    0.128346 0.803700 0.796012 -0.288073
I3    I     I_    0.371757 0.303745 0.203837 -0.288057
I4    I     I_    0.628370 0.303692 0.795984 -0.288080
I5    I     I_    0.803206 0.553774 0.843565 -0.383477
I6    I     I_    0.196816 0.553749 0.156407 -0.383509
I7    I     I_    0.303192 0.053770 0.843587 -0.383443
I8    I     I_    0.696794 0.053762 0.156435 -0.383495
I9    I     I_    0.141828 0.208830 0.347334 -0.340228
I10   I     I_    0.858313 0.208822 0.652602 -0.340173
I11   I     I_    0.641700 0.708830 0.347401 -0.340169
I12   I     I_    0.294896 0.514473 0.407237 -0.287920
I13   I     I_    0.358263 0.708859 0.652650 -0.340194
I14   I     I_    0.205360 0.014597 0.592792 -0.287921
I15   I     I_    0.794836 0.014503 0.407194 -0.287892
I16   I     I_    0.906287 0.122089 0.846161 -0.270089
I17   I     I_    0.093679 0.122099 0.153898 -0.270096
I18   I     I_    0.406292 0.622080 0.846135 -0.270051
I19   I     I_    0.593710 0.622081 0.153853 -0.270104
I20   I     I_    0.871659 0.803698 0.203978 -0.288102
N1    N     N_R   0.908660 0.628630 0.995840 -0.054056
N2    N     N_R   0.096530 0.421430 0.063580 -0.061767
N3    N     N_R   0.403470 0.921430 0.936420 -0.061763
N4    N     N_R   0.596530 0.921430 0.063580 -0.061770
N5    N     N_R   0.927500 0.575670 0.211370 -0.059978
N6    N     N_R   0.072500 0.575670 0.788630 -0.059978
N7    N     N_R   0.427500 0.075670 0.211370 -0.059989
N8    N     N_R   0.572500 0.075670 0.788630 -0.059976
N9    N     N_R   0.908660 0.365680 0.995820 -0.070133
N10   N     N_R   0.091340 0.365680 0.004180 -0.070135
N11   N     N_R   0.408660 0.865680 0.995820 -0.070130
N12   N     N_R   0.091340 0.628630 0.004160 -0.054055
N13   N     N_R   0.591340 0.865680 0.004180 -0.070134
N14   N     N_R   0.922310 0.631420 0.151980 -0.064544
N15   N     N_R   0.077690 0.631420 0.848020 -0.064550
N16   N     N_R   0.422310 0.131420 0.151980 -0.064565
N17   N     N_R   0.577690 0.131420 0.848020 -0.064541
N18   N     N_R   0.927500 0.426330 0.211360 -0.062705
N19   N     N_R   0.072500 0.426330 0.788640 -0.062697
N20   N     N_R   0.427500 0.926330 0.211360 -0.062695
N21   N     N_R   0.572500 0.926330 0.788640 -0.062705
N22   N     N_R   0.903470 0.570760 0.936440 -0.070220
N23   N     N_R   0.408660 0.128630 0.995840 -0.054046
N24   N     N_R   0.096530 0.570760 0.063560 -0.070218
N25   N     N_R   0.403470 0.070760 0.936440 -0.070218
N26   N     N_R   0.596530 0.070760 0.063560 -0.070226
N27   N     N_1   0.829032 0.734505 0.696663 -0.045608
N28   N     N_1   0.171205 0.734349 0.303045 -0.045620
N29   N     N_1   0.328874 0.234651 0.696945 -0.045632
N30   N     N_1   0.671057 0.234451 0.303245 -0.045621
N31   N     N_1   0.880368 0.167784 0.071067 -0.033895
N32   N     N_1   0.119626 0.167782 0.928953 -0.033890
N33   N     N_1   0.380426 0.667773 0.071001 -0.033899
N34   N     N_R   0.591340 0.128630 0.004160 -0.054060
N35   N     N_1   0.619642 0.667787 0.928936 -0.033894
N36   N     N_1   0.952886 0.453132 0.412354 -0.042684
N37   N     N_1   0.047086 0.453142 0.587664 -0.042700
N38   N     N_1   0.452944 0.953105 0.412306 -0.042660
N39   N     N_1   0.547143 0.953143 0.587616 -0.042684
N40   N     N_R   0.922310 0.368460 0.151950 -0.054901
N41   N     N_R   0.077690 0.368460 0.848050 -0.054898
N42   N     N_R   0.422310 0.868460 0.151950 -0.054905
N43   N     N_R   0.577690 0.868460 0.848050 -0.054901
N44   N     N_R   0.903470 0.421430 0.936420 -0.061765
Ni1   Ni    Ni4+2 0.000000 0.630300 0.000000 0.277623
Ni2   Ni    Ni4+2 0.500000 0.130300 0.000000 0.277626
Ni3   Ni    Ni4+2 1.000000 0.369700 0.000000 0.221573
Ni4   Ni    Ni4+2 0.500000 0.869700 0.000000 0.221582
Ni5   Ni    Ni4+2 0.988090 0.497570 0.863760 0.241345
Ni6   Ni    Ni4+2 0.011910 0.497570 0.136240 0.241339
Ni7   Ni    Ni4+2 0.488090 0.997570 0.863760 0.241346
Ni8   Ni    Ni4+2 0.511910 0.997570 0.136240 0.241338

loop_
_geom_bond_atom_site_label_1
_geom_bond_atom_site_label_2
_ccdc_geom_bond_type
N21   Ni7   S    
C83   C87   A    
C21   C26   A    
C4    C61   A    
N26   Ni8   S    
C27   H31   S    
C14   C18   A    
C11   C47   S    
C40   C93   S    
C12   C48   S    
C25   H29   S    
C70   N11   A    
C23   H28   S    
N8    Ni7   S    
C46   C76   A    
N23   N25   A    
C28   C57   S    
C6    C72   A    
C42   H15   S    
C71   C97   S    
C29   C36   A    
N16   Ni2   S    
C43   N42   A    
C40   H4    S    
N4    N13   A    
C80   N21   A    
C13   H12   S    
C3    N39   T    
C92   N29   T    
C14   C36   A    
C2    C60   A    
C95   N32   T    
C14   C49   S    
N1    Ni1   S    
C20   C25   A    
C76   C98   S    
C40   C49   S    
N18   N40   A    
C1    N1    A    
C89   N27   T    
N7    N16   A    
C49   I15   S    
C60   H19   S    
C35   C88   A    
N40   Ni3   S    
N20   Ni8   S    
C9    C66   A    
C98   N36   T    
C6    C15   S    
N20   N42   A    
N42   Ni4   S    
C45   H5    S    
C43   C68   A    
C72   I20   S    
C48   I14   S    
C13   C86   A    
N21   N43   A    
C67   C94   S    
N8    N17   A    
N25   Ni7   S    
N12   N24   A    
C30   C32   A    
C2    C69   A    
C41   H14   S    
C56   H11   S    
C26   H30   S    
C73   N15   A    
C38   C91   S    
C5    C55   S    
C47   H6    S    
C56   C90   S    
C28   C34   A    
C8    C65   A    
C19   I9    S    
C91   N28   T    
C61   H20   S    
C68   C78   A    
N3    Ni7   S    
C3    C80   S    
C61   N3    A    
C42   C57   A    
C4    C70   A    
N2    Ni6   S    
C52   C54   D    
N6    N15   A    
C49   H8    S    
C53   C55   D    
C25   C29   A    
C31   C68   S    
C31   C33   A    
C83   N25   A    
C65   N7    A    
C27   C31   A    
C34   C39   S    
C20   I10   S    
C36   C40   S    
C69   N10   A    
C21   I11   S    
C7    C73   A    
N13   Ni4   S    
C51   C87   S    
C99   N37   T    
N9    Ni3   S    
C75   I4    S    
N1    N22   A    
N3    N11   A    
N41   Ni3   S    
C47   I12   S    
C67   C90   A    
C50   C56   D    
C66   H26   S    
C54   H9    S    
C66   N8    A    
C59   C90   A    
C65   H25   S    
C6    C63   A    
N19   Ni5   S    
C42   N41   A    
C70   C96   S    
N23   Ni2   S    
C75   N17   A    
N24   Ni6   S    
C43   H16   S    
C58   H13   S    
C11   C16   A    
C67   N9    A    
C22   I13   S    
C11   C33   A    
C41   C46   A    
C93   N30   T    
C74   I3    S    
C10   C45   S    
C8    C74   A    
N15   Ni1   S    
C51   C58   D    
C32   C37   S    
C76   N18   A    
C51   I17   S    
C38   C47   S    
C30   C79   S    
C52   I18   S    
C7    C16   S    
C82   N24   A    
N11   Ni4   S    
C26   C30   A    
C59   H18   S    
C22   C27   A    
C55   H10   S    
C78   C100  S    
C83   I7    S    
C84   N26   A    
C84   I8    S    
C1    C85   A    
C23   C28   A    
C94   N31   T    
C63   N5    A    
C37   C45   S    
N4    Ni8   S    
C1    H1    S    
C39   C92   S    
C35   H27   S    
C63   H22   S    
N12   Ni1   S    
C19   C23   A    
C13   N12   A    
N43   Ni4   S    
C50   I16   S    
C97   N35   T    
C77   N19   A    
C44   N43   A    
C16   C22   A    
C41   N40   A    
C4    C54   S    
C72   N14   A    
C96   N33   T    
N2    N10   A    
C44   C79   A    
C100  N38   T    
C84   C88   A    
C69   C95   S    
N5    N14   A    
C2    C58   S    
C39   H3    S    
C50   C88   S    
C59   N44   A    
C45   I1    S    
C8    C17   S    
C37   H32   S    
C37   C89   S    
C29   C46   S    
C10   C15   A    
C81   N22   A    
C57   C77   A    
C52   C86   S    
N22   Ni5   S    
N14   Ni1   S    
C38   H2    S    
C64   H24   S    
C82   I6    S    
C12   C17   A    
C82   C86   A    
N44   Ni5   S    
N19   N41   A    
N7    Ni8   S    
C44   H17   S    
C35   N34   A    
C81   I5    S    
N10   Ni3   S    
C48   H7    S    
C17   C19   A    
C62   N4    A    
C5    C62   A    
C77   C99   S    
C18   C20   A    
C24   H23   S    
N34   Ni2   S    
C74   N16   A    
C24   C87   A    
C60   N2    A    
C7    C64   A    
N18   Ni6   S    
C79   C80   A    
N26   N34   A    
C10   C32   A    
C9    C18   S    
C15   C21   A    
C73   I2    S    
N9    N44   A    
C5    C71   A    
C71   N13   A    
C64   N6    A    
C53   I19   S    
N6    Ni5   S    
N17   Ni2   S    
C33   C38   S    
C53   C85   S    
N5    Ni6   S    
C9    C75   A    
C78   N20   A    
C24   N23   A    
C12   C34   A    
C62   H21   S    
C81   C85   A    
C39   C48   S    
