data_mof_unit_4831.cif
_audit_creation_date              2012-12-11T14:56:43-0500
_audit_creation_method            fapswitch 2.2
_symmetry_space_group_name_H-M    P1
_symmetry_Int_Tables_number       1
_space_group_crystal_system       triclinic
_cell_length_a                    10.611519
_cell_length_b                    10.727748
_cell_length_c                    17.049132
_cell_angle_alpha                 80.513948
_cell_angle_beta                  89.764467
_cell_angle_gamma                 120.021228
_cell_volume                      1648.93550615

loop_
_atom_site_label
_atom_site_type_symbol
_atom_type_description
_atom_site_fract_x
_atom_site_fract_y
_atom_site_fract_z
_atom_type_partial_charge
C1    C     C_R   0.222576 0.854033 0.128621 0.617682
C2    C     C_1   0.633804 0.307585 0.704829 0.080037
C3    C     C_R   0.639648 0.687233 0.818016 0.259581
C4    C     C_R   0.634001 0.273361 0.088639 0.590167
C5    C     C_R   0.642789 0.669889 0.739398 0.303855
C6    C     C_R   0.701390 0.789617 0.676588 -0.021451
C7    C     C_R   0.771470 0.932880 0.692057 0.286952
C8    C     C_R   0.776325 0.953915 0.769861 -0.113757
C9    C     C_R   0.701011 0.833522 0.832664 -0.066888
C10   C     C_R   0.081350 0.896503 0.791857 0.294564
C11   C     C_R   0.053172 0.886950 0.713711 -0.191356
C12   C     C_R   0.790866 0.441338 0.260499 0.323545
C13   C     C_R   0.048074 0.773734 0.681428 -0.074049
C14   C     C_R   0.058051 0.661555 0.731276 0.349210
C15   C     C_R   0.106055 0.680493 0.807755 0.225014
C16   C     C_R   0.601292 0.881760 0.131257 0.560908
C17   C     C_R   0.125681 0.804716 0.836204 0.002613
C18   C     C_R   0.683428 0.813476 0.358644 0.562770
C19   C     C_R   0.687386 0.392846 0.396572 0.623188
C20   C     C_R   0.105412 0.811451 0.359674 0.603353
C21   C     C_R   0.702985 0.762305 0.596247 0.593874
C22   C     C_R   0.674985 0.375397 0.623106 0.578703
C23   C     C_R   0.777075 0.421322 0.183042 0.333992
C24   C     C_R   0.028058 0.773901 0.596657 0.551561
C25   C     C_R   0.212930 0.856732 0.903067 0.592353
C26   C     C_R   0.613317 0.220826 0.859158 0.545647
C27   C     C_R   0.649019 0.863265 0.901920 0.542225
C28   C     C_R   0.518627 0.241162 0.220970 0.288160
C29   C     C_R   0.531351 0.266653 0.297859 0.334587
C30   C     C_R   0.668265 0.363202 0.317931 -0.066481
C31   C     C_3   0.223523 0.546200 0.818845 0.054494
C32   C     C_3   0.147840 0.382521 0.815639 -0.215739
C33   C     C_3   0.239283 0.350247 0.761963 -0.359788
C34   C     C_R   0.642000 0.318760 0.163466 -0.096857
C35   C     C_3   0.572798 0.535478 0.948473 0.059082
C36   C     C_3   0.424271 0.448012 0.000331 -0.228723
C37   C     C_3   0.432363 0.451004 0.089341 -0.401194
C38   C     C_1   0.635335 0.871801 0.211453 -0.017933
C39   C     C_1   0.662040 0.856043 0.279141 -0.015138
C40   C     C_1   0.182459 0.826665 0.211490 0.119061
C41   C     C_1   0.154339 0.822044 0.280239 0.116595
C42   C     C_1   0.620395 0.264282 0.775334 0.034209
Cr1   Cr    Cr6+3 0.402240 0.783890 0.019450 1.039605
Cr2   Cr    Cr6+3 0.382360 0.097900 0.991800 1.050666
Cr3   Cr    Cr6+3 0.715380 0.118170 0.988700 1.070427
Cr4   Cr    Cr6+3 0.936650 0.882420 0.465510 1.130872
Cr5   Cr    Cr6+3 0.605770 0.565620 0.493360 1.100225
Cr6   Cr    Cr6+3 0.921340 0.550490 0.496380 1.152537
F1    F     F_    0.387742 0.135614 0.204179 -0.619367
F2    F     F_    0.026641 0.537571 0.704848 -0.621517
F3    F     F_    0.413169 0.191949 0.353377 -0.571998
F4    F     F_    0.924937 0.535469 0.279691 -0.607183
F5    F     F_    0.896373 0.496930 0.128177 -0.579398
F6    F     F_    0.576329 0.532516 0.723830 -0.651318
F7    F     F_    0.831352 0.053098 0.632330 -0.598145
F8    F     F_    0.074157 0.002302 0.822097 -0.647037
H1    H     H_    0.037951 0.970565 0.677889 0.201848
H2    H     H_    0.650460 0.636275 0.970120 0.140730
H3    H     H_    0.625872 0.468554 0.952012 0.180629
H4    H     H_    0.352253 0.491210 0.979188 0.179467
H5    H     H_    0.367412 0.332804 0.991124 0.177580
H6    H     H_    0.369945 0.500039 0.108616 0.188829
H7    H     H_    0.546611 0.512176 0.104669 0.147505
H8    H     H_    0.375734 0.337473 0.123698 0.215149
H9    H     H_    0.823915 0.065428 0.779607 0.184154
H10   H     H_    0.316294 0.573907 0.855063 0.189174
H11   H     H_    0.273529 0.615037 0.758204 0.149451
H12   H     H_    0.128085 0.317432 0.876976 0.160928
H13   H     H_    0.039574 0.345944 0.792654 0.246512
H14   H     H_    0.288276 0.434946 0.706367 0.199544
H15   H     H_    0.168833 0.243823 0.743655 0.214763
H16   H     H_    0.326910 0.344633 0.794811 0.241864
O1    O     O_R   0.521780 0.757110 0.108900 -0.529550
O2    O     O_R   0.805020 0.410040 0.421340 -0.451197
O3    O     O_R   0.049240 0.685450 0.403290 -0.465419
O4    O     O_R   0.275160 0.783810 0.101120 -0.488295
O5    O     O_R   0.077520 0.903010 0.551800 -0.498747
O6    O     O_R   0.802980 0.872780 0.546830 -0.452913
O7    O     O_R   0.578090 0.681300 0.569920 -0.467750
O8    O     O_R   0.608530 0.436370 0.586530 -0.480647
O9    O     O_R   0.798770 0.401880 0.597100 -0.452771
O10   O     O_R   0.043450 0.677890 0.566230 -0.424116
O11   O     O_3   0.821250 0.666180 0.485090 -0.357385
O12   O     O_R   0.513330 0.228330 0.898660 -0.496104
O13   O     O_R   0.237900 0.972600 0.090980 -0.469254
O14   O     O_R   0.511190 0.220540 0.061620 -0.494142
O15   O     O_R   0.736920 0.257720 0.063840 -0.451448
O16   O     O_R   0.710450 0.984050 0.081720 -0.482586
O17   O     O_R   0.524090 0.765520 0.933110 -0.519282
O18   O     O_R   0.277300 0.791600 0.938160 -0.474527
O19   O     O_R   0.240210 0.981010 0.915190 -0.454303
O20   O     O_3   0.124981 0.575603 0.856974 -0.532936
O21   O     O_3   0.538853 0.558692 0.869538 -0.558640
O22   O     O_R   0.739230 0.266130 0.888050 -0.481340
O23   O     O_R   0.712580 0.991850 0.918770 -0.510432
O24   O     O_3   0.499990 0.999980 0.999980 -0.326317
O25   O     O_R   0.083770 0.911170 0.376030 -0.446619
O26   O     O_R   0.808770 0.880340 0.383890 -0.485143
O27   O     O_R   0.584340 0.689460 0.394160 -0.498581
O28   O     O_R   0.614320 0.443940 0.423590 -0.474678

loop_
_geom_bond_atom_site_label_1
_geom_bond_atom_site_label_2
_ccdc_geom_bond_type
Cr1   O1    S    
C31   H10   S    
C26   O22   A    
C27   O23   A    
C35   C36   S    
Cr5   O7    S    
C37   H6    S    
C7    C8    A    
C4    O15   A    
C31   H11   S    
C12   C23   A    
C9    C27   S    
C25   O18   A    
Cr1   O17   S    
C35   H2    S    
C3    C9    A    
C5    C6    A    
C36   C37   S    
Cr3   O15   S    
C38   C39   T    
C4    O14   A    
C10   C17   A    
Cr5   O27   S    
Cr6   O9    S    
C35   H3    S    
C24   O10   A    
C33   H16   S    
C37   H7    S    
C15   O20   S    
C20   O25   A    
C8    C9    A    
C21   O6    A    
C2    C22   S    
Cr5   O11   S    
C10   F8    S    
C1    C40   S    
C32   H12   S    
Cr4   O26   S    
C28   C34   A    
C8    H9    S    
C13   C14   A    
Cr6   O3    S    
Cr5   O8    S    
Cr2   O14   S    
Cr3   O22   S    
C12   F4    S    
C23   F5    S    
C35   O21   S    
C1    O13   A    
C4    C34   S    
C25   O19   A    
Cr1   O18   S    
C16   O1    A    
C22   O9    A    
Cr6   O2    S    
C5    F6    S    
Cr3   O16   S    
Cr4   O6    S    
Cr2   O12   S    
C6    C21   S    
Cr5   O28   S    
C13   C24   S    
C18   C39   S    
C29   C30   A    
Cr2   O24   S    
C28   F1    S    
C31   C32   S    
C23   C34   A    
C21   O7    A    
Cr1   O24   S    
C19   C30   S    
C3    O21   S    
C32   H13   S    
Cr2   O19   S    
C33   H14   S    
C7    F7    S    
C40   C41   T    
Cr4   O25   S    
C18   O27   A    
C36   H5    S    
Cr3   O23   S    
C37   H8    S    
C26   C42   S    
C29   F3    S    
Cr1   O4    S    
C15   C17   A    
C28   C29   A    
C26   O12   A    
C12   C30   A    
C1    O4    A    
C19   O2    A    
C3    C5    A    
Cr4   O5    S    
C19   O28   A    
C6    C7    A    
C20   C41   S    
Cr6   O11   S    
C17   C25   S    
C32   C33   S    
C22   O8    A    
C11   C13   A    
C14   F2    S    
C2    C42   T    
Cr6   O10   S    
C27   O17   A    
C10   C11   A    
C33   H15   S    
Cr4   O11   S    
C24   O5    A    
C20   O3    A    
C31   O20   S    
C16   O16   A    
C36   H4    S    
C14   C15   A    
C18   O26   A    
C11   H1    S    
Cr3   O24   S    
Cr2   O13   S    
C16   C38   S    
