data_mof_unit_977.cif
_audit_creation_date              2013-03-05T16:36:16-0500
_audit_creation_method            fapswitch 2.2
_symmetry_space_group_name_H-M    P1
_symmetry_Int_Tables_number       1
_space_group_crystal_system       triclinic
_cell_length_a                    27.853445
_cell_length_b                    9.068178
_cell_length_c                    7.777277
_cell_angle_alpha                 90.078841
_cell_angle_beta                  90.000024
_cell_angle_gamma                 89.99992
_cell_volume                      1964.38274292

loop_
_atom_site_label
_atom_site_type_symbol
_atom_site_description
_atom_site_fract_x
_atom_site_fract_y
_atom_site_fract_z
_atom_type_partial_charge
O1    O     O_R   0.500000 0.288390 0.642760 -0.576275
O2    O     O_R   0.500000 0.711610 0.357240 -0.576275
O3    O     O_R   0.500000 0.711610 0.642760 -0.565056
O4    O     O_R   0.500000 0.288390 0.357240 -0.565056
C1    C     C_R   0.499999 0.220027 0.499923 0.858302
C2    C     C_R   0.499999 0.779973 0.500077 0.858302
O5    O     O_R   0.430260 0.500000 0.642770 -0.563770
O6    O     O_R   0.569740 0.500000 0.357230 -0.563106
O7    O     O_R   0.569740 0.500000 0.642770 -0.563106
O8    O     O_R   0.430260 0.500000 0.357230 -0.563770
C3    C     C_R   0.407312 0.500000 0.500000 0.843649
C4    C     C_R   0.592727 0.500000 0.500000 0.842168
Cu1   Cu    Cu3+1 0.500000 0.500000 0.669080 1.075686
Cu2   Cu    Cu3+1 0.500000 0.500000 0.330920 1.075686
C5    C     C_R   0.177933 0.374371 0.544919 0.551247
C6    C     C_R   0.822279 0.628012 0.465362 0.550756
C7    C     C_R   0.177933 0.625626 0.455082 0.551248
C8    C     C_R   0.822279 0.371984 0.534630 0.550756
O9    O     O_2   0.202595 0.252779 0.591935 -0.512304
O10   O     O_2   0.797639 0.752131 0.428188 -0.510352
O11   O     O_2   0.202595 0.747219 0.408068 -0.512305
O12   O     O_2   0.797639 0.247865 0.571804 -0.510353
N1    N     N_R   0.202103 0.499999 0.500001 -0.457220
N2    N     N_R   0.798094 0.499998 0.499996 -0.457455
C9    C     C_R   0.278925 0.595661 0.608545 -0.106077
C10   C     C_R   0.721241 0.409652 0.385506 -0.107068
C11   C     C_R   0.278925 0.404337 0.391457 -0.106078
C12   C     C_R   0.721242 0.590344 0.614491 -0.107068
C13   C     C_R   0.329000 0.597274 0.608649 0.101514
C14   C     C_R   0.671168 0.407818 0.385428 0.103717
C15   C     C_R   0.329000 0.402726 0.391351 0.101514
C16   C     C_R   0.671169 0.592179 0.614571 0.103717
C17   C     C_R   0.253706 0.499999 0.500001 0.258459
C18   C     C_R   0.746474 0.499998 0.499997 0.258057
C19   C     C_R   0.101916 0.499998 0.499999 -0.042397
C20   C     C_R   0.898295 0.499998 0.499996 -0.043310
C21   C     C_R   0.127534 0.371624 0.543956 -0.025365
C22   C     C_R   0.872677 0.630672 0.466497 -0.024576
C23   C     C_R   0.127534 0.628373 0.456042 -0.025364
C24   C     C_R   0.872677 0.369323 0.533496 -0.024576
C25   C     C_R   0.102477 0.243657 0.587066 -0.143436
C26   C     C_R   0.897732 0.761158 0.435163 -0.142197
C27   C     C_R   0.102476 0.756339 0.412930 -0.143436
C28   C     C_R   0.897732 0.238838 0.564830 -0.142197
C29   C     C_R   0.354604 0.500000 0.500000 -0.137064
C30   C     C_R   0.645501 0.499999 0.500000 -0.139048
H1    H     H_    0.259407 0.330091 0.307603 0.181133
H2    H     H_    0.740763 0.660461 0.703032 0.181016
H3    H     H_    0.259407 0.669908 0.692398 0.181133
H4    H     H_    0.740762 0.339534 0.296964 0.181017
H5    H     H_    0.121325 0.143617 0.622349 0.191119
H6    H     H_    0.878881 0.863643 0.411267 0.188495
H7    H     H_    0.121324 0.856379 0.377646 0.191119
H8    H     H_    0.878881 0.136353 0.588726 0.188495
C31   C     C_R   0.974584 0.367177 0.535863 0.044662
C32   C     C_R   0.025631 0.631829 0.459475 0.043638
C33   C     C_R   0.974584 0.632818 0.464130 0.044662
C34   C     C_R   0.025632 0.368167 0.540519 0.043637
C35   C     C_R   0.949379 0.499998 0.499996 0.069799
C36   C     C_R   0.050836 0.499998 0.499997 0.070372
C37   C     C_R   0.947561 0.237285 0.565270 -0.209388
C38   C     C_R   0.052651 0.758409 0.414554 -0.211116
C39   C     C_R   0.947561 0.762711 0.434724 -0.209388
C40   C     C_R   0.052651 0.241586 0.585440 -0.211115
H9    H     H_    0.963613 0.131106 0.587439 0.133610
H10   H     H_    0.036597 0.861435 0.377304 0.138751
H11   H     H_    0.963613 0.868890 0.412556 0.133609
H12   H     H_    0.036598 0.138560 0.622686 0.138750
C41   C     C_1   0.499994 0.065416 0.499891 -0.115380
C42   C     C_1   0.499994 0.934584 0.500108 -0.115380
N3    N     N_1   0.500000 0.500000 0.076820 -0.015280
N4    N     N_1   0.500000 0.500000 0.923180 -0.015280
I1    I     I_    0.362678 0.243054 0.231033 -0.243279
I2    I     I_    0.637833 0.745073 0.784635 -0.242626
I3    I     I_    0.362678 0.756948 0.768965 -0.243278
I4    I     I_    0.637832 0.254922 0.215368 -0.242627

loop_
_geom_bond_atom_site_label_1
_geom_bond_atom_site_label_2
_geom_bond_distance
_ccdc_geom_bond_type
O5    Cu1   1.953247 S    
C31   C35   1.422075 A    
Cu2   N3    1.976205 S    
C20   C35   1.422857 A    
C11   C17   1.398777 A    
C5    O9    1.349970 S    
C7    N1    1.369001 A    
O1    C1    1.271406 A    
C40   H12   1.075844 S    
C19   C21   1.407943 A    
C22   C26   1.395467 A    
C10   H4    1.083002 S    
C16   I2    2.128093 S    
C15   I1    2.127459 S    
C34   C36   1.422097 A    
C32   C33   1.422329 A    
C7    C23   1.404026 A    
O7    Cu1   1.953244 S    
C5    C21   1.404027 A    
C8    C24   1.403990 A    
C27   H7    1.083779 S    
N1    C17   1.437299 S    
C1    C41   1.402038 S    
C8    N2    1.369232 A    
O3    Cu1   1.930084 S    
C6    O10   1.349933 S    
O3    C2    1.271850 A    
C5    N1    1.369001 A    
C12   C18   1.398577 A    
C6    N2    1.369233 A    
Cu1   Cu2   2.629965 S    
C21   C25   1.395423 A    
O2    C2    1.271406 A    
C10   C18   1.398576 A    
C33   C39   1.416688 A    
C9    C13   1.394821 A    
C39   H11   1.075711 S    
C38   H10   1.075843 S    
C11   C15   1.394821 A    
C12   C16   1.394805 A    
C4    C30   1.469943 S    
O8    Cu2   1.953247 S    
C23   C27   1.395424 A    
C34   C40   1.416731 A    
N2    C18   1.437789 S    
C32   C36   1.422095 A    
C13   C29   1.413737 A    
C19   C36   1.422748 A    
C19   C23   1.407943 A    
C37   H9    1.075709 S    
C14   I4    2.128092 S    
O5    C3    1.281196 A    
C20   C24   1.407858 A    
O6    C4    1.281732 A    
C9    C17   1.398779 A    
C10   C14   1.394808 A    
C32   C38   1.416730 A    
C3    C29   1.468102 S    
O1    Cu1   1.929525 S    
C11   H1    1.083036 S    
C2    C42   1.402038 S    
C12   H2    1.083005 S    
O6    Cu2   1.953244 S    
C8    O12   1.349932 S    
C16   C30   1.414851 A    
C14   C30   1.414850 A    
O4    C1    1.271850 A    
C13   I3    2.127460 S    
Cu1   N4    1.976205 S    
C28   C37   1.387988 A    
C20   C22   1.407857 A    
N3    N4    1.194902 T    
C31   C37   1.416688 A    
O4    Cu2   1.930085 S    
C41   C42   1.186418 T    
O2    Cu2   1.929524 S    
O7    C4    1.281731 A    
C9    H3    1.083037 S    
C33   C35   1.422075 A    
O8    C3    1.281196 A    
C28   H8    1.083701 S    
C24   C28   1.395467 A    
C15   C29   1.413738 A    
C31   C34   1.422329 A    
C6    C22   1.403990 A    
C25   C40   1.387996 A    
C26   C39   1.387985 A    
C25   H5    1.083780 S    
C27   C38   1.387996 A    
C26   H6    1.083701 S    
C7    O11   1.349968 S    
