data_mof_unit_546.cif
_audit_creation_date              2012-12-11T14:27:09-0500
_audit_creation_method            fapswitch 2.2
_symmetry_space_group_name_H-M    P1
_symmetry_Int_Tables_number       1
_space_group_crystal_system       triclinic
_cell_length_a                    15.05426
_cell_length_b                    14.916705
_cell_length_c                    14.906068
_cell_angle_alpha                 109.51473
_cell_angle_beta                  109.407657
_cell_angle_gamma                 109.503048
_cell_volume                      2576.38084348

loop_
_atom_site_label
_atom_site_type_symbol
_atom_type_description
_atom_site_fract_x
_atom_site_fract_y
_atom_site_fract_z
_atom_type_partial_charge
C1    C     C_R   0.005642 0.804709 0.098563 -0.162552
C2    C     C_R   0.692314 0.142124 0.691100 0.131245
C3    C     C_R   0.961789 0.501554 0.675228 0.131844
C4    C     C_R   0.675179 0.501429 0.957273 -0.002851
C5    C     C_R   0.992603 0.591433 0.297037 -0.135902
C6    C     C_R   0.211130 0.409286 0.907648 -0.137397
C7    C     C_R   0.311674 0.745384 0.222005 -0.143107
C8    C     C_R   0.954399 0.227060 0.041596 0.315371
C9    C     C_R   0.053543 0.236003 0.957748 -0.183422
C10   C     C_R   0.219458 0.746041 0.313026 -0.114492
C11   C     C_R   0.899879 0.410293 0.204663 -0.044155
C12   C     C_R   0.788019 0.201947 0.696040 -0.152346
C13   C     C_R   0.299451 0.591893 0.997189 -0.148688
C14   C     C_R   0.927633 0.501095 0.296523 0.104102
C15   C     C_R   0.302953 0.501184 0.938435 0.020654
C16   C     C_R   0.321195 0.770172 0.323968 0.129943
C17   C     C_R   0.023903 0.194023 0.019212 0.052865
C18   C     C_3   0.477490 0.416961 0.830535 -0.459034
C19   C     C_3   0.372945 0.416333 0.824305 -0.399910
C20   C     C_3   0.552733 0.473645 0.032356 0.213651
C21   C     C_3   0.587355 0.617426 0.972281 -0.375974
C22   C     C_3   0.575797 0.503109 0.948184 0.274779
C23   C     C_R   0.033708 0.592748 0.778477 -0.146286
C24   C     C_3   0.400073 0.502220 0.937580 0.332919
C25   C     C_3   0.449690 0.474138 0.025982 -0.447731
C26   C     C_3   0.484337 0.617145 0.967269 -0.393610
C27   C     C_2   0.432892 0.867561 0.523085 -0.115179
C28   C     C_2   0.423425 0.820289 0.424203 -0.180227
C29   C     C_2   0.535079 0.964163 0.617537 -0.105010
C30   C     C_2   0.607562 0.031426 0.603373 -0.188642
C31   C     C_2   0.843862 0.418398 0.477778 -0.105329
C32   C     C_2   0.924560 0.506554 0.574999 -0.186472
C33   C     C_2   0.835034 0.412992 0.374834 -0.102981
C34   C     C_R   0.685401 0.408623 0.938257 -0.121379
C35   C     C_2   0.883891 0.503540 0.370392 -0.121255
C36   C     C_2   0.147923 0.125463 0.065916 -0.137064
C37   C     C_2   0.052510 0.120422 0.047533 -0.129897
C38   C     C_2   0.166229 0.039128 0.078428 -0.114514
C39   C     C_2   0.115970 0.986307 0.119245 -0.196492
C40   C     C_R   0.942194 0.408741 0.685744 -0.117605
C41   C     C_R   0.777980 0.592828 0.027705 -0.035437
C42   C     C_R   0.697609 0.201926 0.788026 -0.111572
C43   C     C_R   0.095692 0.803339 0.006893 -0.117168
C44   C     C_R   0.071079 0.868561 0.072796 0.141818
H1    H     H_    0.985506 0.834757 0.161463 0.107056
H2    H     H_    0.184047 0.324511 0.854163 0.086317
H3    H     H_    0.375728 0.754171 0.202173 0.103039
H4    H     H_    0.101471 0.220554 0.920843 0.114977
H5    H     H_    0.197443 0.754278 0.376040 0.091607
H6    H     H_    0.830645 0.330403 0.167134 0.145607
H7    H     H_    0.351975 0.676804 0.024640 0.092007
H8    H     H_    0.465604 0.333242 0.808206 0.154667
H9    H     H_    0.492401 0.436618 0.769361 0.183656
H10   H     H_    0.336678 0.435670 0.760152 0.170975
H11   H     H_    0.815929 0.171899 0.640590 0.099661
H12   H     H_    0.312750 0.332467 0.799616 0.152507
H13   H     H_    0.539083 0.389355 0.010772 0.089978
H14   H     H_    0.390491 0.391795 0.006132 0.139766
H15   H     H_    0.656274 0.683293 0.055644 0.189220
H16   H     H_    0.602593 0.638298 0.911819 0.161260
H17   H     H_    0.449248 0.639612 0.905546 0.160420
H18   H     H_    0.507865 0.681126 0.049291 0.166810
H19   H     H_    0.467412 0.534662 0.106938 0.206935
H20   H     H_    0.361590 0.848684 0.532506 0.117956
H21   H     H_    0.067100 0.677986 0.799722 0.100489
H22   H     H_    0.495021 0.833921 0.415856 0.136976
H23   H     H_    0.541703 0.988818 0.697723 0.126964
H24   H     H_    0.601062 0.009686 0.523532 0.132254
H25   H     H_    0.797045 0.342095 0.473255 0.124350
H26   H     H_    0.974188 0.583211 0.582141 0.125999
H27   H     H_    0.805961 0.332311 0.309062 0.138466
H28   H     H_    0.907417 0.583914 0.432401 0.136128
H29   H     H_    0.206071 0.184131 0.057637 0.132002
H30   H     H_    0.991769 0.059273 0.050995 0.173521
H31   H     H_    0.201546 0.005900 0.033134 0.121760
H32   H     H_    0.621135 0.324088 0.893154 0.087283
H33   H     H_    0.087505 0.024468 0.170528 0.147953
H34   H     H_    0.892430 0.323948 0.620930 0.094141
H35   H     H_    0.801535 0.678592 0.063709 0.098009
H36   H     H_    0.643254 0.173921 0.817380 0.094955
H37   H     H_    0.157920 0.830883 0.985914 0.083507
H38   H     H_    0.013832 0.675096 0.347286 0.106343
N1    N     N_R   0.993980 0.704500 0.053430 -0.046909
N2    N     N_R   0.154170 0.443650 0.946570 -0.032444
N3    N     N_R   0.207180 0.704490 0.150760 -0.043600
N4    N     N_R   0.948740 0.295490 0.002840 -0.072890
N5    N     N_R   0.006020 0.295500 0.946570 -0.058024
N6    N     N_R   0.149890 0.704480 0.207030 -0.045783
N7    N     N_R   0.946310 0.443620 0.150760 -0.050659
N8    N     N_R   0.209610 0.556360 0.002840 -0.034535
N9    N     N_R   0.850110 0.295520 0.792970 -0.042775
N10   N     N_R   0.053690 0.556380 0.849240 -0.042438
N11   N     N_R   0.790390 0.443640 0.997160 -0.036122
N12   N     N_R   0.998260 0.443670 0.792970 -0.043834
N13   N     N_R   0.845830 0.556350 0.053430 -0.036059
N14   N     N_R   0.792820 0.295510 0.849240 -0.045332
N15   N     N_R   0.051260 0.704510 0.997160 -0.044846
N16   N     N_R   0.001740 0.556330 0.207030 -0.048466
Ni1   Ni    Ni4+2 0.997880 0.629240 0.129060 0.222784
Ni2   Ni    Ni4+2 0.002120 0.370760 0.870940 0.211072
Ni3   Ni    Ni4+2 0.129260 0.629260 0.000000 0.207845
Ni4   Ni    Ni4+2 0.870740 0.370740 0.000000 0.242190
Br1   Br    Br    0.862041 0.161349 0.090289 -0.652130
Br2   Br    Br    0.672986 0.569694 0.184688 -0.618074

loop_
_geom_bond_atom_site_label_1
_geom_bond_atom_site_label_2
_ccdc_geom_bond_type
C19   H12   S    
C16   C28   S    
C21   C26   S    
C42   H36   S    
C20   C25   S    
N14   Ni4   S    
C13   N8    A    
C27   C29   S    
C12   N9    A    
C3    C23   A    
C34   N11   A    
C37   H30   S    
C2    C12   A    
C18   H8    S    
C7    N3    A    
C10   N6    A    
C42   N14   A    
C39   H33   S    
C36   C37   D    
C26   H17   S    
C24   C26   S    
C21   H15   S    
C38   C39   D    
N7    Ni4   S    
C11   C14   A    
N13   Ni1   S    
C4    C41   A    
C18   C19   S    
C25   H19   S    
C18   H9    S    
N9    N14   A    
C13   H7    S    
C31   C33   S    
N9    Ni2   S    
C6    C15   A    
N11   N13   A    
N1    Ni1   S    
C21   C22   S    
N2    N8    A    
N6    Ni1   S    
C38   H31   S    
C4    C34   A    
C6    N2    A    
N2    Ni2   S    
C24   C25   S    
C21   H16   S    
C36   H29   S    
C14   C35   S    
N4    N5    A    
C32   H26   S    
C7    H3    S    
C28   H22   S    
C43   C44   A    
N8    Ni3   S    
C41   H35   S    
C29   C30   D    
C4    C22   S    
C11   N7    A    
C1    C44   A    
C31   C32   D    
N12   Ni2   S    
N10   N12   A    
C17   C37   S    
C5    C14   A    
N10   Ni3   S    
C19   H10   S    
C9    C17   A    
C15   C24   S    
C20   C22   S    
C3    C40   A    
C13   C15   A    
C43   H37   S    
C40   H34   S    
C25   H14   S    
N4    Ni4   S    
N3    Ni3   S    
N5    Ni2   S    
N3    N6    A    
C7    C16   A    
C6    H2    S    
C18   C22   S    
C43   N15   A    
C40   N12   A    
N11   Ni4   S    
C35   H28   S    
C39   C44   S    
C20   Br2   S    
C1    N1    A    
C8    C17   A    
N7    N16   A    
C2    C30   S    
C23   H21   S    
C36   C38   S    
C19   C24   S    
C26   H18   S    
C11   H6    S    
C29   H23   S    
C9    N5    A    
C5    H38   S    
C1    H1    S    
C41   N13   A    
C2    C42   A    
C33   C35   D    
C8    N4    A    
C3    C32   S    
C8    Br1   S    
C30   H24   S    
C12   H11   S    
C27   H20   S    
C33   H27   S    
C31   H25   S    
C5    N16   A    
C9    H4    S    
N16   Ni1   S    
N1    N15   A    
C27   C28   D    
C23   N10   A    
C10   C16   A    
C20   H13   S    
C10   H5    S    
N15   Ni3   S    
C34   H32   S    
