data_mof_unit_541.cif
_audit_creation_date              2012-10-26T20:32:01-0400
_audit_creation_method            fapswitch 2.2
_symmetry_space_group_name_H-M    P1
_symmetry_Int_Tables_number       1
_space_group_crystal_system       triclinic
_cell_length_a                    10.626265
_cell_length_b                    10.82131
_cell_length_c                    9.556778
_cell_angle_alpha                 90.358257
_cell_angle_beta                  90.663986
_cell_angle_gamma                 90.219897
_cell_volume                      1098.83125574

loop_
_atom_site_label
_atom_site_type_symbol
_atom_type_description
_atom_site_fract_x
_atom_site_fract_y
_atom_site_fract_z
_atom_type_partial_charge
C1    C     C_R   0.501503 0.262418 0.499523 0.560153
C2    C     C_R   0.529456 0.937721 0.624495 0.000589
C3    C     C_3   0.456653 0.933752 0.759119 0.160032
C4    C     C_R   0.259414 0.499869 0.499103 0.580086
C5    C     C_3   0.451117 0.074331 0.754809 -0.228436
C6    C     C_R   0.590163 0.563660 0.075368 0.169175
C7    C     C_R   0.406217 0.444328 0.072729 -0.016240
C8    C     C_R   0.406330 0.444106 0.924045 -0.016627
C9    C     C_R   0.589930 0.564025 0.927871 0.197373
C10   C     C_3   0.728008 0.540640 0.924256 -0.287381
C11   C     C_3   0.728326 0.540114 0.082410 -0.282953
C12   C     C_3   0.956954 0.602562 0.436405 -0.142342
C13   C     C_R   0.502573 0.737685 0.500302 0.537934
C14   C     C_R   0.740673 0.499970 0.500733 0.543066
C15   C     C_3   0.041532 0.399539 0.560768 0.280801
C16   C     C_3   0.956286 0.398975 0.429766 -0.125210
C17   C     C_3   0.877521 0.499646 0.501735 0.003308
C18   C     C_3   0.961951 0.498256 0.633878 -0.115703
C19   C     C_3   0.043670 0.600721 0.567842 -0.159460
C20   C     C_3   0.652694 0.901639 0.879322 0.007445
C21   C     C_3   0.703770 0.895981 0.028392 -0.389982
C22   C     C_3   0.999336 0.217440 0.674850 -0.009894
C23   C     C_3   0.038300 0.502204 0.365364 -0.148761
C24   C     C_3   0.058229 0.104351 0.742499 -0.378752
C25   C     C_3   0.122658 0.500325 0.497098 0.066235
C26   C     C_R   0.525146 0.065024 0.623269 -0.044172
C27   C     C_R   0.513169 0.129466 0.498182 0.006782
C28   C     C_R   0.519102 0.063622 0.371280 -0.162558
C29   C     C_R   0.519180 0.934861 0.372083 -0.164903
C30   C     C_R   0.515109 0.870886 0.499793 -0.020735
Cu1   Cu    Cu3+1 0.499990 0.499980 0.640670 0.955607
Cu2   Cu    Cu3+1 0.500010 0.500020 0.359330 0.932992
H1    H     H_    0.917629 0.316578 0.374146 0.095702
H2    H     H_    0.082407 0.683323 0.623022 0.107464
H3    H     H_    0.918375 0.686328 0.385219 0.112847
H4    H     H_    0.072219 0.504680 0.255966 0.118868
H5    H     H_    0.515799 0.886106 0.272846 0.155795
H6    H     H_    0.683902 0.991468 0.835437 0.120558
H7    H     H_    0.693968 0.825117 0.817053 0.145021
H8    H     H_    0.668931 0.811863 0.081072 0.161832
H9    H     H_    0.808239 0.894396 0.027507 0.088430
H10   H     H_    0.672512 0.978425 0.088207 0.143688
H11   H     H_    0.331841 0.396644 0.126996 0.117180
H12   H     H_    0.354612 0.110404 0.736043 0.120184
H13   H     H_    0.936426 0.185275 0.587942 0.125561
H14   H     H_    0.942558 0.266083 0.755251 0.120970
H15   H     H_    0.120262 0.133058 0.831331 0.149711
H16   H     H_    0.983169 0.042570 0.782296 0.086999
H17   H     H_    0.114717 0.052761 0.664583 0.150761
H18   H     H_    0.516777 0.110721 0.271610 0.138605
H19   H     H_    0.362508 0.889827 0.745039 0.127718
H20   H     H_    0.504219 0.121753 0.840579 0.148231
H21   H     H_    0.332133 0.396013 0.867315 0.137025
H22   H     H_    0.750608 0.448655 0.878759 0.137792
H23   H     H_    0.780906 0.619811 0.880109 0.116083
H24   H     H_    0.751643 0.448019 0.126518 0.151702
H25   H     H_    0.781668 0.618680 0.129820 0.120808
H26   H     H_    0.931911 0.495537 0.744244 0.098973
N1    N     N_R   0.500800 0.500930 0.147930 -0.233380
N2    N     N_R   0.500800 0.500890 0.852020 -0.233494
O1    O     O_R   0.500000 0.319640 0.618810 -0.500653
O2    O     O_3   0.095641 0.294806 0.624493 -0.559778
O3    O     O_R   0.500010 0.319680 0.381230 -0.511301
O4    O     O_R   0.316850 0.499950 0.618770 -0.491123
O5    O     O_R   0.316860 0.499990 0.381190 -0.515740
O6    O     O_R   0.499990 0.680320 0.618770 -0.485598
O7    O     O_R   0.500000 0.680360 0.381190 -0.503258
O8    O     O_R   0.683140 0.500010 0.618810 -0.516593
O9    O     O_R   0.683150 0.500050 0.381230 -0.509019
O10   O     O_3   0.519868 0.888370 0.880990 -0.546042

loop_
_geom_bond_atom_site_label_1
_geom_bond_atom_site_label_2
_ccdc_geom_bond_type
C8    H21   S    
Cu1   N2    S    
Cu1   O6    S    
C5    H20   S    
C29   C30   A    
C23   H4    S    
C7    H11   S    
C16   H1    S    
C22   O2    S    
C20   H6    S    
C9    C10   S    
Cu1   O1    S    
C15   C18   S    
Cu1   Cu2   S    
C12   C23   S    
C2    C30   A    
C9    N2    A    
C22   H13   S    
C6    C9    A    
C17   C18   S    
C7    C8    A    
C2    C26   A    
C8    N2    A    
C12   C17   S    
C10   H23   S    
C14   C17   S    
C20   O10   S    
C26   C27   A    
C4    O5    A    
C21   H8    S    
Cu2   O7    S    
C21   H9    S    
C1    O3    A    
C12   C19   S    
C7    N1    A    
C28   C29   A    
C22   H14   S    
C15   O2    S    
C18   H26   S    
C2    C3    S    
C16   C23   S    
C13   O6    A    
C23   C25   S    
Cu1   O8    S    
C19   C25   S    
C14   O9    A    
C22   C24   S    
C15   C25   S    
C10   C11   S    
C10   H22   S    
C5    C26   S    
C24   H16   S    
C4    C25   S    
C13   C30   S    
C6    C11   S    
C3    O10   S    
Cu1   O4    S    
C20   C21   S    
C24   H17   S    
C18   C19   S    
C13   O7    A    
C4    O4    A    
C29   H5    S    
C27   C28   A    
C1    C27   S    
C20   H7    S    
C3    H19   S    
C16   C17   S    
C14   O8    A    
C21   H10   S    
Cu2   N1    S    
C3    C5    S    
C11   H25   S    
C24   H15   S    
C28   H18   S    
C6    N1    A    
C5    H12   S    
Cu2   O9    S    
C11   H24   S    
C15   C16   S    
Cu2   O3    S    
Cu2   O5    S    
C12   H3    S    
C19   H2    S    
C1    O1    A    
