data_mof_unit_3371.cif
_audit_creation_date              2013-03-05T15:44:35-0500
_audit_creation_method            fapswitch 2.2
_symmetry_space_group_name_H-M    P1
_symmetry_Int_Tables_number       1
_space_group_crystal_system       triclinic
_cell_length_a                    8.298903
_cell_length_b                    17.436979
_cell_length_c                    19.189967
_cell_angle_alpha                 95.529202
_cell_angle_beta                  94.189472
_cell_angle_gamma                 95.360089
_cell_volume                      2742.48114986

loop_
_atom_site_label
_atom_site_type_symbol
_atom_site_description
_atom_site_fract_x
_atom_site_fract_y
_atom_site_fract_z
_atom_type_partial_charge
P1    P     P_3+3 0.970290 0.672580 0.555000 0.495697
O1    O     O_2   0.143190 0.684560 0.534150 -0.360271
O2    O     O_3   0.882350 0.590230 0.535560 -0.397482
O3    O     O_3   0.372640 0.639320 0.408320 -0.362160
O4    O     O_2   0.268665 0.774579 0.451903 -0.373198
O5    O     O_3   0.988089 0.692666 0.646311 -0.543340
O6    O     O_3   0.383926 0.767954 0.328995 -0.551762
C1    C     C_3   0.580426 0.852834 0.281460 -0.819946
H1    H     H_    0.486325 0.873587 0.245641 0.260968
H2    H     H_    0.594690 0.891648 0.331135 0.245800
P2    P     P_3+3 0.347000 0.441860 0.341200 0.537243
P3    P     P_3+3 0.910572 0.607281 0.283086 0.537073
O7    O     O_2   0.176230 0.464730 0.330450 -0.305450
O8    O     O_3   0.952380 0.601530 0.373300 -0.308555
O9    O     O_2   0.055303 0.578028 0.244796 -0.355660
O10   O     O_3   0.326423 0.341556 0.314558 -0.617925
O11   O     O_3   0.896091 0.705617 0.272219 -0.608671
C2    C     C_3   0.032195 0.739944 0.243461 0.252661
H3    H     H_    0.142601 0.717124 0.264117 0.186653
C3    C     C_3   0.013716 0.724753 0.162833 -0.755032
H4    H     H_    0.123981 0.750175 0.140559 0.228833
H5    H     H_    0.998222 0.661795 0.145604 0.248872
C4    C     C_3   0.731321 0.331888 0.311311 0.648957
H6    H     H_    0.621218 0.347771 0.336020 0.054804
C5    C     C_3   0.682631 0.278161 0.242955 -0.851812
H7    H     H_    0.638771 0.313760 0.202172 0.258331
H8    H     H_    0.790460 0.252269 0.223869 0.217910
Ba1   Ba    Ba6+2 0.157360 0.537160 0.466280 1.651319
C6    C     C_3   0.037685 0.629352 0.678522 0.221861
H9    H     H_    0.163558 0.621675 0.666796 0.098736
H10   H     H_    0.957742 0.575317 0.660432 0.093921
C7    C     C_3   0.030717 0.646057 0.757945 -0.073885
H11   H     H_    0.105365 0.607229 0.785703 0.104884
H12   H     H_    0.903101 0.634058 0.771162 0.132040
C8    C     C_3   0.207587 0.300265 0.348212 0.741528
H13   H     H_    0.115190 0.337084 0.366811 0.070362
C9    C     C_3   0.121399 0.234305 0.296346 -0.799497
H14   H     H_    0.070876 0.258074 0.248782 0.258528
H15   H     H_    0.022590 0.202245 0.320947 0.214307
H16   H     H_    0.205765 0.191705 0.280415 0.295924
P4    P     P_3+3 0.840010 0.327410 0.444950 0.522115
O12   O     O_2   0.667110 0.315390 0.465830 -0.295903
O13   O     O_3   0.927950 0.409760 0.464380 -0.350798
O14   O     O_3   0.437660 0.360670 0.591630 -0.345936
O15   O     O_3   0.828639 0.292975 0.355418 -0.667494
P5    P     P_3+3 0.880571 0.399596 0.718546 0.451158
O16   O     O_3   0.379150 0.537830 0.583060 -0.396946
O17   O     O_3   0.857920 0.398470 0.626650 -0.373097
O18   O     O_2   0.752781 0.449001 0.749638 -0.394857
O19   O     O_3   0.818154 0.306096 0.738114 -0.487298
Ba2   Ba    Ba6+2 0.652820 0.462830 0.533660 1.634883
P6    P     P_3+3 0.409221 0.740805 0.414465 0.477361
C10   C     C_3   0.530497 0.769294 0.295514 0.347733
H17   H     H_    0.632725 0.748310 0.326541 0.047220
H18   H     H_    0.698243 0.856928 0.257389 0.250897
O20   O     O_3   0.431150 0.462160 0.416880 -0.354988
C11   C     C_3   0.542236 0.696198 0.636236 0.419725
H19   H     H_    0.656450 0.673008 0.621422 0.090409
H20   H     H_    0.450471 0.687376 0.590284 0.102898
C12   C     C_3   0.578275 0.782689 0.657750 -0.872323
H21   H     H_    0.670828 0.793147 0.703350 0.285684
H22   H     H_    0.625495 0.812076 0.613634 0.197820
H23   H     H_    0.465619 0.807712 0.672288 0.282363
P7    P     P_3+3 0.457524 0.560379 0.671217 0.446907
O21   O     O_2   0.634060 0.535220 0.669530 -0.364673
O22   O     O_3   0.482622 0.660757 0.693067 -0.532453
H24   H     H_    0.906271 0.750781 0.141093 0.282208
C13   C     C_3   0.940339 0.258243 0.722304 0.380378
H25   H     H_    0.988952 0.268164 0.671104 0.054319
H26   H     H_    0.040002 0.268476 0.765061 0.060961
C14   C     C_3   0.870186 0.174018 0.717356 -0.849642
H27   H     H_    0.771076 0.162264 0.674416 0.274985
H28   H     H_    0.966646 0.135677 0.705885 0.206589
H29   H     H_    0.821153 0.161150 0.767755 0.265888
P8    P     P_3+3 0.399970 0.260482 0.594794 0.541129
C15   C     C_3   0.406743 0.298375 0.727328 0.480113
H30   H     H_    0.278752 0.309437 0.714969 -0.046566
O23   O     O_2   0.523904 0.222435 0.549479 -0.313930
O24   O     O_3   0.452528 0.239125 0.680189 -0.520592
H31   H     H_    0.487176 0.352586 0.725557 0.150865
H32   H     H_    0.390070 0.321932 0.839146 0.212078
C16   C     C_3   0.423363 0.274787 0.801509 -0.897183
H33   H     H_    0.550633 0.263710 0.815692 0.289824
H34   H     H_    0.341387 0.221488 0.805228 0.252980
H35   H     H_    0.771078 0.155962 0.457564 0.167149
H36   H     H_    0.581496 0.899550 0.453033 0.159946
C17   C     C_R   0.708444 0.724305 0.481018 -0.502959
C18   C     C_R   0.861724 0.747534 0.514222 0.317588
C19   C     C_R   0.918658 0.827653 0.523793 -0.232210
C20   C     C_R   0.819399 0.883781 0.500261 0.081601
C21   C     C_R   0.661530 0.858030 0.469776 -0.274420
C22   C     C_R   0.607307 0.778455 0.460137 0.228117
C23   C     C_R   0.884889 0.175483 0.488109 -0.229887
C24   C     C_R   0.941825 0.255633 0.495752 0.276583
C25   C     C_R   0.188188 0.225732 0.560397 0.265286
C26   C     C_R   0.130745 0.146645 0.553356 -0.228540
C27   C     C_R   0.977161 0.120491 0.518460 0.076976
C28   C     C_1   0.920364 0.036999 0.511811 0.022687
C29   C     C_1   0.875950 0.967300 0.507076 0.044079
C30   C     C_R   0.088963 0.279733 0.535287 -0.410430
H37   H     H_    0.207229 0.105443 0.573631 0.146999
H38   H     H_    0.037746 0.846028 0.550181 0.161879
H39   H     H_    0.664742 0.663381 0.473614 0.162200
H40   H     H_    0.133192 0.340553 0.541313 0.167032
C31   C     C_R   0.604519 0.534928 0.298373 -0.429856
C32   C     C_R   0.457493 0.491967 0.276398 0.272045
C33   C     C_R   0.408068 0.477307 0.204154 -0.159535
C34   C     C_R   0.510950 0.502301 0.153383 0.042874
C35   C     C_R   0.666397 0.539971 0.177401 -0.197367
C36   C     C_R   0.712954 0.555336 0.249622 0.348757
C37   C     C_R   0.488331 0.559152 0.038642 -0.267479
C38   C     C_R   0.431591 0.559530 0.967714 -0.082306
C39   C     C_R   0.341012 0.492515 0.931208 0.038850
C40   C     C_R   0.305134 0.428766 0.969142 -0.270783
C41   C     C_R   0.359452 0.429103 0.040469 0.367498
C42   C     C_R   0.454001 0.495148 0.076347 -0.011866
C43   C     C_R   0.133326 0.448499 0.827575 -0.276106
C44   C     C_R   0.086324 0.439985 0.755092 0.202424
C45   C     C_R   0.343217 0.507129 0.733120 0.269355
C46   C     C_R   0.393840 0.513331 0.805007 -0.200925
C47   C     C_R   0.288711 0.485131 0.853707 0.085918
C48   C     C_R   0.193214 0.467797 0.708518 -0.533042
H41   H     H_    0.513433 0.541570 0.822725 0.143103
H42   H     H_    0.554287 0.611338 0.065857 0.198467
H43   H     H_    0.289603 0.446856 0.188070 0.180912
H44   H     H_    0.238868 0.376481 0.942308 0.167312
H45   H     H_    0.047947 0.428008 0.863343 0.160280
H46   H     H_    0.750275 0.558379 0.140218 0.149418
H47   H     H_    0.155147 0.463315 0.652992 0.165413
H48   H     H_    0.639571 0.548083 0.354001 0.169814
C49   C     C_2   0.504485 0.718047 0.226811 0.964381
O25   O     O_2   0.605283 0.722257 0.183584 -0.650175
O26   O     O_R   0.366971 0.664823 0.212773 -0.794423
H49   H     H_    0.357215 0.638131 0.163189 0.321726
C50   C     C_2   0.553404 0.213394 0.249458 1.214194
O27   O     O_2   0.430749 0.206326 0.209359 -0.527827
O28   O     O_R   0.573701 0.158287 0.296834 -0.734258
H50   H     H_    0.685539 0.163990 0.322608 0.308369
N1    N     N_R   0.089863 0.726519 0.781925 0.301873
O29   O     O_R   0.232569 0.755145 0.767482 -0.353238
O30   O     O_R   0.996965 0.771050 0.815148 -0.322697
N2    N     N_R   0.287192 0.270648 0.408198 0.183587
O31   O     O_R   0.360864 0.320814 0.456839 -0.359533
O32   O     O_R   0.304908 0.197407 0.409963 -0.396212
C51   C     C_2   0.461052 0.633096 0.935850 1.013035
O33   O     O_2   0.589214 0.674022 0.950850 -0.594325
O34   O     O_R   0.340616 0.657346 0.890864 -0.781791
H51   H     H_    0.375071 0.709517 0.874648 0.377190
C52   C     C_2   0.049878 0.825866 0.267812 1.052306
O35   O     O_2   0.067634 0.873811 0.225849 -0.572151
O36   O     O_R   0.046791 0.851876 0.338880 -0.735985
H52   H     H_    0.026956 0.808127 0.369264 0.319284
N3    N     N_R   0.323888 0.360191 0.073907 0.231906
O37   O     O_R   0.183354 0.319694 0.060220 -0.353801
O38   O     O_R   0.439744 0.330878 0.108270 -0.380393
N4    N     N_R   0.826442 0.401436 0.295503 0.195030
O39   O     O_R   0.865152 0.456246 0.345810 -0.367929
O40   O     O_R   0.895822 0.404389 0.236919 -0.408371

loop_
_geom_bond_atom_site_label_1
_geom_bond_atom_site_label_2
_geom_bond_distance
_ccdc_geom_bond_type
C17   C18   1.386997 A    
Ba1   O16   2.792553 S    
C23   C24   1.423017 A    
C4    O15   1.393650 S    
C19   H38   1.082714 S    
N1    O30   1.300777 A    
P4    O12   1.518999 D    
C3    H24   1.110340 S    
C25   C26   1.406817 A    
C15   O24   1.404820 S    
C11   O22   1.402729 S    
C31   C36   1.392470 A    
P3    C36   1.838190 S    
H32   C16   1.109473 S    
Ba1   O20   2.898728 S    
P8    C25   1.856430 S    
C50   O27   1.219536 D    
C10   H17   1.110996 S    
C38   C51   1.481066 S    
P5    O18   1.544959 D    
C6    H9    1.102007 S    
P7    C45   1.840053 S    
O3    P6    1.758323 S    
C12   H23   1.110474 S    
O2    Ba1   2.904046 S    
C8    C9    1.531921 S    
O6    P6    1.753902 S    
Ba2   O20   2.791956 S    
C6    C7    1.530234 S    
H36   C21   1.082602 S    
C52   O36   1.397996 S    
O10   C8    1.399306 S    
C51   O33   1.223625 D    
C40   H44   1.083162 S    
Ba1   Ba2   4.560729 S    
C11   H20   1.111337 S    
C52   O35   1.221945 D    
C32   C33   1.408765 A    
C41   C42   1.419642 A    
C30   H40   1.081778 S    
C2    H3    1.095644 S    
C34   C35   1.415827 A    
P5    C44   1.846249 S    
C12   H22   1.107889 S    
P1    O1    1.518748 D    
C44   C48   1.392798 A    
C43   C47   1.418541 A    
C51   O34   1.395091 S    
H35   C23   1.082648 S    
O17   Ba2   2.764046 S    
O34   H51   1.012486 S    
C13   H25   1.111600 S    
P3    O11   1.761195 S    
P1    Ba1   3.343797 S    
O36   H52   1.012550 S    
O7    Ba1   2.806425 S    
C37   C42   1.405916 A    
C10   C49   1.509523 S    
N3    O38   1.297950 A    
C2    C52   1.516097 S    
C48   H47   1.082331 S    
C46   H41   1.081766 S    
O12   Ba2   2.784343 S    
P1    C18   1.856437 S    
C26   H37   1.083236 S    
C41   N3    1.432739 S    
P4    O13   1.547522 S    
C9    H16   1.104576 S    
C1    H18   1.110753 S    
C38   C39   1.422151 A    
O3    Ba1   2.771246 S    
C27   C28   1.478221 S    
C11   H19   1.109762 S    
Ba2   O21   2.806702 S    
C9    H15   1.108861 S    
P5    O17   1.757787 S    
P1    O5    1.746178 S    
C15   H30   1.109947 S    
C33   H43   1.081808 S    
C7    N1    1.461172 S    
C15   C16   1.519667 S    
C21   C22   1.408441 A    
C14   H28   1.110679 S    
O2    Ba2   2.783590 S    
C25   C30   1.404004 A    
C1    H1    1.111557 S    
C11   C12   1.520565 S    
O16   Ba2   2.897880 S    
C5    H7    1.106584 S    
C12   H21   1.110779 S    
P1    O2    1.547546 S    
C8    H13   1.102426 S    
C7    H12   1.112573 S    
O14   P8    1.753445 S    
C9    H14   1.109111 S    
P2    O10   1.763146 S    
C35   H46   1.082435 S    
P4    C24   1.882330 S    
P3    O9    1.553694 D    
C24   C30   1.396624 A    
C4    H6    1.105312 S    
C26   C27   1.410253 A    
P2    C32   1.837643 S    
O11   C2    1.402518 S    
O4    P6    1.546888 D    
C3    H4    1.111053 S    
C45   C46   1.403328 A    
C43   H45   1.082521 S    
C17   H39   1.082436 S    
O14   Ba2   2.770732 S    
C1    H2    1.106807 S    
C3    H5    1.108376 S    
C28   C29   1.229355 T    
C16   H34   1.110590 S    
O26   H49   1.012384 S    
N2    O32   1.302475 A    
P6    C22   1.838074 S    
O6    C10   1.415883 S    
C33   C34   1.414929 A    
C49   O25   1.222667 D    
C23   C27   1.422921 A    
C20   C29   1.478130 S    
O16   P7    1.761489 S    
C17   C22   1.388673 A    
C46   C47   1.415588 A    
C39   C40   1.407121 A    
C31   C32   1.385984 A    
C45   C48   1.391095 A    
C50   O28   1.398027 S    
N4    O39   1.291556 A    
C37   C38   1.408206 A    
C37   H42   1.083513 S    
C15   H31   1.109908 S    
P3    O8    1.754900 S    
C49   O26   1.394720 S    
C1    C10   1.531537 S    
C14   H29   1.110649 S    
N1    O29   1.301051 A    
C40   C41   1.408740 A    
C31   H48   1.082476 S    
C5    H8    1.109174 S    
O28   H50   1.011011 S    
P5    O19   1.748149 S    
Ba1   O13   2.782984 S    
C7    H11   1.107045 S    
C34   C42   1.508545 S    
N4    O40   1.303169 A    
N3    O37   1.301329 A    
C14   H27   1.111067 S    
C6    H10   1.111287 S    
C43   C44   1.406788 A    
P7    O21   1.569763 D    
P2    O7    1.512870 D    
O13   Ba2   2.904892 S    
C20   C21   1.409900 A    
P8    O24   1.748674 S    
P2    Ba1   3.357307 S    
C13   C14   1.519927 S    
C2    C3    1.538316 S    
C4    C5    1.541630 S    
C5    C50   1.503843 S    
P8    O23   1.549563 D    
C8    N2    1.447567 S    
O5    C6    1.396261 S    
C39   C47   1.508377 S    
C18   C19   1.422413 A    
C13   H26   1.110959 S    
C16   H33   1.110482 S    
C35   C36   1.404541 A    
P4    O15   1.757340 S    
N2    O31   1.292131 A    
O1    Ba1   2.783859 S    
O8    Ba1   2.763411 S    
C19   C20   1.421883 A    
C4    N4    1.453568 S    
O19   C13   1.403831 S    
P4    Ba2   3.344269 S    
P2    O20   1.558434 S    
P7    O22   1.749410 S    
