data_mof_unit_3812.cif
_audit_creation_date              2012-12-11T14:44:19-0500
_audit_creation_method            fapswitch 2.2
_symmetry_space_group_name_H-M    P1
_symmetry_Int_Tables_number       1
_space_group_crystal_system       triclinic
_cell_length_a                    18.731698
_cell_length_b                    11.05522
_cell_length_c                    18.726161
_cell_angle_alpha                 89.691802
_cell_angle_beta                  90.432964
_cell_angle_gamma                 90.191449
_cell_volume                      3877.68244744

loop_
_atom_site_label
_atom_site_type_symbol
_atom_type_description
_atom_site_fract_x
_atom_site_fract_y
_atom_site_fract_z
_atom_type_partial_charge
C1    C     C_R   0.729993 0.376217 0.145117 0.551877
C2    C     C_R   0.271164 0.375417 0.855416 0.558649
C3    C     C_R   0.229993 0.876216 0.145118 0.551894
C4    C     C_R   0.771159 0.875428 0.855412 0.558589
C5    C     C_R   0.533031 0.373060 0.923173 -0.057907
C6    C     C_R   0.501477 0.388976 0.067839 -0.052279
C7    C     C_R   0.032983 0.873106 0.923177 -0.057844
C8    C     C_R   0.001444 0.888974 0.067849 -0.052317
C9    C     C_R   0.039021 0.983778 0.958135 -0.079099
C10   C     C_R   0.020340 0.992627 0.029600 -0.056111
C11   C     C_R   0.539099 0.483731 0.958127 -0.079158
C12   C     C_R   0.520408 0.492607 0.029587 -0.056093
C13   C     C_R   0.677727 0.932617 0.028446 -0.164977
C14   C     C_R   0.315594 0.909158 0.966471 -0.165077
C15   C     C_R   0.177734 0.432608 0.028448 -0.164980
C16   C     C_R   0.815627 0.409233 0.966485 -0.165101
C17   C     C_R   0.690374 0.893225 0.959332 -0.162065
C18   C     C_R   0.303758 0.870034 0.035864 -0.159092
C19   C     C_R   0.190384 0.393208 0.959337 -0.162052
C20   C     C_R   0.803780 0.370083 0.035872 -0.159086
C21   C     C_R   0.753180 0.926518 0.924590 0.033333
C22   C     C_R   0.253824 0.929559 0.077865 0.059557
C23   C     C_R   0.253195 0.426485 0.924600 0.033329
C24   C     C_R   0.753826 0.429574 0.077866 0.059524
C25   C     C_R   0.804348 0.000134 0.960141 0.250550
C26   C     C_R   0.220838 0.035081 0.051681 0.268921
C27   C     C_R   0.304375 0.500068 0.960160 0.250507
C28   C     C_R   0.720832 0.535087 0.051681 0.268923
C29   C     C_R   0.791714 0.037028 0.028772 -0.120513
C30   C     C_R   0.226675 0.064731 0.979662 -0.118341
C31   C     C_R   0.291735 0.536977 0.028785 -0.120502
C32   C     C_R   0.726667 0.564739 0.979661 -0.118340
C33   C     C_R   0.730305 0.999722 0.064414 -0.034185
C34   C     C_R   0.272128 0.998400 0.936096 -0.018945
C35   C     C_R   0.230314 0.499703 0.064419 -0.034176
C36   C     C_R   0.772137 0.498432 0.936100 -0.018966
C37   C     C_R   0.500783 0.058344 0.464159 -0.150321
C38   C     C_R   0.501004 0.058981 0.536903 -0.148984
C39   C     C_R   0.000782 0.558344 0.464159 -0.150321
C40   C     C_R   0.001003 0.558982 0.536903 -0.148982
C41   C     C_R   0.496250 0.167724 0.574232 -0.028544
C42   C     C_R   0.503623 0.166637 0.425574 -0.032772
C43   C     C_R   0.996250 0.667724 0.574232 -0.028543
C44   C     C_R   0.003623 0.666637 0.425574 -0.032772
C45   C     C_R   0.529781 0.155615 0.147180 0.558052
C46   C     C_R   0.469980 0.153986 0.853036 0.557624
C47   C     C_R   0.029782 0.655614 0.147179 0.558047
C48   C     C_R   0.969981 0.653990 0.853035 0.557647
C49   C     C_R   0.498429 0.279850 0.537004 -0.001200
C50   C     C_R   0.499720 0.279232 0.461502 -0.003534
C51   C     C_R   0.998428 0.779850 0.537004 -0.001201
C52   C     C_R   0.999720 0.779232 0.461502 -0.003533
C53   C     C_R   0.789686 0.053642 0.482534 0.003222
C54   C     C_R   0.209974 0.052122 0.517169 0.002260
C55   C     C_R   0.289686 0.553641 0.482534 0.003218
C56   C     C_R   0.709974 0.552122 0.517169 0.002263
C57   C     C_R   0.789769 0.031737 0.555388 -0.122518
C58   C     C_R   0.209702 0.029971 0.444475 -0.125926
C59   C     C_R   0.289770 0.531736 0.555387 -0.122513
C60   C     C_R   0.709702 0.529971 0.444475 -0.125925
C61   C     C_R   0.743175 0.947632 0.585561 0.011749
C62   C     C_R   0.256601 0.946983 0.414542 0.007499
C63   C     C_R   0.243175 0.447631 0.585560 0.011749
C64   C     C_R   0.756601 0.446983 0.414542 0.007498
C65   C     C_R   0.683202 0.911140 0.547072 -0.158342
C66   C     C_R   0.316829 0.912039 0.453121 -0.158529
C67   C     C_R   0.183202 0.411140 0.547072 -0.158343
C68   C     C_R   0.816829 0.412039 0.453121 -0.158530
C69   C     C_R   0.678082 0.939098 0.474416 -0.164367
C70   C     C_R   0.321949 0.939995 0.525675 -0.163490
C71   C     C_R   0.178082 0.439098 0.474416 -0.164367
C72   C     C_R   0.821949 0.439995 0.525675 -0.163494
C73   C     C_R   0.733355 0.003256 0.439817 0.018806
C74   C     C_R   0.266480 0.002893 0.560093 0.019165
C75   C     C_R   0.233355 0.503256 0.439817 0.018806
C76   C     C_R   0.766480 0.502892 0.560093 0.019167
C77   C     C_R   0.726236 0.023156 0.140474 0.552364
C78   C     C_R   0.273978 0.022554 0.859521 0.565568
C79   C     C_R   0.226238 0.523153 0.140474 0.552355
C80   C     C_R   0.773980 0.522563 0.859520 0.565571
C81   C     C_R   0.732325 0.384360 0.349855 0.535322
C82   C     C_R   0.267636 0.384788 0.650252 0.544332
C83   C     C_R   0.232325 0.884360 0.349855 0.535324
C84   C     C_R   0.767636 0.884788 0.650252 0.544290
C85   C     C_R   0.531431 0.157210 0.353162 0.521759
C86   C     C_R   0.468477 0.157733 0.646732 0.526250
C87   C     C_R   0.031431 0.657210 0.353162 0.521754
C88   C     C_R   0.968477 0.657733 0.646732 0.526258
C89   C     C_R   0.727838 0.023427 0.361987 0.562469
C90   C     C_R   0.272074 0.023231 0.637879 0.570423
C91   C     C_R   0.227838 0.523427 0.361987 0.562468
C92   C     C_R   0.772073 0.523231 0.637879 0.570421
C93   C     C_R   0.502579 0.156415 0.925487 0.010380
C94   C     C_R   0.496028 0.164598 0.075389 -0.003900
C95   C     C_R   0.002586 0.656433 0.925483 0.010386
C96   C     C_R   0.996033 0.664593 0.075386 -0.003884
C97   C     C_R   0.511933 0.267843 0.960651 0.006441
C98   C     C_R   0.502852 0.273664 0.035393 -0.006954
C99   C     C_R   0.011917 0.767865 0.960652 0.006407
C100  C     C_R   0.002840 0.773669 0.035396 -0.006974
C101  C     C_R   0.484388 0.054001 0.039369 -0.040096
C102  C     C_R   0.499796 0.047484 0.966290 -0.029868
C103  C     C_R   0.984413 0.553997 0.039359 -0.040092
C104  C     C_R   0.999828 0.547498 0.966281 -0.029874
Cr1   Cr    Cr6+3 0.772000 0.169640 0.250110 1.051132
Cr2   Cr    Cr6+3 0.228000 0.169640 0.749890 1.053041
Cr3   Cr    Cr6+3 0.272000 0.669640 0.250110 1.051129
Cr4   Cr    Cr6+3 0.728000 0.669640 0.749890 1.053007
Cr5   Cr    Cr6+3 0.614960 0.323350 0.249260 1.027505
Cr6   Cr    Cr6+3 0.385040 0.323350 0.750740 1.009674
Cr7   Cr    Cr6+3 0.114960 0.823350 0.249260 1.027511
Cr8   Cr    Cr6+3 0.885040 0.823350 0.750740 1.009694
Cr9   Cr    Cr6+3 0.616670 0.010620 0.250840 1.016069
Cr10  Cr    Cr6+3 0.383330 0.010620 0.749160 1.009080
Cr11  Cr    Cr6+3 0.116670 0.510620 0.250840 1.016084
Cr12  Cr    Cr6+3 0.883330 0.510620 0.749160 1.009104
H1    H     H_    0.832599 0.069788 0.587622 0.159265
H2    H     H_    0.166632 0.067305 0.412248 0.165318
H3    H     H_    0.332600 0.569787 0.587621 0.159281
H4    H     H_    0.666632 0.567305 0.412248 0.165317
H5    H     H_    0.642291 0.857663 0.572644 0.140100
H6    H     H_    0.358080 0.860138 0.427652 0.141021
H7    H     H_    0.142291 0.357663 0.572644 0.140104
H8    H     H_    0.858080 0.360138 0.427652 0.141022
H9    H     H_    0.632340 0.905726 0.444781 0.139166
H10   H     H_    0.367979 0.907864 0.555366 0.137778
H11   H     H_    0.132340 0.405726 0.444781 0.139167
H12   H     H_    0.867978 0.407863 0.555366 0.137776
H13   H     H_    0.547094 0.369480 0.867263 0.121422
H14   H     H_    0.485049 0.400324 0.122622 0.130287
H15   H     H_    0.047043 0.869547 0.867266 0.121455
H16   H     H_    0.985021 0.900302 0.122635 0.130290
H17   H     H_    0.056257 0.063561 0.929223 0.103778
H18   H     H_    0.021169 0.079816 0.055647 0.123205
H19   H     H_    0.556370 0.563491 0.929216 0.103795
H20   H     H_    0.521257 0.579800 0.055630 0.123262
H21   H     H_    0.629678 0.903116 0.055313 0.141653
H22   H     H_    0.356481 0.867106 0.935409 0.119641
H23   H     H_    0.129680 0.403124 0.055311 0.141642
H24   H     H_    0.856543 0.367235 0.935435 0.119651
H25   H     H_    0.653684 0.830339 0.934879 0.174027
H26   H     H_    0.333047 0.793225 0.056356 0.131045
H27   H     H_    0.153690 0.330332 0.934881 0.174007
H28   H     H_    0.833081 0.293289 0.056367 0.131079
H29   H     H_    0.833810 0.086269 0.055950 0.137667
H30   H     H_    0.195286 0.137967 0.957817 0.119325
H31   H     H_    0.333835 0.586204 0.055965 0.137693
H32   H     H_    0.695268 0.637959 0.957813 0.119318
H33   H     H_    0.502762 0.970862 0.438440 0.149329
H34   H     H_    0.500525 0.971807 0.563644 0.148446
H35   H     H_    0.002762 0.470862 0.438440 0.149329
H36   H     H_    0.000525 0.471807 0.563644 0.148450
O1    O     O_R   0.787540 0.042690 0.170470 -0.530130
O2    O     O_R   0.212460 0.042690 0.829530 -0.514000
O3    O     O_R   0.287540 0.542690 0.170470 -0.530140
O4    O     O_R   0.712460 0.542690 0.829530 -0.514021
O5    O     O_R   0.556540 0.252920 0.323970 -0.509461
O6    O     O_R   0.443460 0.252920 0.676030 -0.512509
O7    O     O_R   0.056540 0.752920 0.323970 -0.509462
O8    O     O_R   0.943460 0.752920 0.676030 -0.512499
O9    O     O_R   0.545870 0.051100 0.330840 -0.513762
O10   O     O_R   0.454130 0.051100 0.669160 -0.519412
O11   O     O_R   0.045870 0.551100 0.330840 -0.513763
O12   O     O_R   0.954130 0.551100 0.669160 -0.519390
O13   O     O_R   0.681340 0.959300 0.325510 -0.521053
O14   O     O_R   0.318660 0.959300 0.674490 -0.514235
O15   O     O_R   0.181340 0.459300 0.325510 -0.521050
O16   O     O_R   0.818660 0.459300 0.674490 -0.514270
O17   O     O_3   0.667880 0.167870 0.250070 -0.294337
O18   O     O_3   0.332120 0.167870 0.749930 -0.297728
O19   O     O_3   0.167880 0.667870 0.250070 -0.294340
O20   O     O_3   0.832120 0.667870 0.749930 -0.297721
O21   O     O_R   0.765660 0.292160 0.175050 -0.516408
O22   O     O_R   0.234340 0.292160 0.824950 -0.523327
O23   O     O_R   0.265660 0.792160 0.175050 -0.516405
O24   O     O_R   0.734340 0.792160 0.824950 -0.523345
O25   O     O_R   0.670190 0.408980 0.168550 -0.471136
O26   O     O_R   0.329810 0.408980 0.831450 -0.471398
O27   O     O_R   0.170190 0.908980 0.168550 -0.471134
O28   O     O_R   0.829810 0.908980 0.831450 -0.471370
O29   O     O_R   0.556580 0.251450 0.175160 -0.521764
O30   O     O_R   0.443420 0.251450 0.824840 -0.511304
O31   O     O_R   0.056580 0.751450 0.175160 -0.521761
O32   O     O_R   0.943420 0.751450 0.824840 -0.511276
O33   O     O_R   0.545920 0.049510 0.170320 -0.476806
O34   O     O_R   0.454080 0.049510 0.829680 -0.467323
O35   O     O_R   0.045920 0.549510 0.170320 -0.476780
O36   O     O_R   0.954080 0.549510 0.829680 -0.467313
O37   O     O_R   0.681390 0.957840 0.176710 -0.535253
O38   O     O_R   0.318610 0.957840 0.823290 -0.516780
O39   O     O_R   0.181390 0.457840 0.176710 -0.535250
O40   O     O_R   0.818610 0.457840 0.823290 -0.516776
O41   O     O_R   0.787500 0.044280 0.330990 -0.454412
O42   O     O_R   0.212500 0.044280 0.669010 -0.444469
O43   O     O_R   0.287500 0.544280 0.330990 -0.454414
O44   O     O_R   0.712500 0.544280 0.669010 -0.444476
O45   O     O_R   0.765610 0.293630 0.323860 -0.499441
O46   O     O_R   0.234390 0.293630 0.676140 -0.501263
O47   O     O_R   0.265610 0.793630 0.323860 -0.499441
O48   O     O_R   0.734390 0.793630 0.676140 -0.501262
O49   O     O_R   0.670140 0.410570 0.329080 -0.509229
O50   O     O_R   0.329860 0.410570 0.670920 -0.516871
O51   O     O_R   0.170140 0.910570 0.329080 -0.509230
O52   O     O_R   0.829860 0.910570 0.670920 -0.516923
C105  C     C_2   0.458506 0.945210 0.079446 0.233613
H37   H     H_    0.472562 0.854199 0.064400 0.070912
O53   O     O_2   0.420371 0.957189 0.131550 -0.515302
C106  C     C_2   0.514780 0.927524 0.932974 0.218188
H38   H     H_    0.494177 0.844009 0.954577 0.047436
O54   O     O_2   0.552298 0.920773 0.880089 -0.509343
C107  C     C_2   0.958535 0.445192 0.079427 0.233592
H39   H     H_    0.972587 0.354185 0.064369 0.070886
O55   O     O_2   0.920403 0.457154 0.131535 -0.515273
C108  C     C_2   0.014843 0.427555 0.932957 0.218135
H40   H     H_    0.994282 0.344015 0.954566 0.047409
O56   O     O_2   0.052347 0.420850 0.880060 -0.509320
C109  C     C_2   0.852842 0.124656 0.458530 0.281803
H41   H     H_    0.874389 0.192899 0.494109 0.096648
O57   O     O_2   0.887759 0.098853 0.406232 -0.460530
C110  C     C_2   0.146964 0.122520 0.540920 0.276061
H42   H     H_    0.125813 0.191512 0.505343 0.098181
O58   O     O_2   0.111800 0.095460 0.593070 -0.469820
C111  C     C_2   0.352842 0.624656 0.458530 0.281802
H43   H     H_    0.374389 0.692900 0.494108 0.096650
O59   O     O_2   0.387759 0.598852 0.406232 -0.460531
C112  C     C_2   0.646964 0.622521 0.540920 0.276064
H44   H     H_    0.625813 0.691513 0.505343 0.098181
O60   O     O_2   0.611800 0.595461 0.593070 -0.469830
O61   O     O_3   0.872684 0.016063 0.933818 -0.541247
C113  C     C_3   0.881255 0.134749 0.907050 0.018668
H45   H     H_    0.907377 0.188069 0.949948 0.093031
H46   H     H_    0.829565 0.179028 0.892377 0.133865
C114  C     C_3   0.930829 0.133917 0.841651 -0.240403
H47   H     H_    0.975898 0.197820 0.850429 0.138544
H48   H     H_    0.954171 0.042685 0.834208 0.199987
C115  C     C_3   0.892522 0.170134 0.772479 -0.408071
H49   H     H_    0.844658 0.112767 0.763321 0.180021
H50   H     H_    0.929214 0.159296 0.726660 0.147149
H51   H     H_    0.875985 0.266101 0.774842 0.179844
O62   O     O_3   0.177456 0.102597 0.095060 -0.575104
C116  C     C_3   0.218590 0.193694 0.128602 -0.005419
H52   H     H_    0.179213 0.255591 0.151438 0.200134
H53   H     H_    0.251828 0.244905 0.089593 0.140416
C117  C     C_3   0.265357 0.147033 0.190883 -0.281268
H54   H     H_    0.231669 0.098108 0.230211 0.187693
H55   H     H_    0.306826 0.085069 0.170749 0.198109
C118  C     C_3   0.304084 0.250094 0.228847 -0.437009
H56   H     H_    0.337650 0.301655 0.190554 0.170005
H57   H     H_    0.339174 0.212617 0.271562 0.144939
H58   H     H_    0.265078 0.311625 0.253784 0.210923
O63   O     O_3   0.372720 0.515959 0.933853 -0.541298
C119  C     C_3   0.381296 0.634614 0.907036 0.018762
H59   H     H_    0.407367 0.688009 0.949931 0.093036
H60   H     H_    0.329610 0.678843 0.892296 0.133876
C120  C     C_3   0.430933 0.633708 0.841683 -0.240421
H61   H     H_    0.476106 0.697359 0.850563 0.138485
H62   H     H_    0.454121 0.542378 0.834172 0.200171
C121  C     C_3   0.392753 0.670291 0.772510 -0.408231
H63   H     H_    0.344829 0.613111 0.763237 0.179815
H64   H     H_    0.429484 0.659470 0.726723 0.147201
H65   H     H_    0.376337 0.766314 0.774968 0.179946
O64   O     O_3   0.677447 0.602597 0.095060 -0.575131
C122  C     C_3   0.718578 0.693697 0.128604 -0.005413
H66   H     H_    0.679198 0.755581 0.151451 0.200124
H67   H     H_    0.751805 0.744922 0.089594 0.140424
C123  C     C_3   0.765359 0.647035 0.190875 -0.281276
H68   H     H_    0.731682 0.598092 0.230205 0.187695
H69   H     H_    0.806832 0.585090 0.170731 0.198075
C124  C     C_3   0.804080 0.750100 0.228842 -0.437013
H70   H     H_    0.837636 0.801679 0.190548 0.170012
H71   H     H_    0.839179 0.712624 0.271549 0.144935
H72   H     H_    0.765072 0.811614 0.253789 0.210919
C125  C     C_2   0.499868 0.395197 0.577427 0.343337
H73   H     H_    0.532256 0.401889 0.625553 0.138916
O65   O     O_2   0.462669 0.480824 0.559803 -0.474391
C126  C     C_2   0.496791 0.393853 0.419767 0.347482
H74   H     H_    0.463663 0.398725 0.372033 0.132546
O66   O     O_2   0.533769 0.480777 0.435804 -0.464245
C127  C     C_2   0.999867 0.895197 0.577427 0.343341
H75   H     H_    0.032255 0.901890 0.625553 0.138925
O67   O     O_2   0.962668 0.980823 0.559803 -0.474394
C128  C     C_2   0.996790 0.893853 0.419767 0.347482
H76   H     H_    0.963663 0.898725 0.372032 0.132546
O68   O     O_2   0.033769 0.980777 0.435804 -0.464244

loop_
_geom_bond_atom_site_label_1
_geom_bond_atom_site_label_2
_ccdc_geom_bond_type
C58   C62   A    
C122  C123  S    
Cr1   O1    S    
C62   C83   S    
C120  H62   S    
Cr4   O48   S    
C101  C102  A    
Cr10  O38   S    
C48   C95   S    
C55   C59   A    
C85   O9    A    
C14   C18   A    
C121  H64   S    
C111  H43   S    
C78   O38   A    
C6    H14   S    
Cr5   O5    S    
Cr7   O51   S    
C68   H8    S    
C113  H46   S    
Cr3   O43   S    
C97   C98   A    
C45   O29   A    
O63   C119  S    
Cr8   O32   S    
Cr3   O19   S    
C105  H37   S    
C84   O48   A    
C15   C19   A    
C41   C86   S    
Cr12  O36   S    
C1    O21   A    
C128  H76   S    
O61   C113  S    
C57   C61   A    
Cr1   O17   S    
C96   C100  A    
C72   H12   S    
C56   C76   A    
C43   C88   S    
C64   C68   A    
C91   O15   A    
C28   O64   S    
C82   O46   A    
C25   O61   S    
C81   O45   A    
Cr9   O33   S    
C108  O56   D    
Cr10  O10   S    
C94   C98   A    
C55   C111  S    
C29   C33   A    
C58   H2    S    
C91   O43   A    
C117  H54   S    
C40   H36   S    
C113  C114  S    
C17   H25   S    
C116  H52   S    
C41   C49   A    
C37   C42   A    
C33   C77   S    
C118  H56   S    
C27   O63   S    
Cr10  O18   S    
C3    O27   A    
C77   O1    A    
C54   C74   A    
C1    O25   A    
C40   C43   A    
C20   C24   A    
C94   C101  A    
C117  H55   S    
C106  H38   S    
Cr2   O2    S    
C90   O42   A    
C8    H16   S    
C59   H3    S    
C127  H75   S    
C66   H6    S    
Cr10  O14   S    
C86   O10   A    
C65   H5    S    
Cr4   O44   S    
C44   C87   S    
C24   C28   A    
C9    C10   A    
C34   C78   S    
O64   C122  S    
C67   C71   A    
Cr6   O6    S    
C72   C76   A    
Cr2   O46   S    
Cr11  O39   S    
C70   H10   S    
Cr1   O45   S    
C32   C36   A    
Cr12  O40   S    
C120  C121  S    
C69   H9    S    
C79   O39   A    
C124  H70   S    
C90   O14   A    
Cr7   O27   S    
Cr2   O18   S    
C71   H11   S    
C16   H24   S    
C85   O5    A    
C4    O28   A    
C45   C94   S    
C101  C105  S    
C6    C12   A    
C15   C35   A    
C110  H42   S    
C114  C115  S    
C48   O32   A    
Cr5   O17   S    
C60   C64   A    
C30   H30   S    
C15   H23   S    
C118  H57   S    
C53   C109  S    
C63   C67   A    
C71   C75   A    
C127  O67   D    
C30   C34   A    
C63   C82   S    
C27   C31   A    
C51   C52   A    
C6    C98   A    
C14   H22   S    
C18   H26   S    
C86   O6    A    
C38   C41   A    
Cr11  O19   S    
C115  H49   S    
C36   C80   S    
C47   C96   S    
C103  C107  S    
C39   C40   A    
C82   O50   A    
C62   C66   A    
C108  H40   S    
C78   O2    A    
C81   O49   A    
C109  H41   S    
C88   O12   A    
Cr2   O42   S    
Cr9   O9    S    
C31   H31   S    
C123  C124  S    
C17   C21   A    
C56   C60   A    
C67   H7    S    
C68   C72   A    
C116  H53   S    
C13   H21   S    
C7    C99   A    
C19   C23   A    
C73   C89   S    
C70   C74   A    
C37   C38   A    
C11   H19   S    
Cr12  O20   S    
Cr11  O35   S    
C92   O16   A    
C107  H39   S    
Cr4   O4    S    
C28   C32   A    
C16   C20   A    
C87   O7    A    
C89   O41   A    
C104  C108  S    
Cr7   O31   S    
C125  H73   S    
Cr2   O22   S    
C51   C127  S    
C112  H44   S    
C42   C85   S    
C46   O34   A    
C69   C73   A    
C49   C125  S    
C114  H48   S    
C47   O31   A    
C89   O13   A    
C39   C44   A    
C123  H69   S    
C76   C92   S    
C119  C120  S    
Cr6   O18   S    
C83   O51   A    
C107  O55   D    
C52   C128  S    
C42   C50   A    
C26   C30   A    
C23   C27   A    
C124  H71   S    
C5    C11   A    
C4    O24   A    
C54   C58   A    
C31   C35   A    
C59   C63   A    
C35   C79   S    
C121  H65   S    
Cr8   O52   S    
C57   H1    S    
C83   O47   A    
C120  H61   S    
C45   O33   A    
C93   C97   A    
C103  C104  A    
C80   O4    A    
C95   C104  A    
C119  H60   S    
C12   H20   S    
C114  H47   S    
C118  H58   S    
Cr5   O29   S    
C7    C9    A    
C21   C25   A    
C19   H27   S    
Cr8   O8    S    
Cr11  O15   S    
C18   C22   A    
Cr3   O47   S    
C128  O68   D    
Cr12  O12   S    
C8    C10   A    
C53   C73   A    
C10   H18   S    
Cr9   O13   S    
Cr7   O7    S    
C92   O44   A    
C61   C84   S    
C53   C57   A    
C93   C102  A    
C14   C34   A    
Cr9   O17   S    
C20   H28   S    
C111  O59   D    
C48   O36   A    
C13   C33   A    
C32   H32   S    
C75   C91   S    
C109  O57   D    
Cr9   O37   S    
C66   C70   A    
C112  O60   D    
C54   C110  S    
Cr10  O34   S    
C115  H51   S    
Cr8   O28   S    
C110  O58   D    
Cr6   O50   S    
C116  C117  S    
C77   O37   A    
C46   O30   A    
Cr5   O49   S    
C121  H63   S    
C8    C100  A    
C37   H33   S    
C55   C75   A    
C7    H15   S    
C3    O23   A    
C117  C118  S    
C122  H67   S    
C99   C100  A    
C2    O22   A    
C25   C29   A    
C29   H29   S    
C4    C21   S    
Cr1   O41   S    
C44   C52   A    
Cr8   O20   S    
C46   C93   S    
Cr3   O23   S    
C56   C112  S    
C43   C51   A    
Cr4   O20   S    
C65   C69   A    
C74   C90   S    
Cr4   O24   S    
C122  H66   S    
C5    H13   S    
O62   C116  S    
C125  O65   D    
C115  H50   S    
C5    C97   A    
C95   C99   A    
C88   O8    A    
C61   C65   A    
Cr11  O11   S    
C113  H45   S    
C39   H35   S    
Cr3   O3    S    
C64   C81   S    
C102  C106  S    
C123  H68   S    
C80   O40   A    
C60   H4    S    
C79   O3    A    
C13   C17   A    
C87   O11   A    
C26   O62   S    
C126  H74   S    
Cr6   O30   S    
C1    C24   S    
C106  O54   D    
C49   C50   A    
C22   C26   A    
C124  H72   S    
C50   C126  S    
C2    C23   S    
Cr5   O25   S    
Cr6   O26   S    
Cr12  O16   S    
C3    C22   S    
Cr1   O21   S    
C2    O26   A    
C47   O35   A    
C84   O52   A    
C96   C103  A    
C105  O53   D    
C126  O66   D    
C38   H34   S    
C16   C36   A    
C11   C12   A    
C119  H59   S    
Cr7   O19   S    
C9    H17   S    
