data_mof_unit_2730.cif
_audit_creation_date              2013-03-05T16:06:02-0500
_audit_creation_method            fapswitch 2.2
_symmetry_space_group_name_H-M    P1
_symmetry_Int_Tables_number       1
_space_group_crystal_system       triclinic
_cell_length_a                    10.9019
_cell_length_b                    9.607058
_cell_length_c                    23.567851
_cell_angle_alpha                 90.010628
_cell_angle_beta                  91.799067
_cell_angle_gamma                 90.005729
_cell_volume                      2467.16645675

loop_
_atom_site_label
_atom_site_type_symbol
_atom_site_description
_atom_site_fract_x
_atom_site_fract_y
_atom_site_fract_z
_atom_type_partial_charge
O1    O     O_R   0.319640 0.618740 0.500000 -0.536061
O2    O     O_R   0.680360 0.381260 0.500000 -0.528743
O3    O     O_R   0.680360 0.618740 0.500000 -0.536141
O4    O     O_R   0.319640 0.381260 0.500000 -0.528673
C1    C     C_R   0.262700 0.500024 0.504115 0.933656
C2    C     C_R   0.737302 0.500033 0.495891 0.933326
O5    O     O_R   0.499960 0.618810 0.417880 -0.556391
O6    O     O_R   0.500040 0.381190 0.582120 -0.535003
O7    O     O_R   0.500040 0.618810 0.582120 -0.556432
O8    O     O_R   0.499960 0.381190 0.417880 -0.535003
C3    C     C_R   0.499724 0.499254 0.391169 0.941698
C4    C     C_R   0.500282 0.499278 0.608831 0.941521
Cu1   Cu    Cu3+1 0.500000 0.640660 0.500000 1.144945
Cu2   Cu    Cu3+1 0.500000 0.359340 0.500000 1.164230
C5    C     C_R   0.603441 0.450509 0.881729 0.687025
C6    C     C_R   0.395987 0.451340 0.118267 0.686916
N1    N     N_R   0.495642 0.476216 0.852067 -0.438875
N2    N     N_R   0.503904 0.476505 0.147924 -0.438878
C7    C     C_R   0.388244 0.496260 0.879836 0.692380
C8    C     C_R   0.611367 0.496021 0.120151 0.692460
C9    C     C_R   0.384886 0.479308 0.939314 -0.123696
C10   C     C_R   0.614654 0.478922 0.060675 -0.123683
C11   C     C_R   0.498100 0.469180 0.970046 -0.053831
C12   C     C_R   0.501396 0.469266 0.029946 -0.053834
C13   C     C_R   0.608290 0.458988 0.941023 -0.090269
C14   C     C_R   0.391164 0.459721 0.058972 -0.090262
C15   C     C_R   0.274266 0.473051 0.969391 0.421347
C16   C     C_R   0.725245 0.472029 0.030599 0.421385
C17   C     C_R   0.278775 0.458878 0.028393 -0.120368
C18   C     C_R   0.720682 0.457694 0.971601 -0.120282
O9    O     O_2   0.706057 0.418916 0.853820 -0.428297
O10   O     O_2   0.293242 0.420359 0.146184 -0.428358
O11   O     O_2   0.286438 0.534518 0.849879 -0.386690
O12   O     O_2   0.713313 0.533872 0.150106 -0.386688
H1    H     H_    0.193277 0.451357 0.050440 0.244642
H2    H     H_    0.806149 0.449688 0.949552 0.244600
C19   C     C_R   0.578005 0.393182 0.242286 0.375018
C20   C     C_R   0.421416 0.393362 0.757639 0.375142
C21   C     C_R   0.583026 0.406415 0.301461 0.293931
C22   C     C_R   0.416581 0.406631 0.698466 0.293789
C23   C     C_R   0.499283 0.494436 0.328586 -0.322534
C24   C     C_R   0.500555 0.494501 0.671413 -0.322380
C25   C     C_R   0.411743 0.570781 0.295653 0.217118
C26   C     C_R   0.588132 0.570687 0.704405 0.217105
C27   C     C_R   0.425896 0.578969 0.236340 0.339739
C28   C     C_R   0.574045 0.578641 0.763728 0.339514
C29   C     C_R   0.503777 0.484023 0.209222 0.021126
C30   C     C_R   0.495860 0.483878 0.790770 0.021260
C31   C     C_R   0.062774 0.373067 0.506081 0.351189
C32   C     C_R   0.937119 0.627455 0.494157 0.348880
C33   C     C_R   0.937201 0.373084 0.493877 0.351051
C34   C     C_R   0.062915 0.627437 0.505924 0.348870
C35   C     C_R   0.871776 0.500203 0.492560 -0.342645
C36   C     C_R   0.128228 0.500181 0.507456 -0.342582
C37   C     C_R   0.441374 0.074353 0.457311 0.330477
C38   C     C_R   0.558128 0.926563 0.542699 0.316383
C39   C     C_R   0.558638 0.074390 0.542684 0.330457
C40   C     C_R   0.441853 0.926523 0.457302 0.316283
N3    N     N_R   0.500000 0.852070 0.500000 -0.312482
N4    N     N_R   0.500000 0.147930 0.500000 -0.310665
Cl1   Cl    Cl    0.126761 0.472157 0.936295 -0.379314
Cl2   Cl    Cl    0.872746 0.470535 0.063695 -0.379426
Cl3   Cl    Cl    0.662294 0.259161 0.209862 -0.337501
Cl4   Cl    Cl    0.336655 0.259644 0.789987 -0.337459
Cl5   Cl    Cl    0.695223 0.311104 0.341120 -0.370107
Cl6   Cl    Cl    0.304314 0.311555 0.658716 -0.370403
N5    N     N_R   0.301473 0.621651 0.321215 0.205511
O13   O     O_R   0.252436 0.550973 0.361816 -0.315332
O14   O     O_R   0.239567 0.725497 0.299482 -0.140746
N6    N     N_R   0.698325 0.621754 0.678858 0.205334
O15   O     O_R   0.747764 0.550818 0.638433 -0.314925
O16   O     O_R   0.759715 0.726202 0.700433 -0.140524
Cl7   Cl    Cl    0.349129 0.708193 0.195096 -0.359384
Cl8   Cl    Cl    0.651494 0.707160 0.805104 -0.359603
Cl9   Cl    Cl    0.130779 0.211593 0.526134 -0.299786
Cl10  Cl    Cl    0.868454 0.789329 0.475095 -0.327209
Cl11  Cl    Cl    0.869153 0.211652 0.473750 -0.299982
Cl12  Cl    Cl    0.131628 0.789261 0.525071 -0.327269
N7    N     N_R   0.379252 0.145484 0.411484 0.180474
O17   O     O_R   0.426575 0.145270 0.361489 -0.241573
O18   O     O_R   0.264727 0.179941 0.415893 -0.225380
N8    N     N_R   0.618108 0.856779 0.588922 0.177464
O19   O     O_R   0.566386 0.858340 0.637915 -0.260265
O20   O     O_R   0.735423 0.834193 0.587030 -0.200520
N9    N     N_R   0.620833 0.145566 0.588490 0.180459
O21   O     O_R   0.735421 0.179769 0.584078 -0.225252
O22   O     O_R   0.573515 0.145515 0.638485 -0.241728
N10   N     N_R   0.381737 0.856699 0.411105 0.177503
O23   O     O_R   0.264401 0.834256 0.413039 -0.200493
O24   O     O_R   0.433357 0.858159 0.362088 -0.260282

loop_
_geom_bond_atom_site_label_1
_geom_bond_atom_site_label_2
_geom_bond_distance
_ccdc_geom_bond_type
C15   C17   1.396564 A    
C21   Cl5   1.771148 S    
N1    C30   1.446610 S    
O3    C2    1.303531 A    
N2    C29   1.446500 S    
C21   C23   1.412031 A    
N9    O21   1.299010 A    
O5    C3    1.309644 A    
O1    C1    1.303527 A    
C7    C9    1.412851 A    
C12   C14   1.404337 A    
C5    C13   1.399130 A    
C31   C36   1.414176 A    
C38   C39   1.420200 A    
C27   Cl7   1.770899 S    
O7    Cu1   1.946768 S    
C4    C24   1.475536 S    
C15   Cl1   1.765110 S    
C26   C28   1.413370 A    
C31   C33   1.390010 A    
C32   C34   1.390622 A    
C11   C12   1.411046 A    
C31   Cl9   1.777083 S    
C26   N6    1.446295 S    
N6    O15   1.301798 A    
C19   C29   1.408726 A    
C20   C30   1.408670 A    
O3    Cu1   1.977531 S    
C8    O12   1.347739 S    
C22   C24   1.412077 A    
C9    C15   1.419188 A    
C10   C16   1.419182 A    
Cu1   Cu2   2.702658 S    
C23   C25   1.415980 A    
O2    C2    1.304007 A    
C24   C26   1.415940 A    
C34   Cl12  1.777635 S    
C19   Cl3   1.769217 S    
C34   C36   1.414755 A    
C20   Cl4   1.769099 S    
C27   C29   1.412592 A    
C6    C14   1.399126 A    
C28   C30   1.412690 A    
C32   C35   1.414763 A    
N9    O22   1.301010 A    
N5    O13   1.301825 A    
C1    C36   1.470575 S    
C7    O11   1.347720 S    
N7    O18   1.299018 A    
C39   N4    1.371035 A    
C40   N3    1.373457 A    
C22   Cl6   1.771273 S    
C33   C35   1.414185 A    
C33   Cl11  1.777084 S    
C32   Cl10  1.777639 S    
C37   N7    1.430583 S    
O6    C4    1.297295 A    
C5    O9    1.349986 S    
C25   C27   1.413360 A    
C25   N5    1.446529 S    
N10   O24   1.300885 A    
N8    O20   1.299391 A    
C9    C11   1.414689 A    
O8    Cu2   1.946768 S    
C10   C12   1.414735 A    
O1    Cu1   1.977490 S    
C2    C35   1.470578 S    
C28   Cl8   1.770857 S    
C13   C18   1.401932 A    
C5    N1    1.370893 A    
O6    Cu2   1.946690 S    
C8    C10   1.412855 A    
O4    C1    1.304013 A    
C40   N10   1.421184 S    
C38   N8    1.421065 S    
Cu1   N3    2.031028 S    
C6    O10   1.349966 S    
Cu2   N4    2.031029 S    
C17   H1    1.083707 S    
C38   N3    1.373325 A    
C18   H2    1.083747 S    
C16   C18   1.396555 A    
C19   C21   1.399730 A    
C20   C22   1.399751 A    
N1    C7    1.372714 A    
C39   N9    1.430529 S    
C3    C23   1.475540 S    
N2    C8    1.372681 A    
C11   C13   1.404331 A    
O4    Cu2   1.977532 S    
O2    Cu2   1.977489 S    
O7    C4    1.309656 A    
O8    C3    1.297291 A    
N7    O17   1.301025 A    
O5    Cu1   1.946690 S    
N10   O23   1.299422 A    
C14   C17   1.401874 A    
C6    N2    1.370897 A    
N8    O19   1.300883 A    
C37   C40   1.420226 A    
N6    O16   1.300638 A    
N5    O14   1.300680 A    
C37   N4    1.370998 A    
C16   Cl2   1.765125 S    
