data_mof_unit_4529.cif
_audit_creation_date              2012-12-10T19:16:29-0500
_audit_creation_method            fapswitch 2.2
_symmetry_space_group_name_H-M    P1
_symmetry_Int_Tables_number       1
_space_group_crystal_system       triclinic
_cell_length_a                    10.735905
_cell_length_b                    9.761223
_cell_length_c                    27.33031
_cell_angle_alpha                 90.335651
_cell_angle_beta                  88.946224
_cell_angle_gamma                 89.398849
_cell_volume                      2863.4007617

loop_
_atom_site_label
_atom_site_type_symbol
_atom_type_description
_atom_site_fract_x
_atom_site_fract_y
_atom_site_fract_z
_atom_type_partial_charge
C1    C     C_R   0.257617 0.500537 0.504810 0.952606
C2    C     C_R   0.264974 0.477577 0.975372 0.091183
C3    C     C_R   0.450466 0.621480 0.980989 -0.028651
C4    C     C_R   0.497107 0.499787 0.405738 0.991047
C5    C     C_R   0.365961 0.546572 0.952656 0.076828
C6    C     C_R   0.169955 0.427342 0.945347 -0.159354
C7    C     C_R   0.182973 0.428048 0.894613 -0.158649
C8    C     C_R   0.291326 0.478749 0.872316 -0.013659
C9    C     C_R   0.383075 0.539348 0.901299 -0.131311
C10   C     C_R   0.492141 0.591665 0.879014 -0.160127
C11   C     C_R   0.510794 0.571507 0.828480 0.609988
C12   C     C_R   0.303788 0.538145 0.293405 0.450719
C13   C     C_R   0.309139 0.473336 0.821466 0.600498
C14   C     C_R   0.448868 0.384146 0.724639 0.510231
C15   C     C_R   0.476002 0.381293 0.674203 -0.300471
C16   C     C_R   0.741362 0.499521 0.503214 0.855000
C17   C     C_R   0.465574 0.629285 0.671879 -0.275374
C18   C     C_R   0.445762 0.634655 0.722581 0.515516
C19   C     C_R   0.436145 0.511481 0.748718 0.116930
C20   C     C_R   0.262966 0.462533 0.027138 -0.159112
C21   C     C_R   0.341220 0.547473 0.055150 0.020637
C22   C     C_R   0.428092 0.635233 0.031775 0.125831
C23   C     C_R   0.383054 0.482954 0.257170 0.068639
C24   C     C_R   0.191500 0.361135 0.051863 0.388644
C25   C     C_R   0.482971 0.729962 0.110729 -0.123308
C26   C     C_R   0.557247 0.676310 0.958005 -0.328371
C27   C     C_R   0.578594 0.662395 0.907752 0.570552
C28   C     C_R   0.497999 0.500563 0.594322 0.979575
C29   C     C_R   0.492306 0.731522 0.060173 -0.234514
C30   C     C_3   0.062592 0.626754 0.541736 -0.140578
C31   C     C_3   0.065918 0.356913 0.531426 -0.085899
C32   C     C_3   0.918512 0.629053 0.534629 -0.424414
C33   C     C_3   0.921585 0.375184 0.537071 -0.453799
C34   C     C_R   0.337743 0.540681 0.106809 -0.125347
C35   C     C_3   0.072060 0.516511 0.455799 -0.347460
C36   C     C_3   0.119248 0.500270 0.509123 -0.118187
C37   C     C_3   0.876476 0.499247 0.507155 0.066841
C38   C     C_3   0.932114 0.496446 0.454702 -0.417810
C39   C     C_3   0.374575 0.081312 0.490608 -0.377009
C40   C     C_3   0.373564 0.920578 0.494632 -0.406454
C41   C     C_3   0.584288 0.079716 0.459758 0.447551
C42   C     C_3   0.574966 0.916686 0.456960 0.502041
C43   C     C_3   0.541894 0.081180 0.546351 -0.234367
C44   C     C_3   0.551617 0.919739 0.544765 -0.262972
C45   C     C_R   0.264569 0.441638 0.130969 -0.241515
C46   C     C_R   0.277608 0.426072 0.181978 0.704336
C47   C     C_R   0.416072 0.615467 0.184857 0.541930
C48   C     C_R   0.500583 0.427402 0.269029 -0.112644
C49   C     C_R   0.540649 0.433406 0.317981 -0.176432
C50   C     C_R   0.348677 0.557186 0.340929 0.378165
C51   C     C_3   0.280375 0.768386 0.365395 -0.234866
C52   C     C_2   0.582905 0.371728 0.229000 0.997344
C53   C     C_3   0.669840 0.856336 0.880124 -0.224404
C54   C     C_3   0.522577 0.850647 0.736948 -0.262014
C55   C     C_2   0.102414 0.772043 0.527728 0.936649
C56   C     C_R   0.187132 0.356261 0.103260 0.450205
C57   C     C_2   0.084473 0.228067 0.499507 0.870841
C58   C     C_2   0.096517 0.608143 0.595679 0.908610
C59   C     C_2   0.122006 0.318277 0.581159 0.903980
C60   C     C_3   0.094189 0.506586 0.300723 -0.211163
C61   C     C_3   0.772145 0.160936 0.426894 -0.199704
C62   C     C_3   0.736004 0.813795 0.409410 -0.224888
C63   C     C_3   0.992721 0.311964 0.132048 -0.134055
C64   C     C_3   0.353645 0.175803 0.732913 -0.213280
C65   C     C_3   0.215780 0.149407 0.018165 -0.238554
C66   C     C_2   0.665061 0.379408 0.330767 0.954442
C67   C     C_R   0.411321 0.630645 0.134304 0.020793
C68   C     C_R   0.464459 0.499421 0.353795 -0.290708
C69   C     C_R   0.482538 0.503387 0.647680 -0.126315
H1    H     H_    0.536655 0.803225 0.131249 0.195397
H2    H     H_    0.119268 0.448324 0.428824 0.230755
H3    H     H_    0.889769 0.577778 0.431912 0.193852
H4    H     H_    0.913275 0.396754 0.437096 0.177323
H5    H     H_    0.343270 0.111474 0.453709 0.182467
H6    H     H_    0.328145 0.875322 0.462458 0.187768
H7    H     H_    0.307790 0.124736 0.518024 0.254050
H8    H     H_    0.319718 0.892331 0.527556 0.252181
H9    H     H_    0.552395 0.121382 0.423996 0.018447
H10   H     H_    0.524539 0.890715 0.422792 -0.020873
H11   H     H_    0.633213 0.125170 0.556260 0.200833
H12   H     H_    0.629318 0.725298 0.978629 0.167174
H13   H     H_    0.650477 0.886871 0.548520 0.205074
H14   H     H_    0.475662 0.112869 0.576227 0.170803
H15   H     H_    0.500861 0.878000 0.577087 0.159341
H16   H     H_    0.491177 0.284076 0.655702 0.175368
H17   H     H_    0.108510 0.386607 0.872982 0.198077
H18   H     H_    0.082598 0.391459 0.960299 0.208010
H19   H     H_    0.242205 0.792927 0.328957 0.212615
H20   H     H_    0.376665 0.808107 0.367919 0.153110
H21   H     H_    0.220645 0.823546 0.392593 0.182180
H22   H     H_    0.597473 0.258098 0.167212 0.336347
H23   H     H_    0.465459 0.723530 0.651285 0.178777
H24   H     H_    0.588564 0.877618 0.856473 0.160169
H25   H     H_    0.753826 0.896614 0.861105 0.202597
H26   H     H_    0.658996 0.912191 0.915576 0.135564
H27   H     H_    0.507127 0.903165 0.701638 0.145562
H28   H     H_    0.616265 0.800419 0.736799 0.199417
H29   H     H_    0.522134 0.930415 0.766011 0.198114
H30   H     H_    0.117416 0.915124 0.474580 0.358887
H31   H     H_    0.131967 0.139384 0.434837 0.316944
H32   H     H_    0.041404 0.577125 0.665767 0.372743
H33   H     H_    0.093768 0.258481 0.651170 0.352442
H34   H     H_    0.549834 0.809856 0.043958 0.143096
H35   H     H_    0.080783 0.528667 0.340366 0.176957
H36   H     H_    0.112963 0.395208 0.294743 0.181141
H37   H     H_    0.005118 0.531492 0.282682 0.213099
H38   H     H_    0.740677 0.265768 0.417898 0.184147
H39   H     H_    0.758128 0.092658 0.395035 0.162157
H40   H     H_    0.873398 0.162032 0.433911 0.188035
H41   H     H_    0.700096 0.878745 0.379383 0.124477
H42   H     H_    0.708039 0.706566 0.402931 0.212793
H43   H     H_    0.839212 0.817335 0.407399 0.191424
H44   H     H_    0.949121 0.333588 0.096235 0.150485
H45   H     H_    0.865420 0.640863 0.569704 0.199258
H46   H     H_    0.992105 0.406125 0.155276 0.159683
H47   H     H_    0.934642 0.234742 0.151097 0.200239
H48   H     H_    0.390979 0.119665 0.700313 0.144260
H49   H     H_    0.265463 0.230346 0.723773 0.193865
H50   H     H_    0.330266 0.098657 0.761172 0.203912
H51   H     H_    0.247707 0.104252 0.053138 0.191573
H52   H     H_    0.297243 0.181955 0.995452 0.150347
H53   H     H_    0.167605 0.067828 0.997642 0.190187
H54   H     H_    0.835145 0.420812 0.356380 0.315565
H55   H     H_    0.890993 0.393373 0.575647 0.230013
H56   H     H_    0.888418 0.719376 0.512775 0.241906
H57   H     H_    0.871818 0.280501 0.526422 0.238318
H58   H     H_    0.094719 0.616132 0.439888 0.260829
N1    N     N_R   0.355448 0.509854 0.207059 -0.315996
N2    N     N_R   0.418533 0.517009 0.800802 -0.320820
N3    N     N_3   0.499750 0.138610 0.498940 -0.097211
N4    N     N_3   0.499750 0.861390 0.498940 -0.094385
O1    O     O_R   0.314910 0.616040 0.499990 -0.608769
O2    O     O_2   0.217993 0.425419 0.792884 -0.565642
O3    O     O_2   0.484771 0.702235 0.211693 -0.552164
O4    O     O_2   0.620177 0.605180 0.806885 -0.509474
O5    O     O_3   0.276960 0.626882 0.375719 -0.630805
O6    O     O_2   0.693338 0.401209 0.227112 -0.613774
O7    O     O_R   0.533040 0.287862 0.192806 -0.797439
O8    O     O_3   0.687009 0.714510 0.887457 -0.557758
O9    O     O_3   0.425501 0.757933 0.747273 -0.603972
O10   O     O_2   0.120822 0.857261 0.559832 -0.583663
O11   O     O_R   0.096809 0.815467 0.479245 -0.841795
O12   O     O_R   0.314910 0.383960 0.499990 -0.576144
O13   O     O_2   0.046815 0.118941 0.515501 -0.602196
O14   O     O_R   0.137862 0.230436 0.452628 -0.847655
O15   O     O_2   0.205973 0.612567 0.607270 -0.623978
O16   O     O_R   0.005062 0.587976 0.632013 -0.788553
O17   O     O_2   0.234814 0.310731 0.585846 -0.640844
O18   O     O_R   0.045031 0.283342 0.620998 -0.761545
O19   O     O_3   0.188470 0.589146 0.280112 -0.606410
O20   O     O_3   0.709264 0.116627 0.469525 -0.571190
O21   O     O_3   0.696335 0.856901 0.456770 -0.565918
O22   O     O_3   0.114341 0.257930 0.125700 -0.546054
O23   O     O_R   0.500140 0.616020 0.428740 -0.597280
O24   O     O_3   0.443871 0.264914 0.751944 -0.611495
O25   O     O_3   0.131108 0.258883 0.026677 -0.613417
O26   O     O_2   0.695092 0.262054 0.319495 -0.638223
O27   O     O_R   0.749852 0.465187 0.353602 -0.863327
O28   O     O_R   0.500140 0.383980 0.428740 -0.636699
O29   O     O_R   0.685320 0.616040 0.499970 -0.589096
O30   O     O_R   0.685320 0.383960 0.499970 -0.604685
O31   O     O_R   0.500090 0.616050 0.571230 -0.635757
O32   O     O_R   0.500090 0.383950 0.571230 -0.613305
O33   O     O_2   0.217573 0.325618 0.206119 -0.499490
Zn1   Zn    Zn3+2 0.500150 0.654960 0.499980 0.982721
Zn2   Zn    Zn3+2 0.500150 0.345040 0.499980 0.984513

loop_
_geom_bond_atom_site_label_1
_geom_bond_atom_site_label_2
_ccdc_geom_bond_type
C10   C27   A    
C19   N2    S    
C4    O23   A    
C28   O32   A    
C17   C69   A    
C8    C13   A    
C55   O10   D    
C49   C68   A    
C57   O14   S    
C14   O24   S    
C16   O29   A    
C43   H14   S    
C41   C42   S    
H30   O11   S    
C28   C69   S    
C25   C67   A    
C66   O27   S    
C1    O1    A    
C61   H40   S    
C28   O31   A    
C7    C8    A    
C45   C46   A    
C44   N4    S    
C64   O24   S    
C26   C27   A    
C64   H50   S    
C62   O21   S    
C46   N1    A    
C22   C29   A    
C65   O25   S    
C44   H13   S    
C31   C36   S    
C51   H21   S    
C41   N3    S    
C4    O28   A    
C53   H26   S    
H22   O7    S    
C64   H49   S    
C29   H34   S    
C18   C19   A    
C39   H5    S    
C31   C59   S    
C61   H39   S    
C54   O9    S    
C62   H42   S    
C20   C24   A    
C45   C56   A    
C8    C9    A    
C33   H55   S    
C52   O7    S    
C31   C33   S    
O23   Zn1   S    
C42   N4    S    
C65   H52   S    
C42   O21   S    
C9    C10   A    
C54   H27   S    
O30   Zn2   S    
C16   C37   S    
C15   H16   S    
C63   H46   S    
C59   O17   D    
C35   H2    S    
C42   H10   S    
C55   O11   S    
C46   O33   S    
C21   C22   A    
C2    C6    A    
C17   H23   S    
C11   N2    A    
C40   H6    S    
C47   C67   A    
C52   O6    D    
C59   O18   S    
C25   C29   A    
C15   C69   A    
C38   H3    S    
C32   C37   S    
C49   C66   S    
C53   H24   S    
C43   N3    S    
C12   O19   S    
C47   N1    A    
C35   C38   S    
O1    Zn1   S    
C63   O22   S    
C39   C40   S    
C4    C68   S    
C58   O16   S    
C12   C23   A    
C21   C34   A    
C3    C5    A    
C43   H11   S    
C65   H53   S    
C2    C20   A    
C33   C37   S    
C64   H48   S    
C35   C36   S    
C63   H44   S    
C32   H56   S    
C34   C67   A    
C18   O9    S    
C43   C44   S    
O12   Zn2   S    
C5    C9    A    
C37   C38   S    
C1    O12   A    
C11   O4    S    
O31   Zn1   S    
C51   O5    S    
N3    Zn2   S    
C62   H41   S    
H31   O14   S    
O32   Zn2   S    
C17   C18   A    
C54   H28   S    
C34   C45   A    
C60   O19   S    
C39   H7    S    
C35   H58   S    
C61   O20   S    
C63   H47   S    
C48   C49   A    
H54   O27   S    
C40   N4    S    
C26   H12   S    
C47   O3    S    
C2    C5    A    
C41   H9    S    
C60   H37   S    
H32   O16   S    
C23   C48   A    
C57   O13   D    
C53   H25   S    
C53   O8    S    
C13   O2    S    
C14   C19   A    
C3    C26   A    
C56   O22   S    
C44   H15   S    
C51   H19   S    
C12   C50   A    
C58   O15   D    
C6    C7    A    
C41   O20   S    
C39   N3    S    
C16   O30   A    
C24   C56   A    
C30   C55   S    
O28   Zn2   S    
C30   C36   S    
C31   C57   S    
O29   Zn1   S    
C50   O5    S    
C51   H20   S    
C30   C32   S    
C30   C58   S    
C33   H57   S    
C65   H51   S    
C40   H8    S    
C61   H38   S    
C27   O8    S    
C10   C11   A    
C6    H18   S    
H33   O18   S    
C7    H17   S    
C48   C52   S    
C62   H43   S    
C20   C21   A    
N4    Zn1   S    
C13   N2    A    
C14   C15   A    
C54   H29   S    
C3    C22   A    
C25   H1    S    
C32   H45   S    
C60   H35   S    
C50   C68   A    
C66   O26   D    
C60   H36   S    
C24   O25   S    
C1    C36   S    
C23   N1    S    
C38   H4    S    
