data_mof_unit_4731.cif
_audit_creation_date              2012-12-10T17:35:43-0500
_audit_creation_method            fapswitch 2.2
_symmetry_space_group_name_H-M    P1
_symmetry_Int_Tables_number       1
_space_group_crystal_system       triclinic
_cell_length_a                    10.480678
_cell_length_b                    11.994916
_cell_length_c                    12.854672
_cell_angle_alpha                 93.221681
_cell_angle_beta                  89.257555
_cell_angle_gamma                 86.858757
_cell_volume                      1610.83644291

loop_
_atom_site_label
_atom_site_type_symbol
_atom_type_description
_atom_site_fract_x
_atom_site_fract_y
_atom_site_fract_z
_atom_type_partial_charge
C1    C     C_R   0.499646 0.522044 0.700394 0.874690
C2    C     C_R   0.583768 0.165281 0.602496 -0.023257
C3    C     C_R   0.533488 0.859808 0.552418 -0.087595
C4    C     C_R   0.466511 0.140192 0.447582 -0.087595
C5    C     C_R   0.530758 0.977124 0.543484 0.026670
C6    C     C_R   0.469243 0.022875 0.456516 0.026671
C7    C     C_R   0.742499 0.500590 0.498079 0.871384
C8    C     C_R   0.257501 0.499410 0.501921 0.871386
C9    C     C_3   0.956529 0.474901 0.592927 0.141040
C10   C     C_3   0.043471 0.525099 0.407073 0.141041
C11   C     C_3   0.035822 0.576269 0.573774 -0.215829
C12   C     C_R   0.500355 0.477956 0.299605 0.874689
C13   C     C_3   0.964178 0.423731 0.426226 -0.215832
C14   C     C_3   0.122749 0.498105 0.501903 -0.035889
C15   C     C_3   0.877251 0.501895 0.498097 -0.035889
C16   C     C_3   0.045486 0.396365 0.522193 -0.189385
C17   C     C_3   0.954514 0.603635 0.477807 -0.189380
C18   C     C_R   0.501101 0.464530 0.188255 -0.054316
C19   C     C_R   0.498903 0.535471 0.811745 -0.054316
C20   C     C_R   0.449842 0.646072 0.970296 -0.228211
C21   C     C_R   0.550167 0.353930 0.029704 -0.228209
C22   C     C_R   0.459881 0.638137 0.862738 -0.212735
C23   C     C_R   0.532040 0.441892 0.867383 -0.286700
C24   C     C_R   0.540126 0.361864 0.137262 -0.212737
C25   C     C_3   0.898231 0.447606 0.697589 -0.427704
C26   C     C_3   0.001175 0.429326 0.779261 -0.341234
C27   C     C_3   0.941573 0.402653 0.883332 -0.877458
C28   C     C_3   0.101768 0.552392 0.302410 -0.427706
C29   C     C_3   0.998820 0.570689 0.220743 -0.341224
C30   C     C_3   0.058422 0.597344 0.116667 -0.877436
C31   C     C_3   0.347583 0.991147 0.285161 -0.444577
C32   C     C_3   0.446835 0.018453 0.202719 -0.332053
C33   C     C_3   0.382918 0.070652 0.109736 -0.903220
C34   C     C_R   0.467967 0.558109 0.132616 -0.286697
C35   C     C_3   0.652435 0.008850 0.714829 -0.444588
C36   C     C_3   0.553196 0.981550 0.797284 -0.332029
C37   C     C_3   0.617128 0.929338 0.890259 -0.903209
C38   C     C_R   0.520988 0.448625 0.974119 0.188879
C39   C     C_R   0.479020 0.551376 0.025880 0.188881
C40   C     C_R   0.411854 0.950047 0.381966 0.010895
C41   C     C_R   0.588151 0.049952 0.618031 0.010894
C42   C     C_R   0.416236 0.834719 0.397502 -0.023257
H1    H     H_    0.069821 0.637147 0.634059 0.138096
H2    H     H_    0.581703 0.274745 0.990256 0.136804
H3    H     H_    0.418395 0.179389 0.384285 0.147124
H4    H     H_    0.581602 0.820611 0.615717 0.147126
H5    H     H_    0.626648 0.222212 0.658360 0.124541
H6    H     H_    0.373359 0.777787 0.341637 0.124541
H7    H     H_    0.875090 0.472886 0.913158 0.266329
H8    H     H_    0.888308 0.325214 0.874223 0.255728
H9    H     H_    0.017971 0.389744 0.941179 0.252399
H10   H     H_    0.068851 0.358815 0.751971 0.222554
H11   H     H_    0.055610 0.505904 0.790937 0.221846
H12   H     H_    0.930179 0.362853 0.365941 0.138098
H13   H     H_    0.830448 0.517972 0.725058 0.194340
H14   H     H_    0.843962 0.370934 0.686021 0.204822
H15   H     H_    0.111718 0.674767 0.125770 0.255726
H16   H     H_    0.124879 0.527092 0.086837 0.266318
H17   H     H_    0.982020 0.610273 0.058826 0.252399
H18   H     H_    0.944362 0.494123 0.209074 0.221844
H19   H     H_    0.931163 0.641214 0.248035 0.222546
H20   H     H_    0.156049 0.629057 0.313978 0.204820
H21   H     H_    0.169539 0.482019 0.274937 0.194343
H22   H     H_    0.317520 0.011643 0.071612 0.260094
H23   H     H_    0.086498 0.312749 0.541113 0.146685
H24   H     H_    0.328112 0.149553 0.135307 0.267481
H25   H     H_    0.456987 0.090329 0.052068 0.252884
H26   H     H_    0.515306 0.077520 0.236317 0.218505
H27   H     H_    0.502018 0.940326 0.175097 0.219045
H28   H     H_    0.286859 0.926047 0.250303 0.190994
H29   H     H_    0.281639 0.064849 0.306219 0.200316
H30   H     H_    0.671915 0.850430 0.864683 0.267474
H31   H     H_    0.682544 0.988338 0.928370 0.260093
H32   H     H_    0.543071 0.909669 0.947939 0.252883
H33   H     H_    0.498031 0.059683 0.824914 0.219036
H34   H     H_    0.913502 0.687252 0.458887 0.146683
H35   H     H_    0.484709 0.922491 0.763693 0.218499
H36   H     H_    0.718373 0.935145 0.693766 0.200321
H37   H     H_    0.713169 0.073947 0.749680 0.190992
H38   H     H_    0.435496 0.637042 0.172264 0.151816
H39   H     H_    0.564510 0.362958 0.827735 0.151818
H40   H     H_    0.565495 0.289015 0.180338 0.163342
H41   H     H_    0.434511 0.710987 0.819662 0.163341
H42   H     H_    0.418307 0.725257 0.009744 0.136804
N1    N     N_R   0.523490 0.207800 0.519350 -0.108982
N2    N     N_R   0.476510 0.792200 0.480650 -0.108982
O1    O     O_R   0.506270 0.421700 0.658830 -0.630614
O2    O     O_R   0.493730 0.578300 0.341170 -0.630616
O3    O     O_R   0.491200 0.609310 0.646410 -0.630126
O4    O     O_R   0.508800 0.390690 0.353590 -0.630125
O5    O     O_R   0.693580 0.406210 0.506230 -0.624072
O6    O     O_R   0.306420 0.593790 0.493770 -0.624072
O7    O     O_R   0.678510 0.593830 0.493810 -0.622089
O8    O     O_R   0.321490 0.406170 0.506190 -0.622088
Zn1   Zn    Zn3+2 0.510060 0.374730 0.508290 0.926731
Zn2   Zn    Zn3+2 0.489940 0.625270 0.491710 0.926731

loop_
_geom_bond_atom_site_label_1
_geom_bond_atom_site_label_2
_ccdc_geom_bond_type
C1    O1    A    
C37   H32   S    
O2    Zn2   S    
C35   C36   S    
C25   H14   S    
C9    C25   S    
O4    Zn1   S    
C3    H4    S    
C26   C27   S    
C18   C24   A    
C12   O4    A    
C36   C37   S    
C9    C16   S    
C36   H35   S    
C38   C39   A    
C11   C14   S    
C2    C41   A    
C30   H15   S    
O6    Zn2   S    
C31   C40   S    
C2    N1    A    
C35   H37   S    
C24   H40   S    
C37   H31   S    
C34   H38   S    
C31   H28   S    
C11   C17   S    
C21   C38   A    
O1    Zn1   S    
C17   H34   S    
C8    C14   S    
C11   H1    S    
C42   N2    A    
C27   H8    S    
C32   H26   S    
C31   H29   S    
C3    N2    A    
C27   H9    S    
C33   H24   S    
C4    H3    S    
C7    O7    A    
C29   H19   S    
C1    C19   S    
C12   O2    A    
C34   C39   A    
C19   C22   A    
C8    O8    A    
C4    C6    A    
C10   C14   S    
C20   C39   A    
C4    N1    A    
C25   C26   S    
C19   C23   A    
C29   C30   S    
C36   H33   S    
C26   H10   S    
C21   H2    S    
C18   C34   A    
C31   C32   S    
C29   H18   S    
C7    O5    A    
C30   H17   S    
C42   H6    S    
C9    C11   S    
N2    Zn2   S    
C8    O6    A    
C20   C22   A    
O7    Zn2   S    
C20   H42   S    
C14   C16   S    
C37   H30   S    
C21   C24   A    
C26   H11   S    
C33   H25   S    
C13   H12   S    
C10   C28   S    
C15   C17   S    
C5    C41   A    
C28   C29   S    
C1    O3    A    
C23   H39   S    
C25   H13   S    
C3    C5    A    
C10   C13   S    
C32   H27   S    
C2    H5    S    
C23   C38   A    
C35   H36   S    
C22   H41   S    
O3    Zn2   S    
C13   C15   S    
C9    C15   S    
C32   C33   S    
N1    Zn1   S    
C5    C6    A    
C33   H22   S    
C30   H16   S    
C7    C15   S    
C40   C42   A    
C6    C40   A    
O8    Zn1   S    
C35   C41   S    
O5    Zn1   S    
C28   H21   S    
C13   C16   S    
C12   C18   S    
C16   H23   S    
C10   C17   S    
C27   H7    S    
C28   H20   S    
