data_mof_unit_383.cif
_audit_creation_date              2012-12-10T17:43:18-0500
_audit_creation_method            fapswitch 2.2
_symmetry_space_group_name_H-M    P1
_symmetry_Int_Tables_number       1
_space_group_crystal_system       triclinic
_cell_length_a                    14.988643
_cell_length_b                    13.965449
_cell_length_c                    10.746183
_cell_angle_alpha                 89.820441
_cell_angle_beta                  86.989008
_cell_angle_gamma                 89.658834
_cell_volume                      2246.27048356

loop_
_atom_site_label
_atom_site_type_symbol
_atom_type_description
_atom_site_fract_x
_atom_site_fract_y
_atom_site_fract_z
_atom_type_partial_charge
C1    C     C_R   0.329298 0.500175 0.500251 0.928321
C2    C     C_R   0.670721 0.499532 0.497978 0.922460
C3    C     C_R   0.953214 0.496019 0.494786 -0.192804
C4    C     C_R   0.047001 0.497141 0.495976 -0.193821
C5    C     C_R   0.909871 0.542520 0.397168 -0.162244
C6    C     C_R   0.090206 0.451540 0.594357 -0.162958
C7    C     C_R   0.946685 0.402245 0.687307 0.562054
C8    C     C_R   0.053643 0.589477 0.302364 0.564013
C9    C     C_R   0.039380 0.404186 0.689170 0.575588
C10   C     C_R   0.960809 0.588656 0.301394 0.571495
C11   C     C_R   0.429917 0.794446 0.558224 0.348588
C12   C     C_R   0.572247 0.205049 0.448939 0.358222
C13   C     C_R   0.568861 0.794347 0.441220 0.338866
C14   C     C_R   0.428235 0.206960 0.552533 0.329407
C15   C     C_R   0.565588 0.896795 0.430677 -0.089642
C16   C     C_R   0.424975 0.103926 0.550597 -0.096631
C17   C     C_R   0.429907 0.897729 0.563673 -0.087278
C18   C     C_R   0.572043 0.102184 0.442587 -0.097772
C19   C     C_R   0.497613 0.948713 0.496462 -0.071765
C20   C     C_R   0.497998 0.051770 0.496031 -0.070005
C21   C     C_R   0.631344 0.948783 0.360103 0.220898
C22   C     C_R   0.352605 0.051095 0.606453 0.222237
C23   C     C_R   0.361982 0.951931 0.629288 0.211068
C24   C     C_R   0.641839 0.047845 0.380110 0.215600
C25   C     C_R   0.501791 0.500437 0.259850 0.835333
C26   C     C_R   0.499156 0.499614 0.740056 0.847894
C27   C     C_3   0.486735 0.590383 0.039255 0.220786
C28   C     C_3   0.513341 0.409444 0.961015 0.234736
C29   C     C_3   0.565018 0.556662 0.951534 0.200219
C30   C     C_3   0.434909 0.443813 0.048891 0.187953
C31   C     C_3   0.420388 0.532172 0.965950 0.118331
C32   C     C_3   0.579905 0.468074 0.033321 0.162048
C33   C     C_3   0.498924 0.498331 0.876496 -0.267965
C34   C     C_3   0.501952 0.501885 0.123278 -0.257916
C35   C     C_R   0.816489 0.542240 0.398227 0.518723
C36   C     C_R   0.183347 0.454491 0.595654 0.534424
C37   C     C_R   0.767269 0.497467 0.495582 -0.336487
C38   C     C_R   0.232806 0.500172 0.499353 -0.326927
C39   C     C_R   0.809562 0.448685 0.589747 0.553323
C40   C     C_R   0.190820 0.544610 0.401424 0.511489
C41   C     C_R   0.902801 0.448350 0.591223 -0.167634
C42   C     C_R   0.097528 0.544199 0.399124 -0.156670
Cu1   Cu    Cu3+1 0.500000 0.597420 0.500000 0.993908
Cu2   Cu    Cu3+1 0.500000 0.402580 0.500000 0.996734
N1    N     N_R   0.500000 0.743810 0.500000 -0.226853
N2    N     N_R   0.500000 0.256190 0.500000 -0.216872
O1    O     O_R   0.370260 0.582280 0.500030 -0.542066
O2    O     O_R   0.629740 0.417720 0.499970 -0.546164
O3    O     O_R   0.629740 0.582280 0.499970 -0.553885
O4    O     O_R   0.370260 0.417720 0.500030 -0.566884
O5    O     O_R   0.499980 0.582260 0.316850 -0.575359
O6    O     O_R   0.500020 0.417740 0.683150 -0.568205
O7    O     O_R   0.500020 0.582260 0.683150 -0.587251
O8    O     O_R   0.499980 0.417740 0.316850 -0.580232
N3    N     N_2   0.336922 0.565364 0.918226 -0.470643
H1    H     H_    0.314217 0.522241 0.849150 0.286624
C43   C     C_3   0.267414 0.593477 0.009225 -0.454581
H2    H     H_    0.211826 0.627605 0.960735 0.240014
H3    H     H_    0.292551 0.646202 0.075410 0.261074
H4    H     H_    0.240791 0.530143 0.060931 0.262883
N4    N     N_2   0.665838 0.436853 0.073753 -0.486956
H5    H     H_    0.691692 0.483330 0.136550 0.283852
C44   C     C_3   0.730865 0.406972 0.977284 -0.452384
H6    H     H_    0.792319 0.381670 0.020813 0.239800
H7    H     H_    0.748715 0.467344 0.913742 0.278668
H8    H     H_    0.705135 0.347130 0.922638 0.255706
N5    N     N_2   0.472238 0.686213 0.087743 -0.410837
H9    H     H_    0.424945 0.689113 0.160752 0.283861
C45   C     C_3   0.459782 0.759950 0.995764 -0.727443
H10   H     H_    0.442430 0.828364 0.043714 0.218592
H11   H     H_    0.404902 0.741021 0.935221 0.261625
H12   H     H_    0.522050 0.771097 0.937635 0.240872
N6    N     N_2   0.526303 0.313286 0.912533 -0.424095
H13   H     H_    0.570607 0.308823 0.836180 0.289272
C46   C     C_3   0.538473 0.237653 0.002152 -0.711979
H14   H     H_    0.524192 0.167766 0.958752 0.219384
H15   H     H_    0.492395 0.246555 0.085522 0.259260
H16   H     H_    0.608604 0.236180 0.030045 0.232631
N7    N     N_2   0.634415 0.616749 0.894138 -0.431023
H17   H     H_    0.611835 0.660712 0.825250 0.265427
C47   C     C_3   0.690380 0.665967 0.978826 -0.603006
H18   H     H_    0.731266 0.720418 0.926798 0.214515
H19   H     H_    0.736894 0.615236 0.021421 0.279219
H20   H     H_    0.649406 0.702219 0.053735 0.247553
N8    N     N_2   0.366366 0.388395 0.116294 -0.419281
H21   H     H_    0.331343 0.427532 0.184011 0.274659
C48   C     C_3   0.309827 0.329810 0.043695 -0.649858
H22   H     H_    0.255774 0.298637 0.105520 0.231074
H23   H     H_    0.348995 0.269596 0.001997 0.240669
H24   H     H_    0.278734 0.372942 0.970544 0.263893
F1    F     F_    0.772763 0.583946 0.304391 -0.658112
F2    F     F_    0.226447 0.415620 0.691844 -0.661245
F3    F     F_    0.759011 0.403389 0.680425 -0.647933
F4    F     F_    0.241633 0.586668 0.308358 -0.674952
F5    F     F_    0.900308 0.355342 0.780551 -0.601976
F6    F     F_    0.100093 0.635616 0.208538 -0.603537
F7    F     F_    0.078947 0.358973 0.784082 -0.584979
F8    F     F_    0.921214 0.633887 0.206531 -0.585440
N9    N     N_2   0.353961 0.742982 0.605068 -0.375339
H25   H     H_    0.343988 0.740336 0.700585 0.272647
C49   C     C_3   0.274363 0.753296 0.534300 -0.562877
H26   H     H_    0.247733 0.827288 0.536684 0.192953
H27   H     H_    0.221569 0.704724 0.573282 0.212584
H28   H     H_    0.289789 0.734767 0.435087 0.272334
N10   N     N_2   0.650353 0.255470 0.409596 -0.378306
H29   H     H_    0.707299 0.245910 0.457904 0.280525
C50   C     C_3   0.659459 0.289819 0.283008 -0.538793
H30   H     H_    0.713109 0.250727 0.229311 0.211082
H31   H     H_    0.679161 0.365723 0.285137 0.234774
H32   H     H_    0.596015 0.282801 0.236009 0.231148
N11   N     N_2   0.648133 0.744411 0.402304 -0.340776
H33   H     H_    0.655257 0.726493 0.309317 0.306910
C51   C     C_3   0.728912 0.767483 0.465430 -0.531044
H34   H     H_    0.783901 0.785375 0.396211 0.235238
H35   H     H_    0.750379 0.705218 0.520539 0.227622
H36   H     H_    0.718582 0.828457 0.531004 0.176691
N12   N     N_2   0.360357 0.260442 0.617815 -0.347589
H37   H     H_    0.299201 0.263489 0.578403 0.299823
C52   C     C_3   0.359135 0.258262 0.752286 -0.489422
H38   H     H_    0.293004 0.233989 0.791077 0.231312
H39   H     H_    0.369660 0.331670 0.786614 0.262800
H40   H     H_    0.411536 0.209794 0.786750 0.192168
N13   N     N_2   0.683406 0.902935 0.262418 -0.432289
H41   H     H_    0.750231 0.919882 0.255757 0.270687
C53   C     C_3   0.642771 0.905916 0.143473 -0.721711
H42   H     H_    0.686870 0.869256 0.072247 0.237889
H43   H     H_    0.632933 0.981258 0.113190 0.221902
H44   H     H_    0.577413 0.868910 0.150483 0.252020
N14   N     N_2   0.268375 0.095768 0.634928 -0.443333
H45   H     H_    0.238183 0.079239 0.720501 0.268164
C54   C     C_3   0.207533 0.091475 0.535056 -0.696708
H46   H     H_    0.146475 0.133891 0.560819 0.249767
H47   H     H_    0.188142 0.016112 0.518232 0.221868
H48   H     H_    0.239127 0.122264 0.448109 0.232631
N15   N     N_2   0.306732 0.909034 0.725528 -0.443678
H49   H     H_    0.239065 0.918966 0.717650 0.263707
C55   C     C_3   0.334686 0.928587 0.849587 -0.738857
H50   H     H_    0.297090 0.882148 0.917710 0.248089
H51   H     H_    0.321457 0.004620 0.874734 0.224401
H52   H     H_    0.407284 0.914048 0.854773 0.237860
N16   N     N_2   0.722986 0.091404 0.335860 -0.443095
H53   H     H_    0.739776 0.080378 0.242729 0.259845
C56   C     C_3   0.797078 0.076476 0.415171 -0.703455
H54   H     H_    0.854733 0.120299 0.380322 0.241194
H55   H     H_    0.817671 0.999978 0.415409 0.220727
H56   H     H_    0.778299 0.098620 0.512326 0.242611

loop_
_geom_bond_atom_site_label_1
_geom_bond_atom_site_label_2
_ccdc_geom_bond_type
C56   H56   S    
C38   C40   A    
C48   H22   S    
C44   H7    S    
C49   H26   S    
C27   C29   S    
C50   H31   S    
N6    H13   S    
C19   C20   A    
C8    F6    S    
Cu1   Cu2   S    
C54   H48   S    
C6    C9    A    
C47   H18   S    
N15   H49   S    
C39   C41   A    
N8    H21   S    
C15   C19   A    
N10   C50   S    
C17   C23   A    
C18   C24   A    
C35   C37   A    
C8    C42   A    
C32   N4    S    
N14   H45   S    
C29   C32   S    
N16   C56   S    
C3    C41   A    
C12   N10   S    
C43   H3    S    
C56   H54   S    
C29   C33   S    
C11   N9    S    
C45   H11   S    
C39   F3    S    
N13   C53   S    
Cu1   O7    S    
C56   H55   S    
N11   H33   S    
C53   H44   S    
C9    F7    S    
C50   H30   S    
C31   C33   S    
C1    O4    A    
C25   C34   S    
C51   H36   S    
C36   F2    S    
C40   C42   A    
C44   H8    S    
C49   H27   S    
N15   C55   S    
N6    C46   S    
C45   H10   S    
C28   N6    S    
C47   H19   S    
Cu2   N2    S    
N8    C48   S    
C27   C34   S    
C55   H52   S    
C30   C34   S    
C27   C31   S    
N5    H9    S    
N13   H41   S    
C25   O8    A    
C14   N2    A    
N7    C47   S    
C1    O1    A    
C43   H4    S    
C3    C5    A    
N7    H17   S    
N5    C45   S    
C32   C34   S    
C21   N13   S    
C45   H12   S    
C46   H14   S    
C25   O5    A    
C2    O3    A    
C26   O6    A    
Cu1   N1    S    
C26   C33   S    
N9    H25   S    
C29   N7    S    
C13   C15   A    
C28   C32   S    
C24   N16   S    
C16   C20   A    
C14   N12   S    
N3    H1    S    
N4    C44   S    
N11   C51   S    
N14   C54   S    
C30   N8    S    
C46   H15   S    
C52   H39   S    
C1    C38   S    
C12   N2    A    
N9    C49   S    
C28   C33   S    
C49   H28   S    
N3    C43   S    
C22   N14   S    
C53   H42   S    
C50   H32   S    
C14   C16   A    
C11   N1    A    
C4    C6    A    
C21   C24   A    
C3    C4    A    
C26   O7    A    
C47   H20   S    
C7    F5    S    
C51   H34   S    
C55   H50   S    
C52   H40   S    
Cu2   O4    S    
C7    C9    A    
C11   C17   A    
C16   C22   A    
C55   H51   S    
C8    C10   A    
Cu1   O3    S    
C40   F4    S    
C54   H47   S    
Cu2   O6    S    
C52   H38   S    
C10   F8    S    
N10   H29   S    
C23   N15   S    
C2    O2    A    
N12   C52   S    
C5    C10   A    
C37   C39   A    
Cu2   O2    S    
N12   H37   S    
C36   C38   A    
C13   N1    A    
C2    C37   S    
Cu1   O5    S    
C43   H2    S    
C30   C31   S    
C4    C42   A    
C5    C35   A    
C28   C30   S    
C17   C19   A    
C6    C36   A    
C18   C20   A    
C7    C41   A    
N4    H5    S    
C46   H16   S    
C27   N5    S    
C44   H6    S    
Cu2   O8    S    
C15   C21   A    
C13   N11   S    
C48   H24   S    
C12   C18   A    
C53   H43   S    
C48   H23   S    
C22   C23   A    
C31   N3    S    
N16   H53   S    
Cu1   O1    S    
C54   H46   S    
C51   H35   S    
C35   F1    S    
