data_mof_unit_4989.cif
_audit_creation_date              2012-12-10T20:27:14-0500
_audit_creation_method            fapswitch 2.2
_symmetry_space_group_name_H-M    P1
_symmetry_Int_Tables_number       1
_space_group_crystal_system       triclinic
_cell_length_a                    10.809673
_cell_length_b                    10.740416
_cell_length_c                    9.887793
_cell_angle_alpha                 90.484784
_cell_angle_beta                  103.530604
_cell_angle_gamma                 89.931827
_cell_volume                      1116.07426582

loop_
_atom_site_label
_atom_site_type_symbol
_atom_type_description
_atom_site_fract_x
_atom_site_fract_y
_atom_site_fract_z
_atom_type_partial_charge
C1    C     C_R   0.503505 0.260277 0.500223 0.871060
C2    C     C_R   0.578373 0.576515 0.092636 -0.111671
C3    C     C_R   0.578491 0.576402 0.948841 -0.078556
C4    C     C_R   0.259356 0.496851 0.441902 1.027893
C5    C     C_R   0.428303 0.415910 0.909934 0.178958
C6    C     C_3   0.287131 0.405976 0.870263 -0.581209
C7    C     C_3   0.288442 0.401082 0.023474 0.240761
C8    C     C_R   0.500721 0.739586 0.500918 0.945432
C9    C     C_R   0.740728 0.497035 0.557553 0.915374
C10   C     C_2   0.123099 0.485862 0.407438 -0.275137
C11   C     C_2   0.066310 0.457066 0.508138 -0.121109
C12   C     C_R   0.517051 0.128498 0.503712 -0.100173
C13   C     C_2   0.876748 0.482761 0.588593 -0.345732
C14   C     C_2   0.931188 0.462066 0.482920 -0.085702
C15   C     C_R   0.473652 0.064614 0.605128 -0.009289
C16   C     C_2   0.644039 0.121746 0.315467 1.015453
C17   C     C_2   0.243472 0.123573 0.565280 1.072903
C18   C     C_R   0.575760 0.061399 0.411615 -0.134319
C19   C     C_R   0.568721 0.931725 0.411183 -0.216636
C20   C     C_R   0.511660 0.870854 0.506113 -0.038128
C21   C     C_R   0.476650 0.938614 0.611699 -0.003142
C22   C     C_3   0.370199 0.935138 0.686856 0.263305
C23   C     C_3   0.360806 0.077316 0.667851 -0.369267
C24   C     C_R   0.429367 0.414658 0.052794 0.216913
H1    H     H_    0.876810 0.456741 0.375453 0.211967
H2    H     H_    0.069394 0.503432 0.301791 0.159933
H3    H     H_    0.607854 0.878570 0.337226 0.173054
H4    H     H_    0.407407 0.910198 0.797919 0.119905
H5    H     H_    0.317355 0.065749 0.087856 0.400840
H6    H     H_    0.753166 0.228446 0.466221 0.294992
H7    H     H_    0.155666 0.677653 0.682870 0.364224
H8    H     H_    0.131629 0.114883 0.371361 0.384248
H9    H     H_    0.383514 0.129390 0.768297 0.183207
H10   H     H_    0.639793 0.640211 0.163048 0.155156
H11   H     H_    0.640057 0.639925 0.911018 0.149766
H12   H     H_    0.242003 0.492359 0.821597 0.197661
H13   H     H_    0.255181 0.318996 0.812113 0.270492
H14   H     H_    0.239711 0.481180 0.060595 0.103724
H15   H     H_    0.119521 0.438443 0.612901 0.196463
H16   H     H_    0.932029 0.489097 0.695551 0.165516
N1    N     N_R   0.499160 0.499140 0.142600 -0.142562
N2    N     N_R   0.499160 0.499180 0.856960 -0.095365
O1    O     O_R   0.500020 0.316790 0.614700 -0.627028
O2    O     O_2   0.107748 0.224530 0.995604 -0.250245
O3    O     O_3   0.340015 0.141194 0.041966 -0.540478
O4    O     O_2   0.623627 0.087360 0.194245 -0.550173
O5    O     O_R   0.734929 0.214574 0.361964 -0.751329
O6    O     O_2   0.113415 0.907566 0.628166 -0.273226
O7    O     O_2   0.222016 0.819287 0.457411 -0.280099
O8    O     O_3   0.244361 0.706904 0.694001 -0.563338
O9    O     O_2   0.168314 0.190954 0.605679 -0.630973
O10   O     O_R   0.217490 0.084644 0.426230 -0.700858
O11   O     O_R   0.500000 0.316760 0.385350 -0.570235
O12   O     O_R   0.317820 0.500020 0.571850 -0.589420
O13   O     O_R   0.317800 0.499980 0.342510 -0.608096
O14   O     O_R   0.500000 0.683240 0.614650 -0.596040
O15   O     O_R   0.499980 0.683210 0.385300 -0.631390
O16   O     O_R   0.682200 0.500020 0.657490 -0.618240
O17   O     O_R   0.682180 0.499980 0.428150 -0.613178
O18   O     O_2   0.246115 0.256944 0.227484 -0.299536
S1    S     S_3+6 0.241357 0.252706 0.074789 0.053380
S2    S     S_3+6 0.231876 0.842855 0.609618 0.045065
Zn1   Zn    Zn3+2 0.500010 0.500020 0.653140 1.006758
Zn2   Zn    Zn3+2 0.499990 0.499980 0.346860 1.017475

loop_
_geom_bond_atom_site_label_1
_geom_bond_atom_site_label_2
_ccdc_geom_bond_type
C22   H4    S    
C23   H9    S    
C5    N2    A    
C3    N2    A    
C6    C7    S    
O2    S1    D    
C22   S2    S    
C19   H3    S    
O6    S2    D    
C19   C20   A    
C12   C15   A    
C3    H11   S    
O13   Zn2   S    
C8    O14   A    
C15   C23   S    
C2    C3    A    
C6    H13   S    
O1    Zn1   S    
C14   H1    S    
C17   C23   S    
C21   C22   S    
C11   H15   S    
C24   N1    A    
C5    C24   A    
C10   H2    S    
O17   Zn2   S    
C8    C20   S    
C1    C12   S    
O15   Zn2   S    
C17   O10   S    
O3    S1    S    
C11   C14   S    
C7    H14   S    
C6    H12   S    
C9    O16   A    
C4    O13   A    
C5    C6    S    
O8    S2    S    
O11   Zn2   S    
O14   Zn1   S    
C10   C11   D    
C2    N1    A    
C4    C10   S    
C7    C24   S    
H6    O5    S    
C15   C21   A    
C20   C21   A    
C16   O5    S    
C17   O9    D    
C16   C18   S    
C18   C19   A    
O12   Zn1   S    
C16   O4    D    
O16   Zn1   S    
C9    C13   S    
C22   C23   S    
H8    O10   S    
C13   H16   S    
C1    O11   A    
O7    S2    D    
H7    O8    S    
N1    Zn2   S    
C4    O12   A    
C2    H10   S    
C13   C14   D    
N2    Zn1   S    
C1    O1    A    
C8    O15   A    
C7    S1    S    
H5    O3    S    
O18   S1    D    
C9    O17   A    
C12   C18   A    
