data_mof_unit_3202.cif
_audit_creation_date              2012-12-11T16:48:34-0500
_audit_creation_method            fapswitch 2.2
_symmetry_space_group_name_H-M    P1
_symmetry_Int_Tables_number       1
_space_group_crystal_system       triclinic
_cell_length_a                    17.317455
_cell_length_b                    24.40113
_cell_length_c                    14.992902
_cell_angle_alpha                 89.999971
_cell_angle_beta                  125.553034
_cell_angle_gamma                 89.99998
_cell_volume                      5154.40718676

loop_
_atom_site_label
_atom_site_type_symbol
_atom_type_description
_atom_site_fract_x
_atom_site_fract_y
_atom_site_fract_z
_atom_type_partial_charge
C1    C     C_R   0.312832 0.372747 0.906923 -0.145773
C2    C     C_R   0.434567 0.499128 0.633960 0.080949
C3    C     C_R   0.092997 0.866155 0.910818 -0.127527
C4    C     C_R   0.317107 0.354302 0.996486 0.072744
C5    C     C_R   0.678466 0.351144 0.999790 0.073620
C6    C     C_R   0.821534 0.851144 0.000210 0.073620
C7    C     C_R   0.182893 0.854302 0.003514 0.072744
C8    C     C_R   0.065433 0.999127 0.366040 0.080949
C9    C     C_R   0.034251 0.999358 0.707191 0.073196
C10   C     C_R   0.190488 0.500063 0.643004 0.138371
C11   C     C_R   0.824579 0.500479 0.277739 0.134196
C12   C     C_R   0.675421 0.000480 0.722261 0.134196
C13   C     C_R   0.309512 0.000063 0.356995 0.138371
C14   C     C_2   0.979012 0.457326 0.364840 -0.109796
C15   C     C_2   0.077225 0.460595 0.461994 -0.117993
C16   C     C_2   0.422775 0.960595 0.538005 -0.117994
C17   C     C_R   0.679777 0.365276 0.089992 -0.141754
C18   C     C_2   0.520988 0.957326 0.635161 -0.109795
C19   C     C_2   0.925093 0.502358 0.324762 -0.189362
C20   C     C_2   0.104474 0.502001 0.533321 -0.195824
C21   C     C_2   0.395526 0.002001 0.466678 -0.195824
C22   C     C_2   0.574907 0.002358 0.675238 -0.189363
C23   C     C_R   0.387853 0.762766 0.105712 0.159399
C24   C     C_R   0.607765 0.765205 0.896045 0.159881
C25   C     C_R   0.892235 0.265205 0.103955 0.159881
C26   C     C_R   0.112147 0.262765 0.894288 0.159399
C27   C     C_R   0.361570 0.739815 0.006033 0.032410
C28   C     C_R   0.820223 0.865276 0.910008 -0.141753
C29   C     C_R   0.634086 0.741146 0.994841 0.029662
C30   C     C_R   0.865914 0.241146 0.005159 0.029662
C31   C     C_R   0.138430 0.239814 0.993966 0.032410
C32   C     C_R   0.301949 0.770393 0.909585 -0.203469
C33   C     C_R   0.697542 0.769995 0.092654 -0.202395
C34   C     C_R   0.802457 0.269995 0.907346 -0.202394
C35   C     C_R   0.198051 0.270393 0.090415 -0.203469
C36   C     C_R   0.746694 0.311622 0.906549 -0.199796
C37   C     C_R   0.249499 0.314277 0.089661 -0.198545
C38   C     C_R   0.250500 0.814277 0.910339 -0.198545
C39   C     C_R   0.187168 0.872747 0.093077 -0.145773
C40   C     C_R   0.753306 0.811622 0.093451 -0.199795
C41   C     C_R   0.755306 0.324073 0.003612 0.035336
C42   C     C_R   0.240841 0.326817 0.992609 0.036371
C43   C     C_R   0.259159 0.826817 0.007390 0.036371
C44   C     C_R   0.744694 0.824073 0.996388 0.035336
C45   C     C_R   0.443409 0.650756 0.091152 -0.158299
C46   C     C_R   0.554521 0.651163 0.908507 -0.146096
C47   C     C_R   0.945479 0.151163 0.091493 -0.146096
C48   C     C_R   0.056591 0.150756 0.908848 -0.158298
C49   C     C_R   0.836833 0.305966 0.103066 0.169281
C50   C     C_R   0.380895 0.682353 0.001156 0.078161
C51   C     C_R   0.162914 0.305929 0.893665 0.164572
C52   C     C_R   0.337087 0.805930 0.106334 0.164572
C53   C     C_R   0.663167 0.805966 0.896934 0.169281
C54   C     C_3   0.851822 0.285170 0.206053 -0.529901
C55   C     C_3   0.155088 0.284431 0.795157 -0.522449
C56   C     C_3   0.344914 0.784431 0.204844 -0.522449
C57   C     C_3   0.648178 0.785170 0.793947 -0.529902
C58   C     C_3   0.400415 0.737118 0.204299 -0.522286
C59   C     C_3   0.587290 0.740833 0.792523 -0.521469
C60   C     C_3   0.912710 0.240833 0.207477 -0.521469
C61   C     C_R   0.614899 0.683437 0.998374 0.081731
C62   C     C_3   0.099587 0.237117 0.795702 -0.522285
C63   C     C_R   0.396533 0.448196 0.470443 0.163237
C64   C     C_R   0.407993 0.448279 0.386981 0.165874
C65   C     C_R   0.092007 0.948278 0.613019 0.165874
C66   C     C_R   0.103467 0.948195 0.529556 0.163237
C67   C     C_R   0.398375 0.497682 0.518834 0.031348
C68   C     C_R   0.419635 0.497827 0.348788 0.033874
C69   C     C_R   0.080365 0.997827 0.651212 0.033874
C70   C     C_R   0.101625 0.997682 0.481166 0.031348
C71   C     C_R   0.383300 0.546540 0.460958 -0.200218
C72   C     C_R   0.885101 0.183437 0.001626 0.081730
C73   C     C_R   0.393852 0.546587 0.375375 -0.198913
C74   C     C_R   0.106148 0.046587 0.624625 -0.198912
C75   C     C_R   0.116699 0.046540 0.539042 -0.200218
C76   C     C_3   0.466765 0.397095 0.428858 -0.528861
C77   C     C_3   0.453627 0.396797 0.519468 -0.525115
C78   C     C_3   0.046372 0.896797 0.480532 -0.525117
C79   C     C_3   0.033234 0.897095 0.571141 -0.528861
C80   C     C_R   0.494682 0.453974 0.264126 -0.141046
C81   C     C_R   0.448504 0.453872 0.696609 -0.160044
C82   C     C_R   0.051496 0.953872 0.303391 -0.160044
C83   C     C_R   0.119105 0.182353 0.998844 0.078161
C84   C     C_R   0.005318 0.953974 0.735873 -0.141046
C85   C     C_R   0.240162 0.545608 0.703531 -0.145227
C86   C     C_R   0.767473 0.545882 0.247869 -0.151270
C87   C     C_R   0.732527 0.045882 0.752131 -0.151271
C88   C     C_R   0.259838 0.045608 0.296469 -0.145226
C89   C     C_R   0.487733 0.545520 0.257322 -0.128356
C90   C     C_R   0.453025 0.545025 0.697862 -0.120927
C91   C     C_R   0.046975 0.045025 0.302138 -0.120927
C92   C     C_R   0.012267 0.045520 0.742678 -0.128357
C93   C     C_R   0.242163 0.454091 0.700745 -0.133757
C94   C     C_R   0.465749 0.499358 0.292809 0.073196
C95   C     C_R   0.769689 0.454653 0.258448 -0.112505
C96   C     C_R   0.730311 0.954654 0.741552 -0.112506
C97   C     C_R   0.257837 0.954091 0.299255 -0.133757
C98   C     C_R   0.349853 0.651059 0.908793 -0.123182
C99   C     C_R   0.646890 0.651925 0.090550 -0.137471
C100  C     C_R   0.853110 0.151925 0.909450 -0.137471
C101  C     C_R   0.150147 0.151059 0.091207 -0.123182
C102  C     C_R   0.407003 0.366155 0.089182 -0.127527
C103  C     C_R   0.593100 0.369665 0.907264 -0.129808
C104  C     C_R   0.906900 0.869665 0.092736 -0.129808
H1    H     H_    0.253757 0.370732 0.822031 0.108892
H2    H     H_    0.714188 0.755955 0.170412 0.125128
H3    H     H_    0.785812 0.255955 0.829588 0.125128
H4    H     H_    0.214612 0.256651 0.168321 0.123513
H5    H     H_    0.690224 0.328636 0.828398 0.126752
H6    H     H_    0.303547 0.333280 0.166848 0.123654
H7    H     H_    0.196452 0.833280 0.833151 0.123654
H8    H     H_    0.809776 0.828635 0.171602 0.126752
H9    H     H_    0.892575 0.314434 0.275427 0.186171
H10   H     H_    0.111528 0.311487 0.722479 0.191052
H11   H     H_    0.388474 0.811488 0.277521 0.191052
H12   H     H_    0.729130 0.352693 0.172866 0.097789
H13   H     H_    0.607425 0.814434 0.724573 0.186172
H14   H     H_    0.786538 0.267986 0.193187 0.199788
H15   H     H_    0.224350 0.271462 0.812982 0.200276
H16   H     H_    0.275652 0.771463 0.187020 0.200275
H17   H     H_    0.713463 0.767986 0.806813 0.199788
H18   H     H_    0.362574 0.697372 0.186407 0.200859
H19   H     H_    0.618924 0.699565 0.803455 0.204802
H20   H     H_    0.881076 0.199565 0.196546 0.204801
H21   H     H_    0.137428 0.197371 0.813595 0.200859
H22   H     H_    0.376181 0.585504 0.489863 0.125020
H23   H     H_    0.770870 0.852693 0.827134 0.097789
H24   H     H_    0.393254 0.585543 0.340602 0.127157
H25   H     H_    0.106746 0.085543 0.659398 0.127157
H26   H     H_    0.123820 0.085503 0.510136 0.125020
H27   H     H_    0.431233 0.362006 0.371479 0.186147
H28   H     H_    0.521836 0.402888 0.601300 0.200504
H29   H     H_    0.978163 0.902888 0.398699 0.200504
H30   H     H_    0.068766 0.862006 0.628520 0.186147
H31   H     H_    0.542288 0.403860 0.460915 0.200018
H32   H     H_    0.409853 0.361806 0.513823 0.188355
H33   H     H_    0.090146 0.861806 0.486177 0.188356
H34   H     H_    0.246244 0.870732 0.177969 0.108892
H35   H     H_    0.957711 0.903860 0.539085 0.200018
H36   H     H_    0.493657 0.664725 0.174281 0.101423
H37   H     H_    0.503548 0.664574 0.825171 0.098003
H38   H     H_    0.996452 0.164574 0.174829 0.098003
H39   H     H_    0.006343 0.164725 0.825719 0.101423
H40   H     H_    0.495586 0.412358 0.285870 0.098993
H41   H     H_    0.424299 0.412609 0.667869 0.101457
H42   H     H_    0.075701 0.912609 0.332131 0.101457
H43   H     H_    0.004414 0.912358 0.714129 0.098993
H44   H     H_    0.476559 0.588011 0.266896 0.092957
H45   H     H_    0.956969 0.542740 0.340850 0.129105
H46   H     H_    0.437272 0.587191 0.670962 0.083184
H47   H     H_    0.062728 0.087191 0.329038 0.083185
H48   H     H_    0.023441 0.088011 0.733104 0.092957
H49   H     H_    0.229550 0.412472 0.670626 0.081620
H50   H     H_    0.795739 0.413890 0.286370 0.080891
H51   H     H_    0.704261 0.913890 0.713631 0.080891
H52   H     H_    0.270450 0.912471 0.329374 0.081621
H53   H     H_    0.310858 0.665183 0.824952 0.082153
H54   H     H_    0.683891 0.666331 0.174000 0.084670
H55   H     H_    0.816109 0.166331 0.825999 0.084670
H56   H     H_    0.060118 0.537538 0.515471 0.130862
H57   H     H_    0.189142 0.165183 0.175048 0.082154
H58   H     H_    0.947839 0.416736 0.340908 0.113000
H59   H     H_    0.121889 0.424777 0.483129 0.117452
H60   H     H_    0.378111 0.924777 0.516871 0.117452
H61   H     H_    0.552161 0.916736 0.659093 0.113000
H62   H     H_    0.475835 0.736954 0.276775 0.189345
H63   H     H_    0.511220 0.744632 0.722688 0.188196
H64   H     H_    0.988780 0.244632 0.277312 0.188196
H65   H     H_    0.024167 0.236953 0.723225 0.189345
H66   H     H_    0.225752 0.587780 0.676156 0.091208
H67   H     H_    0.439882 0.037537 0.484528 0.130862
H68   H     H_    0.788179 0.588209 0.253757 0.101910
H69   H     H_    0.711821 0.088209 0.746243 0.101910
H70   H     H_    0.274248 0.087780 0.323844 0.091208
H71   H     H_    0.437207 0.350983 0.170455 0.085345
H72   H     H_    0.566764 0.365203 0.822339 0.092455
H73   H     H_    0.933236 0.865203 0.177660 0.092455
H74   H     H_    0.062793 0.850984 0.829545 0.085345
H75   H     H_    0.543031 0.042741 0.659150 0.129105
H76   H     H_    0.285387 0.756651 0.831678 0.123513
N1    N     N_R   0.395410 0.396350 0.944340 -0.040727
N2    N     N_R   0.474920 0.471030 0.794350 -0.037779
N3    N     N_R   0.025080 0.971030 0.205650 -0.037779
N4    N     N_R   0.974920 0.971030 0.794350 -0.040360
N5    N     N_R   0.320260 0.527820 0.794570 -0.039579
N6    N     N_R   0.679740 0.527820 0.205430 -0.042813
N7    N     N_R   0.820260 0.027820 0.794570 -0.042813
N8    N     N_R   0.179740 0.027820 0.205430 -0.039579
N9    N     N_R   0.524590 0.527840 0.205200 -0.040886
N10   N     N_R   0.475410 0.527840 0.794800 -0.038969
N11   N     N_R   0.024590 0.027840 0.205200 -0.038969
N12   N     N_R   0.604590 0.396350 0.055660 -0.040076
N13   N     N_R   0.975410 0.027840 0.794800 -0.040886
N14   N     N_R   0.320750 0.471000 0.795020 -0.041490
N15   N     N_R   0.679250 0.471000 0.204980 -0.045180
N16   N     N_R   0.820750 0.971000 0.795020 -0.045180
N17   N     N_R   0.179250 0.971000 0.204980 -0.041490
N18   N     N_R   0.393620 0.602490 0.942710 -0.038270
N19   N     N_R   0.606380 0.602490 0.057290 -0.037774
N20   N     N_R   0.893620 0.102490 0.942710 -0.037774
N21   N     N_R   0.106380 0.102490 0.057290 -0.038270
N22   N     N_R   0.451720 0.396350 0.057510 -0.039460
N23   N     N_R   0.895410 0.896350 0.944340 -0.040076
N24   N     N_R   0.548280 0.396350 0.942490 -0.040347
N25   N     N_R   0.951720 0.896350 0.057510 -0.040347
N26   N     N_R   0.048280 0.896350 0.942490 -0.039459
N27   N     N_R   0.104590 0.896350 0.055660 -0.040727
N28   N     N_R   0.449930 0.602500 0.055880 -0.037546
N29   N     N_R   0.550070 0.602500 0.944120 -0.038136
N30   N     N_R   0.949930 0.102500 0.055880 -0.038136
N31   N     N_R   0.050070 0.102500 0.944120 -0.037546
N32   N     N_R   0.525080 0.471030 0.205650 -0.040360
Ni1   Ni    Ni4+2 0.435420 0.434270 0.870230 0.206877
Ni2   Ni    Ni4+2 0.564580 0.434270 0.129770 0.212191
Ni3   Ni    Ni4+2 0.935420 0.934270 0.870230 0.212191
Ni4   Ni    Ni4+2 0.064580 0.934270 0.129770 0.206877
Ni5   Ni    Ni4+2 0.563430 0.564580 0.128740 0.209155
Ni6   Ni    Ni4+2 0.436570 0.564580 0.871260 0.206275
Ni7   Ni    Ni4+2 0.063430 0.064580 0.128740 0.206275
Ni8   Ni    Ni4+2 0.936570 0.064580 0.871260 0.209155

loop_
_geom_bond_atom_site_label_1
_geom_bond_atom_site_label_2
_ccdc_geom_bond_type
N26   Ni3   S    
C47   N30   A    
C23   C58   S    
C79   H35   S    
C5    C103  A    
C10   C85   A    
C16   C21   D    
C65   C79   S    
C29   C33   A    
N7    N16   A    
N13   Ni8   S    
C93   N14   A    
N19   Ni5   S    
N5    N14   A    
C90   H46   S    
N14   Ni1   S    
C1    N1    A    
N20   N30   A    
C31   C83   S    
C40   H8    S    
C54   C60   S    
C16   H60   S    
N31   Ni8   S    
N23   N25   A    
C47   H38   S    
C11   C19   S    
C60   H64   S    
C86   H68   S    
N29   Ni6   S    
C61   C99   A    
C7    C39   A    
C15   H59   S    
C35   C37   A    
C3    H74   S    
C9    C69   S    
C89   H44   S    
C3    C7    A    
C32   C38   A    
C72   C100  A    
C76   H27   S    
C43   C52   A    
C57   C59   S    
C96   H51   S    
C5    C17   A    
C11   C86   A    
C11   C95   A    
C49   C54   S    
C79   H30   S    
C54   H9    S    
C12   C22   S    
C37   C42   A    
C88   H70   S    
C60   H20   S    
C97   H52   S    
C41   C49   A    
C89   C94   A    
C2    C90   A    
C103  N24   A    
C103  H72   S    
N15   Ni2   S    
C35   H4    S    
C24   C29   A    
C44   C53   A    
C76   H31   S    
C6    C28   A    
C23   C27   A    
N1    N22   A    
N25   Ni4   S    
C10   C20   S    
C80   H40   S    
C4    C102  A    
C92   H48   S    
N2    Ni1   S    
C95   N15   A    
C98   H53   S    
C71   H22   S    
C25   C60   S    
C7    C43   S    
C83   C101  A    
C67   C71   A    
C27   C50   S    
C42   C51   A    
C80   N32   A    
C63   C77   S    
C39   H34   S    
C26   C31   A    
C6    C44   S    
C59   H19   S    
C56   H16   S    
C36   C41   A    
N18   Ni6   S    
C81   N2    A    
C87   H69   S    
N10   Ni6   S    
C9    C92   A    
N12   Ni2   S    
C82   H42   S    
C18   H61   S    
N9    Ni5   S    
C46   H37   S    
C29   C61   S    
N7    Ni8   S    
C17   N12   A    
C85   N5    A    
C15   C20   D    
C66   C78   S    
N6    Ni5   S    
C63   C67   A    
C50   C98   A    
C33   C40   A    
C58   H18   S    
C74   C75   A    
C98   N18   A    
C46   C61   A    
N18   N28   A    
C97   N17   A    
N6    N15   A    
C84   N4    A    
C76   C77   S    
N21   Ni7   S    
N8    N17   A    
C2    C67   S    
N5    Ni6   S    
N11   Ni7   S    
C71   C73   A    
N16   Ni3   S    
C30   C34   A    
N26   N27   A    
C25   C30   A    
N4    Ni3   S    
C87   N7    A    
C10   C93   A    
C68   C73   A    
C21   H67   S    
C91   N11   A    
C82   N3    A    
C45   H36   S    
C68   C94   S    
N30   Ni7   S    
C48   H39   S    
C39   N27   A    
C102  H71   S    
C77   H28   S    
C14   H58   S    
C96   N16   A    
C102  N22   A    
C104  H73   S    
C48   N31   A    
C88   N8    A    
C64   C76   S    
C13   C21   S    
C69   C74   A    
C8    C91   A    
C104  N25   A    
N22   Ni2   S    
C92   N13   A    
C37   H6    S    
N17   Ni4   S    
C34   C36   A    
C100  N20   A    
C77   H32   S    
N32   Ni2   S    
C86   N6    A    
C45   N28   A    
C81   H41   S    
C54   H14   S    
C75   H26   S    
N20   Ni8   S    
C85   H66   S    
C31   C35   A    
C74   H25   S    
C34   H3    S    
C80   C94   A    
C73   H24   S    
C78   H33   S    
C64   C68   A    
C36   H5    S    
C59   H63   S    
C57   H13   S    
C90   N10   A    
N8    Ni7   S    
N23   Ni3   S    
N28   Ni5   S    
C62   H65   S    
C5    C41   S    
C53   C57   S    
N12   N24   A    
C12   C87   A    
C27   C32   A    
C18   C22   D    
C3    N26   A    
C14   C19   D    
C32   H76   S    
C33   H2    S    
C8    C82   A    
C22   H75   S    
N9    N32   A    
N3    N11   A    
C62   H21   S    
C30   C72   S    
C28   H23   S    
C55   H15   S    
C55   H10   S    
C84   H43   S    
C46   N29   A    
C8    C70   S    
C6    C104  A    
C48   C83   A    
C95   H50   S    
C1    C4    A    
C101  H57   S    
C26   C62   S    
C38   C43   A    
C101  N21   A    
C26   C51   A    
N3    Ni4   S    
C91   H47   S    
C78   C79   S    
C100  H55   S    
C23   C52   A    
C66   C70   A    
C4    C42   S    
C45   C50   A    
C24   C59   S    
C65   C69   A    
N24   Ni1   S    
C13   C88   A    
C93   H49   S    
N27   Ni4   S    
C19   H45   S    
C56   H11   S    
C56   C58   S    
C51   C55   S    
C13   C97   A    
C58   H62   S    
C78   H29   S    
C25   C49   A    
C47   C72   A    
C9    C84   A    
C57   H17   S    
C63   C64   A    
C52   C56   S    
C40   C44   A    
C55   C62   S    
C28   N23   A    
C16   C18   S    
C65   C66   A    
C20   H56   S    
C99   H54   S    
C99   N19   A    
C70   C75   A    
C24   C53   A    
C89   N9    A    
C14   C15   S    
C12   C96   A    
C2    C81   A    
N1    Ni1   S    
N2    N10   A    
N19   N29   A    
C38   H7    S    
N21   N31   A    
N4    N13   A    
C17   H12   S    
C1    H1    S    
