data_mof_unit_4025.cif
_audit_creation_date              2012-12-11T15:23:34-0500
_audit_creation_method            fapswitch 2.2
_symmetry_space_group_name_H-M    P1
_symmetry_Int_Tables_number       1
_space_group_crystal_system       triclinic
_cell_length_a                    17.337578
_cell_length_b                    24.60188
_cell_length_c                    14.88954
_cell_angle_alpha                 90.305632
_cell_angle_beta                  124.935619
_cell_angle_gamma                 88.656747
_cell_volume                      5204.79101215

loop_
_atom_site_label
_atom_site_type_symbol
_atom_type_description
_atom_site_fract_x
_atom_site_fract_y
_atom_site_fract_z
_atom_type_partial_charge
C1    C     C_R   0.327987 0.361102 0.912590 -0.295110
C2    C     C_R   0.634912 0.344806 0.089046 -0.117441
C3    C     C_R   0.828005 0.861090 0.912595 -0.295137
C4    C     C_R   0.134918 0.844810 0.089065 -0.117438
C5    C     C_R   0.316927 0.643642 0.005397 -0.345551
C6    C     C_R   0.607020 0.682946 0.991654 -0.392457
C7    C     C_R   0.816923 0.143635 0.005397 -0.345553
C8    C     C_R   0.107010 0.182948 0.991652 -0.392477
C9    C     C_R   0.566712 0.499321 0.369034 -0.215852
C10   C     C_R   0.554822 0.495752 0.728078 -0.196580
C11   C     C_R   0.066724 0.999323 0.369039 -0.215850
C12   C     C_R   0.054836 0.995759 0.728091 -0.196578
C13   C     C_R   0.184110 0.502285 0.650707 -0.410774
C14   C     C_R   0.824199 0.499601 0.267653 -0.387822
C15   C     C_R   0.684090 0.002282 0.650741 -0.410701
C16   C     C_R   0.324204 0.999603 0.267662 -0.387746
C17   C     C_2   0.987002 0.461783 0.372816 0.224634
C18   C     C_2   0.083921 0.478338 0.457862 0.372944
C19   C     C_2   0.487020 0.961792 0.372810 0.224548
C20   C     C_2   0.583929 0.978359 0.457885 0.373008
C21   C     C_2   0.924733 0.502140 0.311586 0.689816
C22   C     C_2   0.095202 0.504456 0.544003 0.725686
C23   C     C_2   0.424740 0.002149 0.311592 0.689755
C24   C     C_2   0.595181 0.004449 0.544037 0.725688
C25   C     C_R   0.154506 0.681416 0.913925 -0.398875
C26   C     C_R   0.686941 0.767798 0.066064 -0.343749
C27   C     C_R   0.654511 0.181406 0.913903 -0.398676
C28   C     C_R   0.186893 0.267813 0.066048 -0.343809
C29   C     C_R   0.593551 0.221350 0.910294 0.645983
C30   C     C_R   0.256299 0.302036 0.081834 0.588473
C31   C     C_R   0.093534 0.721337 0.910366 0.646298
C32   C     C_R   0.756361 0.802009 0.081856 0.588397
C33   C     C_R   0.628569 0.252970 0.004992 0.005924
C34   C     C_R   0.276875 0.301886 0.003109 -0.043236
C35   C     C_R   0.128594 0.752971 0.005051 0.005920
C36   C     C_R   0.776934 0.801854 0.003130 -0.043235
C37   C     C_R   0.701786 0.230969 0.106194 -0.481165
C38   C     C_R   0.233153 0.266629 0.914951 -0.438515
C39   C     C_R   0.201840 0.730981 0.106245 -0.481275
C40   C     C_R   0.733205 0.766600 0.914970 -0.438435
C41   C     C_R   0.258890 0.688221 0.110695 0.674812
C42   C     C_R   0.665929 0.732080 0.900143 0.599632
C43   C     C_R   0.758862 0.188219 0.110669 0.674816
C44   C     C_R   0.165891 0.232099 0.900130 0.599665
C45   C     C_R   0.407409 0.630276 0.093081 0.731829
C46   C     C_R   0.548041 0.651001 0.906085 0.870316
C47   C     C_R   0.907403 0.130269 0.093082 0.731810
C48   C     C_R   0.048034 0.151002 0.906084 0.870321
C49   C     C_R   0.243179 0.671340 0.010742 0.016787
C50   C     C_R   0.647736 0.730481 0.981268 -0.001261
C51   C     C_R   0.743171 0.171333 0.010731 0.016718
C52   C     C_R   0.147704 0.230492 0.981259 -0.001210
C53   C     C_R   0.636173 0.538941 0.651319 0.620378
C54   C     C_R   0.634262 0.539852 0.556293 0.618338
C55   C     C_R   0.136168 0.038953 0.651312 0.620413
C56   C     C_R   0.134261 0.039863 0.556291 0.618404
C57   C     C_R   0.591693 0.496761 0.481314 -0.431341
C58   C     C_R   0.606652 0.492225 0.676451 -0.407708
C59   C     C_R   0.091705 0.996768 0.481321 -0.431323
C60   C     C_R   0.106664 0.992234 0.676457 -0.407743
C61   C     C_R   0.570531 0.449171 0.515280 0.460554
C62   C     C_R   0.603520 0.443792 0.623887 0.435106
C63   C     C_R   0.070557 0.949177 0.515300 0.460495
C64   C     C_R   0.103549 0.943802 0.623905 0.435078
C65   C     C_R   0.557394 0.454526 0.306696 0.566501
C66   C     C_R   0.512987 0.452455 0.743794 0.494602
C67   C     C_R   0.057401 0.954528 0.306698 0.566332
C68   C     C_R   0.013017 0.952459 0.743829 0.494423
C69   C     C_R   0.239486 0.545924 0.703980 0.818545
C70   C     C_R   0.767393 0.544273 0.248128 0.796124
C71   C     C_R   0.739473 0.045923 0.703995 0.818471
C72   C     C_R   0.267394 0.044274 0.248133 0.796129
C73   C     C_R   0.547368 0.544343 0.303457 0.781605
C74   C     C_R   0.525145 0.542431 0.755582 0.737626
C75   C     C_R   0.047376 0.044344 0.303459 0.781651
C76   C     C_R   0.025145 0.042434 0.755585 0.737641
C77   C     C_R   0.235140 0.455910 0.709473 0.492592
C78   C     C_R   0.766827 0.454536 0.236191 0.515240
C79   C     C_R   0.735135 0.955906 0.709491 0.492736
C80   C     C_R   0.266831 0.954538 0.236199 0.515204
C81   C     C_R   0.312671 0.628379 0.911696 0.668541
C82   C     C_R   0.641797 0.652465 0.086064 0.776326
C83   C     C_R   0.812672 0.128378 0.911696 0.668485
C84   C     C_R   0.141793 0.152467 0.086062 0.776331
C85   C     C_R   0.420292 0.360560 0.095105 0.651330
C86   C     C_R   0.551419 0.345471 0.910008 0.583216
C87   C     C_R   0.920325 0.860543 0.095111 0.651479
C88   C     C_R   0.051422 0.845463 0.910029 0.583399
C89   C     C_R   0.339510 0.339729 0.005349 -0.048379
C90   C     C_R   0.603821 0.311417 0.000140 -0.119364
C91   C     C_R   0.839554 0.839703 0.005358 -0.048442
C92   C     C_R   0.103833 0.811417 0.000174 -0.119365
H1    H     H_    0.279613 0.347942 0.830561 0.196235
H2    H     H_    0.668099 0.331836 0.172965 0.165406
H3    H     H_    0.779625 0.847933 0.830567 0.196223
H4    H     H_    0.168092 0.831844 0.172985 0.165442
H5    H     H_    0.133464 0.657746 0.842734 0.220883
H6    H     H_    0.668752 0.767580 0.124529 0.215813
H7    H     H_    0.633464 0.157714 0.842734 0.220860
H8    H     H_    0.168705 0.267589 0.124513 0.215810
H9    H     H_    0.716582 0.248515 0.180793 0.157312
H10   H     H_    0.254462 0.263791 0.859476 0.180033
H11   H     H_    0.216673 0.748539 0.180850 0.157335
H12   H     H_    0.754510 0.763762 0.859491 0.180030
N1    N     N_R   0.395440 0.396300 0.944370 -0.083647
N2    N     N_R   0.604560 0.396300 0.055630 -0.071665
N3    N     N_R   0.895440 0.896300 0.944370 -0.083656
N4    N     N_R   0.104560 0.896300 0.055630 -0.071695
N5    N     N_R   0.449890 0.602500 0.055780 -0.172626
N6    N     N_R   0.550110 0.602500 0.944220 -0.188744
N7    N     N_R   0.949890 0.102500 0.055780 -0.172623
N8    N     N_R   0.050110 0.102500 0.944220 -0.188758
N9    N     N_R   0.525090 0.470990 0.205640 -0.171888
N10   N     N_R   0.474910 0.470990 0.794360 -0.176041
N11   N     N_R   0.025090 0.970990 0.205640 -0.171885
N12   N     N_R   0.974910 0.970990 0.794360 -0.175969
N13   N     N_R   0.320240 0.527820 0.794510 -0.165259
N14   N     N_R   0.679760 0.527820 0.205490 -0.168945
N15   N     N_R   0.820240 0.027820 0.794510 -0.165249
N16   N     N_R   0.179760 0.027820 0.205490 -0.168945
N17   N     N_R   0.524580 0.527810 0.205160 -0.188063
N18   N     N_R   0.475420 0.527810 0.794840 -0.158046
N19   N     N_R   0.024580 0.027810 0.205160 -0.188063
N20   N     N_R   0.975420 0.027810 0.794840 -0.158025
N21   N     N_R   0.320750 0.470990 0.794990 -0.144133
N22   N     N_R   0.679250 0.470990 0.205010 -0.156161
N23   N     N_R   0.820750 0.970990 0.794990 -0.144114
N24   N     N_R   0.179250 0.970990 0.205010 -0.156155
N25   N     N_R   0.393580 0.602500 0.942610 -0.161459
N26   N     N_R   0.606420 0.602500 0.057390 -0.180850
N27   N     N_R   0.893580 0.102500 0.942610 -0.161448
N28   N     N_R   0.106420 0.102500 0.057390 -0.180855
N29   N     N_R   0.451750 0.396300 0.057540 -0.109515
N30   N     N_R   0.548250 0.396300 0.942460 -0.131523
N31   N     N_R   0.951750 0.896300 0.057540 -0.109527
N32   N     N_R   0.048250 0.896300 0.942460 -0.131538
Ni1   Ni    Ni4+2 0.435420 0.434250 0.870220 0.174006
Ni2   Ni    Ni4+2 0.564580 0.434250 0.129780 0.207669
Ni3   Ni    Ni4+2 0.935420 0.934250 0.870220 0.174042
Ni4   Ni    Ni4+2 0.064580 0.934250 0.129780 0.207681
Ni5   Ni    Ni4+2 0.563400 0.564580 0.128670 0.306158
Ni6   Ni    Ni4+2 0.436600 0.564580 0.871330 0.301653
Ni7   Ni    Ni4+2 0.063400 0.064580 0.128670 0.306158
Ni8   Ni    Ni4+2 0.936600 0.064580 0.871330 0.301676
F1    F     F_    0.957353 0.550998 0.305913 -0.657657
F2    F     F_    0.019955 0.526409 0.539071 -0.673240
F3    F     F_    0.457351 0.051015 0.305938 -0.657664
F4    F     F_    0.519911 0.026359 0.539115 -0.673299
O1    O     O_3   0.498461 0.226376 0.824765 -0.634507
C93   C     C_3   0.475854 0.205310 0.724140 -0.016962
H13   H     H_    0.475710 0.160151 0.725235 0.149086
H14   H     H_    0.523409 0.220730 0.702841 0.162176
H15   H     H_    0.403322 0.219105 0.658301 0.162000
O2    O     O_3   0.304381 0.335134 0.172996 -0.638444
C94   C     C_3   0.341361 0.304129 0.270217 -0.109860
H16   H     H_    0.355979 0.260481 0.263038 0.161069
H17   H     H_    0.292960 0.307333 0.296378 0.135380
H18   H     H_    0.410025 0.320555 0.336089 0.221265
O3    O     O_3   0.998424 0.726366 0.824902 -0.634616
C95   C     C_3   0.975635 0.705084 0.724363 -0.017726
H19   H     H_    0.975627 0.659930 0.725830 0.149001
H20   H     H_    0.022988 0.720430 0.702714 0.162345
H21   H     H_    0.903021 0.718780 0.658590 0.162260
O4    O     O_3   0.804454 0.835103 0.173023 -0.638490
C96   C     C_3   0.841424 0.804098 0.270240 -0.109794
H22   H     H_    0.856015 0.760446 0.263054 0.161085
H23   H     H_    0.793031 0.807316 0.296409 0.135374
H24   H     H_    0.910099 0.820513 0.336108 0.221278
O5    O     O_3   0.321373 0.658327 0.206168 -0.597786
C97   C     C_3   0.365030 0.690089 0.301936 0.004054
H25   H     H_    0.317924 0.695748 0.329547 0.088393
H26   H     H_    0.388099 0.729859 0.290757 0.110818
H27   H     H_    0.429036 0.667726 0.368234 0.200103
O6    O     O_3   0.630482 0.693945 0.817384 -0.548402
C98   C     C_3   0.577354 0.720488 0.714104 0.179516
H28   H     H_    0.623935 0.738643 0.694145 0.042236
H29   H     H_    0.527652 0.751950 0.709045 0.055455
H30   H     H_    0.534565 0.689909 0.650318 0.199674
O7    O     O_3   0.821344 0.158334 0.206156 -0.597759
C99   C     C_3   0.865009 0.190114 0.301904 0.004051
H31   H     H_    0.817919 0.195776 0.329535 0.088398
H32   H     H_    0.888056 0.229882 0.290686 0.110766
H33   H     H_    0.929030 0.167762 0.368204 0.200125
O8    O     O_3   0.130457 0.193961 0.817375 -0.548410
C100  C     C_3   0.077338 0.220499 0.714090 0.179524
H34   H     H_    0.123930 0.238637 0.694127 0.042344
H35   H     H_    0.027650 0.251975 0.709024 0.055359
H36   H     H_    0.034534 0.189919 0.650310 0.199684
F5    F     F_    0.668036 0.582621 0.718209 -0.583790
F6    F     F_    0.670309 0.583076 0.537579 -0.573037
F7    F     F_    0.168014 0.082638 0.718188 -0.583763
F8    F     F_    0.170301 0.083089 0.537573 -0.572952
O9    O     O_3   0.513075 0.409291 0.443319 -0.527564
C101  C     C_3   0.419086 0.429943 0.374587 -0.105356
H37   H     H_    0.407541 0.472857 0.390050 0.069433
H38   H     H_    0.372784 0.404280 0.384450 0.125170
H39   H     H_    0.395025 0.427246 0.287839 0.179875
O10   O     O_3   0.614031 0.392078 0.666632 -0.510272
C102  C     C_3   0.700010 0.387578 0.771096 -0.030415
H40   H     H_    0.760435 0.399127 0.768474 0.077886
H41   H     H_    0.711582 0.344505 0.798528 0.161152
H42   H     H_    0.698336 0.412237 0.832740 0.097073
O11   O     O_3   0.013132 0.909285 0.443361 -0.527538
C103  C     C_3   0.919136 0.929924 0.374583 -0.105440
H43   H     H_    0.907556 0.972826 0.390022 0.069415
H44   H     H_    0.872819 0.904257 0.384401 0.125128
H45   H     H_    0.895122 0.927231 0.287866 0.179869
O12   O     O_3   0.114102 0.892089 0.666667 -0.510250
C104  C     C_3   0.200085 0.887608 0.771125 -0.030194
H46   H     H_    0.260498 0.899153 0.768483 0.077853
H47   H     H_    0.211669 0.844542 0.798592 0.161179
H48   H     H_    0.198413 0.912278 0.832755 0.097053
F9    F     F_    0.455282 0.654164 0.192002 -0.608934
F10   F     F_    0.476020 0.669716 0.805970 -0.627090
F11   F     F_    0.955267 0.154148 0.192011 -0.608955
F12   F     F_    0.976009 0.169715 0.805970 -0.627075
O13   O     O_3   0.603096 0.404453 0.347015 -0.539286
C105  C     C_3   0.701069 0.410579 0.423404 -0.050330
H49   H     H_    0.718876 0.413602 0.507634 0.127731
H50   H     H_    0.729258 0.446140 0.405916 0.093035
H51   H     H_    0.737765 0.373692 0.420785 0.146593
O14   O     O_3   0.478724 0.407411 0.677847 -0.524597
C106  C     C_3   0.386552 0.419616 0.586222 -0.082330
H52   H     H_    0.385318 0.454594 0.538379 0.094343
H53   H     H_    0.338081 0.428494 0.610852 0.160665
H54   H     H_    0.359693 0.383588 0.532391 0.152264
O15   O     O_3   0.103104 0.904456 0.347014 -0.539246
C107  C     C_3   0.201077 0.910582 0.423398 -0.050181
H55   H     H_    0.218897 0.913566 0.507629 0.127779
H56   H     H_    0.229256 0.946160 0.405959 0.092994
H57   H     H_    0.237771 0.873717 0.420721 0.146570
O16   O     O_3   0.978859 0.907378 0.677999 -0.524536
C108  C     C_3   0.886720 0.919548 0.586256 -0.082080
H58   H     H_    0.885501 0.954532 0.538443 0.094210
H59   H     H_    0.838141 0.928386 0.610750 0.160601
H60   H     H_    0.859973 0.883520 0.532425 0.152232
F13   F     F_    0.229072 0.594418 0.654947 -0.587982
F14   F     F_    0.795668 0.596282 0.268969 -0.577603
F15   F     F_    0.729044 0.094415 0.654949 -0.587997
F16   F     F_    0.295664 0.096283 0.268971 -0.577600
F17   F     F_    0.573901 0.595419 0.340171 -0.548709
F18   F     F_    0.534539 0.594260 0.735027 -0.611981
F19   F     F_    0.073924 0.095419 0.340173 -0.548682
F20   F     F_    0.034524 0.094265 0.735020 -0.611973
O17   O     O_3   0.210555 0.403212 0.673833 -0.632532
C109  C     C_3   0.129189 0.390830 0.669704 -0.294742
H61   H     H_    0.065327 0.412099 0.601523 0.198214
H62   H     H_    0.137514 0.400411 0.748016 0.151967
H63   H     H_    0.117187 0.346571 0.655731 0.153305
O18   O     O_3   0.789178 0.403343 0.217696 -0.571423
C110  C     C_3   0.806125 0.406335 0.135170 -0.181650
H64   H     H_    0.875470 0.423562 0.166179 0.112336
H65   H     H_    0.750276 0.430294 0.062167 0.100897
H66   H     H_    0.806865 0.364512 0.107389 0.158625
O19   O     O_3   0.710570 0.903209 0.673830 -0.632557
C111  C     C_3   0.629199 0.890806 0.669676 -0.294817
H67   H     H_    0.565330 0.912066 0.601484 0.198263
H68   H     H_    0.637502 0.900379 0.747980 0.151975
H69   H     H_    0.617222 0.846545 0.655698 0.153320
O20   O     O_3   0.289185 0.903345 0.217703 -0.571405
C112  C     C_3   0.306125 0.906339 0.135171 -0.181548
H70   H     H_    0.375464 0.923573 0.166170 0.112334
H71   H     H_    0.250268 0.930295 0.062166 0.100869
H72   H     H_    0.306873 0.864516 0.107394 0.158632
F21   F     F_    0.245416 0.644143 0.807861 -0.634059
F22   F     F_    0.679548 0.673667 0.186915 -0.615092
F23   F     F_    0.745429 0.144155 0.807865 -0.634117
F24   F     F_    0.179544 0.173669 0.186913 -0.615089
O21   O     O_3   0.471750 0.341370 0.201633 -0.571609
C113  C     C_3   0.505105 0.287980 0.205341 -0.102949
H73   H     H_    0.539972 0.284625 0.161816 0.090333
H74   H     H_    0.447498 0.258450 0.171332 0.130456
H75   H     H_    0.558316 0.276510 0.292275 0.186804
O22   O     O_3   0.500372 0.328900 0.802572 -0.573331
C114  C     C_3   0.404127 0.328843 0.760829 0.017738
H76   H     H_    0.376734 0.370331 0.755904 0.137408
H77   H     H_    0.390698 0.301713 0.809696 0.124842
H78   H     H_    0.364243 0.313164 0.676028 0.147994
O23   O     O_3   0.971837 0.841329 0.201625 -0.571595
C115  C     C_3   0.005138 0.787933 0.205257 -0.103174
H79   H     H_    0.039785 0.784544 0.161486 0.090309
H80   H     H_    0.947544 0.758409 0.171467 0.130641
H81   H     H_    0.058517 0.776483 0.292154 0.186775
O24   O     O_3   0.000387 0.828876 0.802603 -0.573153
C116  C     C_3   0.904141 0.828823 0.760841 0.017786
H82   H     H_    0.876745 0.870314 0.755880 0.137384
H83   H     H_    0.890704 0.801710 0.809722 0.124819
H84   H     H_    0.864277 0.813117 0.676060 0.148034
O25   O     O_3   0.956293 0.413641 0.389286 -0.611621
C117  C     C_3   0.007296 0.368806 0.386711 -0.115482
H85   H     H_    0.082092 0.368296 0.457876 0.183032
H86   H     H_    0.002303 0.367621 0.308913 0.118547
H87   H     H_    0.976040 0.330993 0.391296 0.152104
O26   O     O_3   0.161516 0.457130 0.463326 -0.649432
C118  C     C_3   0.147713 0.463376 0.360882 -0.259285
H88   H     H_    0.130689 0.506468 0.332040 0.190012
H89   H     H_    0.092216 0.436302 0.298413 0.128140
H90   H     H_    0.213952 0.451613 0.369894 0.154940
O27   O     O_3   0.456320 0.913639 0.389262 -0.611551
C119  C     C_3   0.507343 0.868815 0.386686 -0.115708
H91   H     H_    0.582152 0.868328 0.457819 0.183015
H92   H     H_    0.502305 0.867621 0.308861 0.118550
H93   H     H_    0.476136 0.830994 0.391331 0.152159
O28   O     O_3   0.661555 0.957195 0.463355 -0.649382
C120  C     C_3   0.647729 0.963402 0.360894 -0.259194
H94   H     H_    0.630503 0.006464 0.331890 0.190003
H95   H     H_    0.592370 0.936234 0.298540 0.128142
H96   H     H_    0.714018 0.951736 0.369941 0.154969

loop_
_geom_bond_atom_site_label_1
_geom_bond_atom_site_label_2
_ccdc_geom_bond_type
C101  H38   S    
C87   C91   A    
C117  H87   S    
C106  H52   S    
C66   O14   S    
C106  H54   S    
C98   H29   S    
C27   H7    S    
C9    C73   A    
C14   C21   S    
N1    N29   A    
O24   C116  S    
C26   C50   A    
C45   N5    A    
C101  H39   S    
C111  H69   S    
C29   C33   A    
O22   C114  S    
N10   Ni1   S    
C2    C90   A    
N26   Ni5   S    
C4    H4    S    
C86   N30   A    
C19   C20   S    
C45   F9    S    
N12   N20   A    
C102  H40   S    
O17   C109  S    
C94   H18   S    
C5    C49   S    
C41   C49   A    
C107  H55   S    
C99   H32   S    
C13   C77   A    
N11   N19   A    
C95   H21   S    
C39   C41   A    
C86   C90   A    
C113  H73   S    
N25   Ni6   S    
C41   O5    S    
C17   C21   D    
C16   C80   A    
C55   F7    S    
C19   C23   D    
C83   N27   A    
C81   N25   A    
O15   C107  S    
O2    C94   S    
C68   N12   A    
C36   C91   S    
C73   N17   A    
C46   N6    A    
C78   O18   S    
C113  H74   S    
C77   N21   A    
C119  H91   S    
N4    Ni4   S    
C79   N23   A    
C65   N9    A    
C53   C58   A    
C57   C61   A    
C59   C63   A    
C56   C59   A    
C71   N15   A    
C60   C64   A    
N13   Ni6   S    
C116  H83   S    
C98   H28   S    
C65   O13   S    
C47   N7    A    
C84   N28   A    
C9    C65   A    
C29   O1    S    
C74   F18   S    
C30   O2    S    
C1    H1    S    
O9    C101  S    
C94   H16   S    
C3    H3    S    
C107  H57   S    
C1    N1    A    
C25   C31   A    
C7    C83   A    
C26   C32   A    
C27   C29   A    
C118  H89   S    
C53   C54   A    
C12   C68   A    
C20   O28   S    
C63   O11   S    
C32   C36   A    
C10   C58   S    
C112  H70   S    
C100  H35   S    
C97   H25   S    
O8    C100  S    
O6    C98   S    
C15   C79   A    
C22   F2    S    
C120  H95   S    
C111  H68   S    
C102  H42   S    
C108  H58   S    
C8    C52   S    
C119  H93   S    
N7    Ni7   S    
C44   C52   A    
C40   C42   A    
C96   H23   S    
C81   F21   S    
C88   O24   S    
C27   C51   A    
C104  H46   S    
C10   C66   A    
C30   C34   A    
C76   N20   A    
C2    H2    S    
C114  H78   S    
C115  H79   S    
C42   O6    S    
C110  H66   S    
C80   N24   A    
O13   C105  S    
C2    N2    A    
C95   H20   S    
C105  H50   S    
C67   O15   S    
C72   N16   A    
C17   C18   S    
C6    C50   S    
C42   C50   A    
C25   H5    S    
C15   C24   S    
C48   N8    A    
C16   C23   S    
N5    N25   A    
C61   O9    S    
C105  H51   S    
N7    N27   A    
C109  H61   S    
C54   F6    S    
C18   C22   D    
O20   C112  S    
C112  H72   S    
C106  H53   S    
C7    C47   A    
N24   Ni4   S    
C34   C89   S    
C11   C75   A    
C37   H9    S    
C13   C69   A    
C70   N14   A    
C32   O4    S    
N3    Ni3   S    
C61   C62   A    
C108  H60   S    
N1    Ni1   S    
C63   C64   A    
N2    N30   A    
N9    N17   A    
C103  H43   S    
C85   N29   A    
C93   H13   S    
N5    Ni5   S    
C70   F14   S    
O21   C113  S    
C53   F5    S    
C68   O16   S    
C54   C57   A    
N15   N23   A    
C58   C62   A    
C55   C56   A    
C56   F8    S    
C94   H17   S    
C114  H76   S    
C16   C72   A    
C115  H81   S    
N14   Ni5   S    
N30   Ni1   S    
C107  H56   S    
C110  H64   S    
C4    N4    A    
C43   O7    S    
O4    C96   S    
O26   C118  S    
C104  H48   S    
C84   F24   S    
C3    C91   A    
C117  H85   S    
C85   O21   S    
N3    N31   A    
O12   C104  S    
C93   H15   S    
C47   F11   S    
O23   C115  S    
N12   Ni3   S    
C35   C92   S    
N28   Ni7   S    
C101  H37   S    
C18   O26   S    
N29   Ni2   S    
C55   C60   A    
N15   Ni8   S    
C14   C70   A    
C113  H75   S    
N16   Ni7   S    
N32   Ni3   S    
C11   C59   S    
C119  H92   S    
C98   H30   S    
N31   Ni4   S    
C87   N31   A    
C88   N32   A    
C118  H88   S    
C85   C89   A    
N21   Ni1   S    
O18   C110  S    
C5    C45   A    
C33   C37   A    
C71   F15   S    
C37   C43   A    
C35   C39   A    
O27   C119  S    
C8    C48   A    
C38   C44   A    
C116  H82   S    
N17   Ni5   S    
C5    C81   A    
O3    C95   S    
C103  H45   S    
C82   F22   S    
C87   O23   S    
N8    N28   A    
C74   N18   A    
C12   C76   A    
C31   C35   A    
C78   N22   A    
C99   H31   S    
C66   N10   A    
C76   F20   S    
C8    C84   A    
N16   N24   A    
C39   H11   S    
C15   C71   A    
C7    C51   S    
O1    C93   S    
C43   C51   A    
C100  H34   S    
C97   H26   S    
C83   F23   S    
O16   C108  S    
C13   C22   S    
N6    N26   A    
C25   C49   A    
N2    Ni2   S    
O7    C99   S    
C73   F17   S    
N11   Ni4   S    
C120  H94   S    
C102  H41   S    
N9    Ni2   S    
N27   Ni8   S    
C21   F1    S    
C4    C92   A    
C97   H27   S    
O11   C103  S    
C48   F12   S    
C96   H22   S    
C6    C82   A    
C28   C52   A    
O5    C97   S    
C64   O12   S    
C75   N19   A    
C86   O22   S    
C114  H77   S    
C115  H80   S    
N4    N32   A    
C116  H84   S    
C110  H65   S    
N6    Ni6   S    
C67   N11   A    
C88   C92   A    
C46   F10   S    
C72   F16   S    
O10   C102  S    
C80   O20   S    
C82   N26   A    
C44   O8    S    
C9    C57   S    
C99   H33   S    
C28   H8    S    
N23   Ni3   S    
C11   C67   A    
C118  H90   S    
C109  H62   S    
C20   C24   D    
C36   C40   A    
C62   O10   S    
C24   F4    S    
C112  H71   S    
C100  H36   S    
C3    N3    A    
N10   N18   A    
C40   H12   S    
C120  H96   S    
C111  H67   S    
C108  H59   S    
C26   H6    S    
O28   C120  S    
C103  H44   S    
C96   H24   S    
C93   H14   S    
N18   Ni6   S    
O19   C111  S    
O25   C117  S    
N22   Ni2   S    
C1    C89   A    
C6    C46   A    
C34   C38   A    
C95   H19   S    
N8    Ni8   S    
C77   O17   S    
C28   C30   A    
C38   H10   S    
C23   F3    S    
C33   C90   S    
C10   C74   A    
C105  H49   S    
C17   O25   S    
C69   N13   A    
C104  H47   S    
C19   O27   S    
C117  H86   S    
C14   C78   A    
O14   C106  S    
C75   F19   S    
C12   C60   S    
N19   Ni7   S    
C79   O19   S    
N20   Ni8   S    
N14   N22   A    
N13   N21   A    
C69   F13   S    
C109  H63   S    
C31   O3    S    
