data_mof_unit_3016.cif
_audit_creation_date              2012-12-10T20:31:57-0500
_audit_creation_method            fapswitch 2.2
_symmetry_space_group_name_H-M    P1
_symmetry_Int_Tables_number       1
_space_group_crystal_system       triclinic
_cell_length_a                    9.885146
_cell_length_b                    10.658302
_cell_length_c                    15.484525
_cell_angle_alpha                 90.079462
_cell_angle_beta                  67.709942
_cell_angle_gamma                 90.206404
_cell_volume                      1509.5144145

loop_
_atom_site_label
_atom_site_type_symbol
_atom_type_description
_atom_site_fract_x
_atom_site_fract_y
_atom_site_fract_z
_atom_type_partial_charge
C1    C     C_R   0.498935 0.739845 0.501554 0.875106
C2    C     C_R   0.743007 0.517885 0.028633 0.179647
C3    C     C_R   0.597833 0.554334 0.083879 0.097072
C4    C     C_R   0.408620 0.501730 0.676044 0.856566
C5    C     C_R   0.841359 0.486571 0.070920 -0.224863
C6    C     C_R   0.794746 0.484494 0.167814 -0.199566
C7    C     C_R   0.553780 0.550899 0.180751 -0.272431
C8    C     C_R   0.393748 0.935853 0.481145 0.126521
C9    C     C_R   0.490409 0.871634 0.510923 -0.106308
C10   C     C_R   0.569492 0.935568 0.555635 -0.172064
C11   C     C_R   0.570589 0.065442 0.554917 -0.252359
C12   C     C_R   0.428161 0.556551 0.907220 0.094645
C13   C     C_R   0.490114 0.128563 0.511058 -0.112175
C14   C     C_R   0.393222 0.063636 0.481580 0.149276
C15   C     C_3   0.373842 0.071215 0.390613 -0.488010
C16   C     C_R   0.498791 0.260219 0.501469 0.882448
C17   C     C_3   0.375018 0.928985 0.389825 -0.495620
C18   C     C_R   0.892935 0.571089 0.562380 -0.003363
C19   C     C_R   0.960084 0.419681 0.444062 0.502759
C20   C     C_R   0.105911 0.422500 0.442760 -0.244563
C21   C     C_R   0.033467 0.567954 0.564796 0.103604
C22   C     C_3   0.035368 0.705387 0.583041 -0.532218
C23   C     C_R   0.289432 0.609506 0.958115 0.178365
C24   C     C_3   0.886061 0.711277 0.575636 0.374442
C25   C     C_R   0.591516 0.502160 0.324026 0.867188
C26   C     C_R   0.354220 0.522803 0.776512 -0.053302
C27   C     C_R   0.649316 0.513114 0.222669 -0.065664
C28   C     C_R   0.185684 0.620723 0.916742 -0.225968
C29   C     C_R   0.219127 0.579634 0.825299 -0.209978
C30   C     C_R   0.452925 0.505105 0.819838 -0.263865
C31   C     C_3   0.955999 0.218193 0.388438 0.108071
C32   C     C_3   0.066319 0.172491 0.295192 -0.882209
C33   C     C_3   0.967493 0.747680 0.409986 -0.241503
C34   C     C_R   0.537182 0.553655 0.945624 0.069801
C35   C     C_R   0.497420 0.582335 0.041196 0.068789
C36   C     C_R   0.358223 0.635948 0.090765 -0.229842
C37   C     C_R   0.257067 0.651135 0.049031 -0.239676
C38   C     C_R   0.684973 0.524764 0.891200 -0.237266
C39   C     C_R   0.786562 0.509098 0.932233 -0.247581
H1    H     H_    0.152110 0.693330 0.088729 0.147252
H2    H     H_    0.030380 0.724208 0.654815 0.158580
H3    H     H_    0.442166 0.570391 0.225248 0.158585
H4    H     H_    0.123528 0.757310 0.527961 0.227443
H5    H     H_    0.798291 0.737712 0.643051 0.081129
H6    H     H_    0.870384 0.456231 0.199614 0.183549
H7    H     H_    0.898002 0.484563 0.888728 0.150453
H8    H     H_    0.080769 0.664359 0.954088 0.146311
H9    H     H_    0.142193 0.595853 0.791991 0.152640
H10   H     H_    0.550907 0.452250 0.782994 0.152632
H11   H     H_    0.326234 0.671053 0.161067 0.141028
H12   H     H_    0.952383 0.458815 0.029233 0.153544
H13   H     H_    0.725811 0.516424 0.816154 0.144152
H14   H     H_    0.853382 0.163820 0.404158 0.188729
H15   H     H_    0.995910 0.195448 0.445049 0.108091
H16   H     H_    0.087731 0.070990 0.299790 0.217674
H17   H     H_    0.022607 0.186661 0.239590 0.265815
H18   H     H_    0.170798 0.224874 0.276473 0.248393
H19   H     H_    0.902460 0.683678 0.384164 0.197461
H20   H     H_    0.071902 0.702531 0.403186 0.134750
H21   H     H_    0.996042 0.830577 0.363199 0.157910
H22   H     H_    0.633497 0.885956 0.587706 0.197361
H23   H     H_    0.637798 0.115735 0.584865 0.164362
H24   H     H_    0.266148 0.111513 0.398877 0.207046
H25   H     H_    0.469580 0.113908 0.334165 0.200131
H26   H     H_    0.268214 0.887484 0.396624 0.202519
H27   H     H_    0.471773 0.888449 0.333116 0.199869
H28   H     H_    0.189921 0.364299 0.394234 0.166218
N1    N     N_R   0.856900 0.500860 0.500610 -0.143669
N2    N     N_R   0.142540 0.500820 0.500610 -0.108178
O1    O     O_R   0.385310 0.683210 0.499990 -0.622070
O2    O     O_3   0.882159 0.789030 0.501464 -0.594828
O3    O     O_R   0.614650 0.683240 0.500000 -0.588359
O4    O     O_R   0.319830 0.499970 0.632240 -0.607485
O5    O     O_R   0.549170 0.500000 0.632250 -0.625587
O6    O     O_R   0.385350 0.316760 0.500000 -0.612926
O7    O     O_R   0.614690 0.316790 0.500010 -0.599097
O8    O     O_R   0.450830 0.500000 0.367750 -0.621998
O9    O     O_R   0.680170 0.500030 0.367760 -0.583645
O10   O     O_3   0.924671 0.346618 0.381543 -0.594482
Zn1   Zn    Zn3+2 0.346870 0.499980 0.499990 0.936856
Zn2   Zn    Zn3+2 0.653130 0.500020 0.500010 0.977934

loop_
_geom_bond_atom_site_label_1
_geom_bond_atom_site_label_2
_ccdc_geom_bond_type
C28   H8    S    
C33   H19   S    
C6    H6    S    
C18   C21   A    
C20   H28   S    
C19   C20   A    
C11   H23   S    
C12   C23   A    
C17   H27   S    
C25   O8    A    
N1    Zn2   S    
C28   C29   A    
C37   H1    S    
C3    C7    A    
C38   C39   A    
C22   H2    S    
C38   H13   S    
C18   N1    A    
C16   O6    A    
C7    C27   A    
C34   C35   A    
C7    H3    S    
C2    C39   A    
C22   H4    S    
C8    C9    A    
C15   H25   S    
C18   C24   S    
C9    C10   A    
C32   H16   S    
C4    O5    A    
O3    Zn2   S    
C6    C27   A    
C33   H20   S    
C34   C38   A    
C13   C14   A    
C32   H18   S    
C1    O3    A    
C29   H9    S    
O1    Zn1   S    
C25   O9    A    
C1    C9    S    
C23   C37   A    
C21   N2    A    
C35   C36   A    
C31   C32   S    
C3    C35   A    
C19   N1    A    
C23   C28   A    
C31   H14   S    
C19   O10   S    
C4    O4    A    
C39   H7    S    
C30   H10   S    
C26   C30   A    
C33   H21   S    
C24   H5    S    
C22   C24   S    
C20   N2    A    
C10   H22   S    
O5    Zn2   S    
C12   C34   A    
C36   H11   S    
O6    Zn1   S    
O8    Zn1   S    
C15   C17   S    
C36   C37   A    
C8    C14   A    
C12   C30   A    
C16   O7    A    
C1    O1    A    
O7    Zn2   S    
C4    C26   S    
C31   O10   S    
C25   C27   S    
C17   H26   S    
C8    C17   S    
C2    C3    A    
C11   C13   A    
O9    Zn2   S    
C5    C6    A    
O4    Zn1   S    
C31   H15   S    
C10   C11   A    
C33   O2    S    
C2    C5    A    
C26   C29   A    
C13   C16   S    
C15   H24   S    
C14   C15   S    
C5    H12   S    
N2    Zn1   S    
C21   C22   S    
C32   H17   S    
C24   O2    S    
