data_mof_unit_3197.cif
_audit_creation_date              2013-03-05T15:46:00-0500
_audit_creation_method            fapswitch 2.2
_symmetry_space_group_name_H-M    P1
_symmetry_Int_Tables_number       1
_space_group_crystal_system       triclinic
_cell_length_a                    8.606092
_cell_length_b                    15.44209
_cell_length_c                    18.898479
_cell_angle_alpha                 97.114923
_cell_angle_beta                  94.5662
_cell_angle_gamma                 99.155315
_cell_volume                      2447.76779174

loop_
_atom_site_label
_atom_site_type_symbol
_atom_site_description
_atom_site_fract_x
_atom_site_fract_y
_atom_site_fract_z
_atom_type_partial_charge
P1    P     P_3+3 0.990670 0.707470 0.561860 0.611612
O1    O     O_2   0.164990 0.721870 0.541490 -0.363559
O2    O     O_3   0.893010 0.608480 0.539150 -0.339028
O3    O     O_3   0.389100 0.667490 0.413860 -0.404952
O4    O     O_2   0.329284 0.825273 0.466311 -0.332004
O5    O     O_3   0.992266 0.742574 0.655327 -0.578036
O6    O     O_3   0.391298 0.808489 0.333036 -0.577736
H1    H     H_    0.554820 0.724440 0.304031 -0.127061
C1    C     C_3   0.329124 0.681745 0.241417 -0.868982
H2    H     H_    0.268544 0.641724 0.279112 0.270765
H3    H     H_    0.245096 0.710495 0.208228 0.282530
P2    P     P_3+3 0.340140 0.430100 0.338890 0.628225
P3    P     P_3+3 0.904783 0.601069 0.284774 0.492679
O7    O     O_2   0.172070 0.457600 0.329050 -0.345821
O8    O     O_3   0.964370 0.622050 0.377340 -0.415177
O9    O     O_2   0.988445 0.525642 0.254266 -0.254532
O10   O     O_3   0.299446 0.314508 0.319376 -0.472470
O11   O     O_3   0.993930 0.687554 0.243728 -0.527135
C2    C     C_3   0.957173 0.767059 0.275986 0.097652
H4    H     H_    0.012070 0.781794 0.332487 0.120368
H5    H     H_    0.827238 0.763405 0.275020 0.100666
C3    C     C_3   0.025254 0.841691 0.234582 0.369001
H6    H     H_    0.155770 0.848172 0.240283 0.092358
C4    C     C_3   0.700496 0.241617 0.297686 0.737715
H7    H     H_    0.598539 0.211260 0.322958 0.097125
C5    C     C_3   0.731847 0.180401 0.231497 -0.163626
H8    H     H_    0.657058 0.188630 0.182698 0.194109
H9    H     H_    0.856438 0.196865 0.219993 0.127961
Ba1   Ba    Ba6+2 0.161750 0.544670 0.467760 1.753629
C6    C     C_3   0.123665 0.726537 0.697142 0.663392
H10   H     H_    0.218733 0.713209 0.663565 0.053306
C7    C     C_3   0.201306 0.806034 0.755990 0.370931
H11   H     H_    0.320475 0.792576 0.769741 0.054105
C8    C     C_3   0.201753 0.279220 0.367917 0.145220
H12   H     H_    0.104661 0.316572 0.375085 0.111739
H13   H     H_    0.269226 0.285005 0.421298 0.114291
C9    C     C_3   0.133217 0.182279 0.338091 0.229996
H14   H     H_    0.029701 0.158362 0.365246 0.080865
H15   H     H_    0.094224 0.176544 0.280151 0.134927
P4    P     P_3+3 0.819620 0.292520 0.438080 0.507730
O12   O     O_2   0.645300 0.278070 0.458480 -0.315825
O13   O     O_3   0.917280 0.391520 0.460790 -0.378008
O14   O     O_3   0.421200 0.332510 0.586090 -0.428728
O15   O     O_3   0.837639 0.266729 0.345052 -0.673694
P5    P     P_3+3 0.882122 0.377526 0.714360 0.565779
O16   O     O_3   0.383620 0.545480 0.584560 -0.341347
O17   O     O_3   0.845920 0.377940 0.622610 -0.335065
O18   O     O_2   0.771643 0.435666 0.750402 -0.325574
O19   O     O_3   0.811986 0.270207 0.730118 -0.519778
Ba2   Ba    Ba6+2 0.648430 0.455320 0.532180 1.737942
P6    P     P_3+3 0.443653 0.783082 0.418854 0.491253
C10   C     C_3   0.456134 0.754405 0.281242 0.945186
H16   H     H_    0.382763 0.639010 0.203179 0.178473
O20   O     O_3   0.426680 0.454510 0.415380 -0.363996
C11   C     C_3   0.595009 0.714435 0.743290 0.683965
H17   H     H_    0.695264 0.680025 0.737213 0.114463
C12   C     C_3   0.580075 0.735277 0.825228 -0.242371
H18   H     H_    0.647820 0.691863 0.853473 0.119430
H19   H     H_    0.456461 0.715402 0.836962 0.171065
P7    P     P_3+3 0.460991 0.556519 0.674586 0.527943
O21   O     O_2   0.638220 0.542340 0.670930 -0.337850
O22   O     O_3   0.452027 0.665618 0.709362 -0.630707
C13   C     C_3   0.942789 0.228383 0.743510 0.024575
H20   H     H_    0.014979 0.225965 0.697112 0.038259
H21   H     H_    0.017930 0.263798 0.791934 0.127490
C14   C     C_3   0.886525 0.135177 0.759407 0.626949
H22   H     H_    0.811314 0.136754 0.803983 0.060794
P8    P     P_3+3 0.366139 0.217686 0.582362 0.542250
C15   C     C_3   0.443889 0.248695 0.722487 0.273074
H23   H     H_    0.337142 0.277799 0.734232 -0.004777
O23   O     O_2   0.481288 0.176058 0.535493 -0.270046
O24   O     O_3   0.405849 0.179725 0.664613 -0.479390
H24   H     H_    0.537969 0.300986 0.710641 0.163433
H25   H     H_    0.399012 0.165001 0.805219 0.171867
C16   C     C_3   0.500650 0.206424 0.787423 0.199123
H26   H     H_    0.578862 0.160391 0.769983 0.144567
C17   C     C_R   0.655883 0.828221 0.453773 0.158839
H27   H     H_    0.689399 0.697820 0.473593 0.152583
H28   H     H_    0.523914 0.962213 0.406627 0.180901
C18   C     C_R   0.898194 0.791883 0.511903 0.298761
C19   C     C_R   0.065847 0.233280 0.520346 -0.545421
C20   C     C_R   0.160701 0.173878 0.542601 0.249587
C21   C     C_R   0.102632 0.082225 0.534099 -0.107412
C22   C     C_R   0.949041 0.045990 0.500655 0.121282
C23   C     C_R   0.856569 0.108206 0.474152 -0.063095
C24   C     C_R   0.884426 0.950304 0.492536 0.147412
C25   C     C_R   0.725937 0.920230 0.460148 0.013780
C26   C     C_R   0.641806 0.982607 0.433764 -0.011269
C27   C     C_R   0.707251 0.072632 0.439352 0.027754
C28   C     C_R   0.968327 0.883646 0.517327 -0.191074
C29   C     C_R   0.744938 0.766459 0.477428 -0.361658
C30   C     C_R   0.915468 0.204143 0.483597 0.163864
H29   H     H_    0.088275 0.901781 0.541347 0.194281
H30   H     H_    0.114404 0.303233 0.527736 0.159208
H31   H     H_    0.180738 0.040465 0.553708 0.178703
H32   H     H_    0.641737 0.114857 0.413843 0.179642
C31   C     C_R   0.580736 0.549009 0.297226 -0.470374
C32   C     C_R   0.440031 0.490265 0.271653 0.266140
C33   C     C_R   0.394752 0.469670 0.196008 0.390087
C34   C     C_R   0.501728 0.506450 0.149188 -0.182663
C35   C     C_R   0.652066 0.552570 0.177088 -0.120831
C36   C     C_R   0.694048 0.569635 0.250854 0.235692
C37   C     C_R   0.434945 0.573773 0.039132 -0.108821
C38   C     C_R   0.381126 0.564785 0.966248 -0.128813
C39   C     C_R   0.340174 0.480117 0.926496 0.070823
C40   C     C_R   0.358480 0.405886 0.959251 -0.011551
C41   C     C_R   0.432410 0.415929 0.028639 0.071903
C42   C     C_R   0.458971 0.498763 0.071031 0.113607
C43   C     C_R   0.135430 0.430603 0.822928 -0.265728
C44   C     C_R   0.091362 0.415915 0.748942 0.270815
C45   C     C_R   0.355695 0.480263 0.728011 0.255594
C46   C     C_R   0.401196 0.493066 0.801722 -0.134504
C47   C     C_R   0.291423 0.467526 0.849343 0.096473
C48   C     C_R   0.204978 0.434648 0.701318 -0.339095
H33   H     H_    0.517577 0.529306 0.822380 0.133060
H34   H     H_    0.367927 0.623070 0.941410 0.180696
H35   H     H_    0.456836 0.638728 0.070520 0.186273
H36   H     H_    0.321514 0.340508 0.929388 0.193466
H37   H     H_    0.463623 0.358638 0.050129 0.200464
H38   H     H_    0.048106 0.414969 0.859719 0.193785
H39   H     H_    0.738444 0.572945 0.141049 0.199444
H40   H     H_    0.169338 0.425995 0.644292 0.144556
H41   H     H_    0.614430 0.565295 0.354361 0.172396
N1    N     N_R   0.698718 0.088529 0.241666 0.260635
O25   O     O_R   0.613657 0.031177 0.191633 -0.204308
O26   O     O_R   0.773444 0.062029 0.294916 -0.353717
S1    S     S_3+6 0.062839 0.628735 0.733967 -0.012911
O27   O     O_2   0.016288 0.556773 0.671676 -0.295131
O28   O     O_2   0.200707 0.613384 0.780708 -0.389467
O29   O     O_3   0.911350 0.631541 0.784112 -0.517069
H42   H     H_    0.925991 0.590807 0.819719 0.383107
N2    N     N_R   0.222431 0.892213 0.729965 0.269955
O30   O     O_R   0.324577 0.957220 0.765643 -0.209423
O31   O     O_R   0.160234 0.902118 0.667277 -0.380197
S2    S     S_3+6 0.121973 0.815268 0.841601 0.099103
O32   O     O_2   0.187233 0.904304 0.884031 -0.148125
O33   O     O_2   0.945945 0.804669 0.830505 -0.230670
O34   O     O_3   0.172717 0.737688 0.889716 -0.514949
H43   H     H_    0.113238 0.742718 0.932391 0.393875
S3    S     S_3+6 0.274027 0.111410 0.350182 -0.008261
O35   O     O_2   0.408508 0.162360 0.399920 -0.335583
O36   O     O_2   0.205404 0.032706 0.383651 -0.277786
O37   O     O_3   0.338767 0.078108 0.271450 -0.453862
H44   H     H_    0.377895 0.022449 0.278257 0.402813
S4    S     S_3+6 0.535515 0.819405 0.217492 -0.003287
O38   O     O_2   0.655377 0.892969 0.257585 -0.189473
O39   O     O_2   0.614726 0.763878 0.165314 -0.334419
O40   O     O_3   0.395372 0.862040 0.172844 -0.462974
H45   H     H_    0.358440 0.818782 0.129225 0.378445
S5    S     S_3+6 0.637784 0.804529 0.694036 0.084316
O41   O     O_2   0.681847 0.767670 0.622883 -0.335936
O42   O     O_2   0.495183 0.846424 0.680169 -0.213447
O43   O     O_3   0.787027 0.879996 0.736673 -0.379969
H46   H     H_    0.879711 0.870868 0.710834 0.408995
N3    N     N_R   0.634526 0.827392 0.857592 0.324842
O44   O     O_R   0.728185 0.843713 0.916957 -0.220456
O45   O     O_R   0.559537 0.889315 0.839635 -0.238724
N4    N     N_R   0.987085 0.926544 0.264861 0.275601
O46   O     O_R   0.938748 0.936490 0.328438 -0.375181
O47   O     O_R   0.022039 0.995678 0.232546 -0.252468
S6    S     S_3+6 0.774531 0.067449 0.682421 0.051420
O48   O     O_2   0.631314 0.015513 0.706871 -0.132171
O49   O     O_2   0.870528 0.005073 0.646710 -0.269131
O50   O     O_3   0.711389 0.129006 0.622575 -0.469937
H47   H     H_    0.808245 0.163720 0.609048 0.324858
S7    S     S_3+6 0.052227 0.090593 0.791198 0.010451
O51   O     O_2   0.997211 0.002508 0.814350 -0.152499
O52   O     O_2   0.157453 0.081132 0.732129 -0.250839
O53   O     O_3   0.149951 0.159563 0.862415 -0.590163
H48   H     H_    0.207645 0.122085 0.890150 0.415830
S8    S     S_3+6 0.600332 0.280400 0.864107 -0.034441
O54   O     O_2   0.528727 0.252748 0.929506 -0.303800
O55   O     O_2   0.582203 0.373845 0.857454 -0.307941
O56   O     O_3   0.794772 0.277391 0.875745 -0.514361
H49   H     H_    0.808180 0.240305 0.914231 0.387860
S9    S     S_3+6 0.214213 0.397219 0.157215 0.049760
O57   O     O_2   0.129273 0.443808 0.104869 -0.243387
O58   O     O_2   0.253944 0.314680 0.117071 -0.275752
O59   O     O_3   0.085958 0.363136 0.214097 -0.420017
H50   H     H_    0.077066 0.297991 0.208846 0.359279
N5    N     N_R   0.968159 0.820587 0.157915 0.269950
O60   O     O_R   0.880291 0.869144 0.126956 -0.193718
O61   O     O_R   0.016520 0.756903 0.118509 -0.363833
S10   S     S_3+6 0.663130 0.337673 0.266391 -0.038148
O62   O     O_2   0.779354 0.368868 0.216028 -0.268560
O63   O     O_2   0.501282 0.317115 0.226845 -0.301074
O64   O     O_3   0.680881 0.410917 0.340758 -0.551428
H51   H     H_    0.793536 0.439222 0.347401 0.374837

loop_
_geom_bond_atom_site_label_1
_geom_bond_atom_site_label_2
_geom_bond_distance
_ccdc_geom_bond_type
S2    O34   1.681029 S    
S7    O52   1.500084 D    
S8    O54   1.502631 D    
C13   H21   1.106337 S    
C35   C36   1.393514 A    
O19   C13   1.405304 S    
P2    Ba1   3.436674 S    
N3    O45   1.299183 A    
C8    C9    1.537394 S    
O53   H48   0.990627 S    
C2    H4    1.113729 S    
S3    O37   1.680002 S    
C11   H17   1.089275 S    
S4    O40   1.681753 S    
S1    O28   1.489545 D    
S6    O48   1.497920 D    
S2    O32   1.502738 D    
N5    O60   1.301934 A    
C12   N3    1.464157 S    
C5    H8    1.114220 S    
Ba2   O20   2.798097 S    
P3    O11   1.731824 S    
C28   H29   1.073311 S    
O1    Ba1   2.907726 S    
C39   C47   1.465015 S    
O50   H47   0.986509 S    
C2    H5    1.109227 S    
S3    O36   1.499159 D    
O6    C10   1.414112 S    
P1    O1    1.566935 D    
C3    N5    1.471613 S    
S4    O38   1.489323 D    
C6    H10   1.103777 S    
Ba1   O13   2.886558 S    
C12   H19   1.107088 S    
C4    S10   1.729795 S    
Ba1   O20   3.024047 S    
O37   H44   0.990596 S    
C11   O22   1.397499 S    
C31   C32   1.404079 A    
S10   O62   1.500088 D    
P7    O22   1.746800 S    
C8    H12   1.096032 S    
O2    Ba1   3.005484 S    
O56   H49   0.990517 S    
H28   C26   1.080297 S    
S6    O49   1.498921 D    
C38   H34   1.082597 S    
C19   C30   1.397797 A    
O2    Ba2   2.887228 S    
S9    O59   1.671875 S    
C33   S9    1.807084 S    
C21   C22   1.415552 A    
N2    O30   1.300856 A    
C9    S3    1.777144 S    
P2    O10   1.749922 S    
C41   C42   1.397931 A    
C15   H24   1.106028 S    
C37   C42   1.406149 A    
C1    H2    1.107661 S    
H1    C10   1.112241 S    
P2    C32   1.851769 S    
C31   C36   1.388089 A    
C43   C47   1.398485 A    
P4    O13   1.612103 S    
C14   H22   1.102709 S    
C13   C14   1.518160 S    
C40   H36   1.080274 S    
N4    O47   1.300666 A    
C46   C47   1.400962 A    
C37   H35   1.080806 S    
C1    C10   1.513180 S    
C5    N1    1.441699 S    
C41   H37   1.080301 S    
C38   C39   1.402114 A    
S4    O39   1.501952 D    
C23   C30   1.471276 A    
O16   Ba2   3.023166 S    
O8    Ba1   2.814755 S    
O17   Ba2   2.815459 S    
Ba1   Ba2   4.729894 S    
P5    O17   1.738111 S    
S3    O35   1.481837 D    
S8    O56   1.679098 S    
C34   C42   1.478941 S    
H25   C16   1.099755 S    
C14   S7    1.773998 S    
O3    P6    1.760689 S    
P1    O5    1.780648 S    
C2    C3    1.537938 S    
C4    H7    1.099569 S    
C24   C28   1.450010 A    
N5    O61   1.301198 A    
C10   S4    1.771465 S    
C23   C27   1.391744 A    
P5    C44   1.843410 S    
O11   C2    1.395683 S    
C3    N4    1.460627 S    
S5    O43   1.668328 S    
C19   C20   1.401390 A    
O59   H50   0.988568 S    
C14   S6    1.794036 S    
P7    O21   1.580637 D    
P1    O2    1.611973 S    
C15   O24   1.407555 S    
C16   H26   1.093860 S    
P6    C17   1.883170 S    
C9    H14   1.099300 S    
S8    O55   1.495267 D    
C33   C34   1.428598 A    
P5    O19   1.741259 S    
P8    O24   1.755416 S    
C21   H31   1.078192 S    
P1    Ba1   3.483905 S    
C22   C23   1.451305 A    
C1    H3    1.101076 S    
O13   Ba2   3.006235 S    
C31   H41   1.083015 S    
P4    O12   1.567144 D    
O5    C6    1.399964 S    
P2    O7    1.574566 D    
C20   C21   1.408709 A    
P3    O8    1.758436 S    
C16   S8    1.794780 S    
S7    O51   1.497087 D    
C4    O15   1.394577 S    
S5    O42   1.495574 D    
C1    H16   1.096691 S    
O10   C8    1.395060 S    
O7    Ba1   2.808812 S    
S1    O27   1.496780 D    
O12   Ba2   2.908370 S    
C7    N2    1.464681 S    
S6    O50   1.676565 S    
C11   S5    1.774794 S    
N1    O26   1.294781 A    
P5    O18   1.548303 D    
S2    O33   1.492562 D    
C44   C48   1.401568 A    
C6    S1    1.762407 S    
C17   C29   1.407311 A    
C45   C46   1.397575 A    
O16   P7    1.754632 S    
C24   C25   1.430324 A    
Ba2   O21   2.809020 S    
O3    Ba1   2.842179 S    
S7    O53   1.683065 S    
C22   C24   1.478114 A    
C7    S2    1.803836 S    
O14   Ba2   2.841548 S    
H27   C29   1.082312 S    
C39   C40   1.392723 A    
O14   P8    1.752095 S    
C5    H9    1.107095 S    
S5    O41   1.495399 D    
S10   O64   1.671784 S    
Ba1   O16   2.798736 S    
P8    C20   1.852054 S    
C7    H11   1.096044 S    
C27   H32   1.061622 S    
C11   C12   1.561853 S    
O29   H42   0.990419 S    
P3    C36   1.842112 S    
S1    O29   1.674571 S    
O6    P6    1.756359 S    
O64   H51   0.989415 S    
C9    H15   1.107888 S    
P7    C45   1.824231 S    
C43   C44   1.399981 A    
C6    C7    1.572513 S    
C19   H30   1.081981 S    
C4    C5    1.540473 S    
C12   H18   1.112547 S    
N4    O46   1.301710 A    
C18   C29   1.397585 A    
P8    O23   1.543136 D    
P4    Ba2   3.484454 S    
S9    O58   1.502490 D    
C34   C35   1.401548 A    
S10   O63   1.494723 D    
C15   C16   1.541147 S    
C45   C48   1.396465 A    
C8    H13   1.109407 S    
O40   H45   0.990489 S    
C18   C28   1.436922 A    
C15   H23   1.111025 S    
C35   H39   1.083869 S    
P4    C30   1.954206 S    
O34   H43   0.990633 S    
S9    O57   1.503028 D    
C13   H20   1.114561 S    
C48   H40   1.082613 S    
P4    O15   1.778520 S    
C26   C27   1.402121 A    
C17   C25   1.438790 A    
C25   C26   1.408587 A    
N2    O31   1.297474 A    
C32   C33   1.433843 A    
C40   C41   1.390617 A    
P3    O9    1.540804 D    
C37   C38   1.400565 A    
P1    C18   1.933718 S    
C3    H6    1.107047 S    
O4    P6    1.548390 D    
O43   H46   0.987572 S    
N3    O44   1.301243 A    
C46   H33   1.083518 S    
P2    O20   1.546168 S    
C43   H38   1.083299 S    
N1    O25   1.300124 A    
