data_mof_unit_790.cif
_audit_creation_date              2012-12-10T17:36:18-0500
_audit_creation_method            fapswitch 2.2
_symmetry_space_group_name_H-M    P1
_symmetry_Int_Tables_number       1
_space_group_crystal_system       triclinic
_cell_length_a                    12.322157
_cell_length_b                    13.268607
_cell_length_c                    15.887848
_cell_angle_alpha                 78.220175
_cell_angle_beta                  99.17598
_cell_angle_gamma                 116.390065
_cell_volume                      2270.9141067

loop_
_atom_site_label
_atom_site_type_symbol
_atom_type_description
_atom_site_fract_x
_atom_site_fract_y
_atom_site_fract_z
_atom_type_partial_charge
C1    C     C_R   0.854776 0.286957 0.506366 0.895919
C2    C     C_3   0.066951 0.430378 0.066770 1.032657
C3    C     C_3   0.000156 0.499622 0.083431 -0.192280
C4    C     C_3   0.058714 0.624146 0.034245 0.756770
C5    C     C_3   0.049360 0.621747 0.934745 0.250428
C6    C     C_1   0.007366 0.501826 0.176241 0.215830
C7    C     C_1   0.983509 0.490539 0.824717 0.111596
C8    C     C_1   0.987259 0.491718 0.749213 -0.207366
C9    C     C_R   0.272086 0.023215 0.400987 -0.180630
C10   C     C_R   0.227081 0.834053 0.477228 -0.152193
C11   C     C_R   0.816254 0.082659 0.541058 0.579132
C12   C     C_R   0.995970 0.496958 0.659545 0.844911
C13   C     C_R   0.740408 0.966846 0.549908 0.402166
C14   C     C_R   0.613573 0.932184 0.531438 -0.386373
C15   C     C_R   0.564503 0.012009 0.499260 0.061075
C16   C     C_R   0.646214 0.127533 0.476910 0.043093
C17   C     C_R   0.436726 0.978750 0.481026 0.045329
C18   C     C_R   0.395377 0.056719 0.428078 0.115518
C19   C     C_R   0.477549 0.166880 0.400575 -0.223041
C20   C     C_R   0.600511 0.201128 0.422980 -0.133174
C21   C     C_R   0.347599 0.871465 0.514446 0.362572
C22   C     C_R   0.189281 0.911198 0.422382 -0.247863
C23   C     C_R   0.144775 0.712795 0.489917 0.810521
C24   C     C_R   0.771515 0.164580 0.506521 -0.321750
C25   C     C_R   0.313730 0.293743 0.602242 -0.260678
C26   C     C_R   0.772532 0.658096 0.395109 0.006432
C27   C     C_R   0.677441 0.688035 0.364939 -0.347609
C28   C     C_R   0.559673 0.615615 0.388489 0.500155
C29   C     C_R   0.541276 0.521749 0.455609 -0.181518
C30   C     C_R   0.642421 0.494130 0.484694 -0.006580
C31   C     C_R   0.430489 0.457269 0.498524 -0.100724
C32   C     C_R   0.415160 0.354291 0.554028 -0.152261
C33   C     C_R   0.508863 0.320628 0.571143 0.492880
C34   C     C_R   0.002881 0.501370 0.340784 0.768673
C35   C     C_R   0.623535 0.397050 0.547987 0.539235
C36   C     C_R   0.339245 0.495177 0.496415 0.011759
C37   C     C_R   0.234154 0.341028 0.603715 0.666560
C38   C     C_3   0.063416 0.432214 0.968501 0.184730
C39   C     C_3   0.856503 0.433491 0.950081 0.194774
C40   C     C_3   0.863989 0.441592 0.048585 0.091783
C41   C     C_1   0.007903 0.502194 0.251754 -0.164070
C42   C     C_3   0.987042 0.494939 0.917140 -0.181175
Cu1   Cu    Cu3+1 0.098280 0.475420 0.519630 1.013487
Cu2   Cu    Cu3+1 0.901720 0.524580 0.480370 0.978738
H1    H     H_    0.096182 0.884617 0.395016 0.178848
H2    H     H_    0.446276 0.227020 0.360940 0.139963
H3    H     H_    0.240783 0.082284 0.359423 0.165003
H4    H     H_    0.553516 0.843368 0.537238 0.220941
H5    H     H_    0.021903 0.343154 0.954676 0.126872
H6    H     H_    0.658136 0.284432 0.392632 0.165529
H7    H     H_    0.300713 0.214158 0.643545 0.198815
H8    H     H_    0.342391 0.571875 0.455941 0.201036
H9    H     H_    0.860971 0.710922 0.371185 0.155985
H10   H     H_    0.693709 0.764050 0.318155 0.169321
H11   H     H_    0.819612 0.342356 0.941476 0.126138
H12   H     H_    0.821176 0.497668 0.054728 0.179511
H13   H     H_    0.144012 0.662298 0.914106 0.114546
N1    N     N_R   0.246300 0.438200 0.549400 -0.251483
N2    N     N_R   0.754300 0.561180 0.451130 -0.176037
O1    O     O_R   0.972520 0.318130 0.524690 -0.482684
O2    O     O_R   0.806530 0.359650 0.491530 -0.547092
O3    O     O_R   0.083030 0.479240 0.637150 -0.592377
O4    O     O_R   0.917040 0.520750 0.603990 -0.500135
O5    O     O_R   0.193470 0.640350 0.508470 -0.560321
O6    O     O_R   0.027480 0.681870 0.475310 -0.608434
O7    O     O_R   0.082960 0.479250 0.396010 -0.572067
O8    O     O_R   0.916970 0.520760 0.362850 -0.596666
F1    F     F_    0.012396 0.318440 0.106714 -0.635877
F2    F     F_    0.180535 0.483829 0.941947 -0.662526
F3    F     F_    0.185691 0.475040 0.101895 -0.640284
F4    F     F_    0.993730 0.681069 0.050288 -0.681173
O9    O     O_3   0.374144 0.808688 0.589041 -0.604274
C43   C     C_3   0.340372 0.835477 0.659763 0.083557
H14   H     H_    0.239645 0.799407 0.658637 0.118634
H15   H     H_    0.379038 0.929483 0.658308 0.151501
C44   C     C_3   0.389077 0.786505 0.744756 -0.357200
H16   H     H_    0.486973 0.810225 0.742360 0.226382
H17   H     H_    0.380130 0.824237 0.798207 0.176092
C45   C     C_3   0.319694 0.657498 0.764237 -0.735451
H18   H     H_    0.227288 0.635288 0.781244 0.243934
H19   H     H_    0.367149 0.623482 0.819829 0.254385
H20   H     H_    0.312255 0.617311 0.707544 0.272988
F5    F     F_    0.936170 0.114105 0.565868 -0.603337
O10   O     O_3   0.798661 0.895066 0.579759 -0.573645
C46   C     C_3   0.723247 0.777733 0.583190 0.074736
H21   H     H_    0.782237 0.733971 0.583999 0.167704
H22   H     H_    0.661517 0.758226 0.523679 0.144141
C47   C     C_3   0.658163 0.730644 0.666771 -0.355898
H23   H     H_    0.717807 0.707184 0.719262 0.215871
H24   H     H_    0.639593 0.796214 0.687018 0.237636
C48   C     C_3   0.538748 0.627255 0.654954 -0.912382
H25   H     H_    0.476759 0.650725 0.604975 0.284621
H26   H     H_    0.493444 0.593009 0.715915 0.250368
H27   H     H_    0.556950 0.561178 0.635540 0.257128
O11   O     O_3   0.137281 0.284061 0.654653 -0.541566
C49   C     C_3   0.172445 0.316772 0.737956 0.099317
H28   H     H_    0.093528 0.320848 0.759960 0.195140
H29   H     H_    0.249715 0.402899 0.739407 0.110900
C50   C     C_3   0.202342 0.227805 0.802082 -0.452855
H30   H     H_    0.128769 0.141757 0.795775 0.258415
H31   H     H_    0.289307 0.231047 0.788003 0.209195
C51   C     C_3   0.213803 0.248387 0.894850 -0.805932
H32   H     H_    0.281085 0.336498 0.902360 0.275518
H33   H     H_    0.243998 0.187682 0.939102 0.244715
H34   H     H_    0.124511 0.234906 0.913134 0.270901
F6    F     F_    0.496411 0.223683 0.626258 -0.660307
O12   O     O_3   0.464810 0.636743 0.342483 -0.644477
C52   C     C_3   0.423476 0.578834 0.269567 0.099657
H35   H     H_    0.335016 0.580794 0.243830 0.224827
H36   H     H_    0.405228 0.487283 0.287704 0.144740
C53   C     C_3   0.512400 0.636547 0.197749 -0.456433
H37   H     H_    0.545628 0.730419 0.190130 0.231580
H38   H     H_    0.591422 0.615210 0.215523 0.221969
C54   C     C_3   0.454838 0.597620 0.111034 -0.727161
H39   H     H_    0.410751 0.503271 0.117941 0.289711
H40   H     H_    0.526103 0.630557 0.064877 0.227675
H41   H     H_    0.387366 0.632106 0.084243 0.320235
F7    F     F_    0.713257 0.381083 0.600078 -0.622109
O13   O     O_3   0.782666 0.483712 0.898557 -0.520841
C55   C     C_3   0.659991 0.424255 0.918364 0.109885
H42   H     H_    0.646379 0.459989 0.971075 0.115585
H43   H     H_    0.630460 0.330635 0.935917 0.119815
C56   C     C_3   0.577950 0.444424 0.841850 -0.420658
H44   H     H_    0.485194 0.413979 0.862507 0.178016
H45   H     H_    0.613271 0.537047 0.818757 0.244387
C57   C     C_3   0.571103 0.381378 0.770076 -0.674473
H46   H     H_    0.546018 0.289795 0.794423 0.258120
H47   H     H_    0.659487 0.420182 0.740828 0.303447
H48   H     H_    0.499360 0.387361 0.720944 0.215106
O14   O     O_3   0.807939 0.330875 0.097457 -0.561191
C58   C     C_3   0.695500 0.307190 0.127763 0.083843
H49   H     H_    0.652282 0.214807 0.153006 0.171356
H50   H     H_    0.630847 0.320057 0.075476 0.105600
C59   C     C_3   0.708665 0.372213 0.201330 -0.353601
H51   H     H_    0.745983 0.334857 0.261161 0.213255
H52   H     H_    0.770876 0.463550 0.187233 0.227306
C60   C     C_3   0.586057 0.365801 0.215382 -0.938651
H53   H     H_    0.554494 0.412677 0.158321 0.262075
H54   H     H_    0.594780 0.405468 0.272751 0.254939
H55   H     H_    0.517551 0.275863 0.224587 0.259114
O15   O     O_3   0.981180 0.682638 0.890817 -0.516698
C61   C     C_3   0.026215 0.747863 0.811040 0.128890
H56   H     H_    0.947039 0.749993 0.767374 0.183719
H57   H     H_    0.069578 0.710576 0.778179 0.090663
C62   C     C_3   0.116469 0.869765 0.822510 -0.431621
H58   H     H_    0.082496 0.902078 0.866978 0.252224
H59   H     H_    0.205194 0.870322 0.850711 0.194488
C63   C     C_3   0.135646 0.949162 0.736346 -0.837342
H60   H     H_    0.155523 0.912772 0.687052 0.242653
H61   H     H_    0.213781 0.031945 0.744625 0.250104
H62   H     H_    0.053092 0.963666 0.712918 0.301507
O16   O     O_3   0.183187 0.677264 0.065461 -0.628262
C64   C     C_3   0.225079 0.795877 0.062342 0.129824
H63   H     H_    0.191043 0.812053 0.116690 0.192011
H64   H     H_    0.194039 0.835230 0.000453 0.156939
C65   C     C_3   0.363831 0.851508 0.071592 -0.379922
H65   H     H_    0.396076 0.815127 0.134423 0.239108
H66   H     H_    0.398864 0.833262 0.018921 0.226549
C66   C     C_3   0.413920 0.980206 0.067427 -0.930459
H67   H     H_    0.384433 0.018787 0.004479 0.254235
H68   H     H_    0.514778 0.017926 0.074372 0.265496
H69   H     H_    0.381734 0.000547 0.120447 0.259528

loop_
_geom_bond_atom_site_label_1
_geom_bond_atom_site_label_2
_ccdc_geom_bond_type
C5    C42   S    
C50   H30   S    
C57   H46   S    
C43   H14   S    
C19   C20   A    
C65   C66   S    
C44   C45   S    
C3    C6    S    
C34   O7    A    
C59   C60   S    
C62   H58   S    
C19   H2    S    
C7    C8    T    
C38   H5    S    
C46   H21   S    
C10   C22   A    
C60   H54   S    
C13   O10   S    
C26   C27   A    
C30   C35   A    
C28   C29   A    
C44   H17   S    
C38   C42   S    
C36   N1    A    
C31   C36   A    
C9    C22   A    
C56   H45   S    
Cu2   N2    S    
C15   C16   A    
C49   C50   S    
C11   C24   A    
C52   H35   S    
C37   O11   S    
C51   H34   S    
C18   C19   A    
C7    C42   S    
C20   H6    S    
Cu1   N1    S    
C25   C37   A    
C39   H11   S    
O11   C49   S    
C40   H12   S    
C6    C41   T    
C49   H29   S    
O12   C52   S    
C63   H62   S    
C64   H64   S    
C26   N2    A    
C37   N1    A    
C36   H8    S    
C55   C56   S    
C8    C12   S    
C58   C59   S    
C25   C32   A    
C38   F2    S    
C16   C24   A    
C13   C14   A    
C49   H28   S    
C43   H15   S    
C61   C62   S    
Cu2   O6    S    
C34   C41   S    
C62   H59   S    
C55   H43   S    
Cu1   O5    S    
C54   H39   S    
C39   C42   S    
C46   H22   S    
C10   C21   A    
C4    O16   S    
C60   H55   S    
C27   H10   S    
Cu2   O8    S    
C21   O9    S    
C56   H44   S    
C44   H16   S    
C1    O1    A    
C48   H25   S    
C45   H19   S    
C12   O4    A    
O9    C43   S    
C56   C57   S    
C59   H52   S    
C57   H48   S    
C11   F5    S    
C17   C21   A    
Cu1   Cu2   S    
C25   H7    S    
C29   C30   A    
C48   H26   S    
C12   O3    A    
C2    C38   S    
C5    O15   S    
C66   H67   S    
C47   C48   S    
C16   C20   A    
C30   N2    A    
C22   H1    S    
C66   H68   S    
C17   C18   A    
C66   H69   S    
C53   H38   S    
O10   C46   S    
C64   C65   S    
C51   H33   S    
Cu1   O1    S    
C23   O5    A    
C50   H31   S    
C47   H24   S    
C3    C40   S    
C9    H3    S    
Cu2   O2    S    
C43   C44   S    
C61   H57   S    
C3    C4    S    
C26   H9    S    
C39   C40   S    
C62   C63   S    
C55   H42   S    
C46   C47   S    
C15   C17   A    
C40   O14   S    
C65   H65   S    
C57   H47   S    
C53   H37   S    
C61   H56   S    
C31   C32   A    
C33   F6    S    
C63   H61   S    
C4    C5    S    
C58   H50   S    
C1    O2    A    
C34   O8    A    
C45   H20   S    
C54   H40   S    
O13   C55   S    
C59   H51   S    
C10   C23   S    
C60   H53   S    
C2    F1    S    
C52   C53   S    
C5    H13   S    
C32   C33   A    
C23   O6    A    
C65   H66   S    
C2    C3    S    
C29   C31   A    
O15   C61   S    
C48   H27   S    
C11   C13   A    
Cu1   O7    S    
C39   O13   S    
C33   C35   A    
C52   H36   S    
O14   C58   S    
C53   C54   S    
C63   H60   S    
C51   H32   S    
C54   H41   S    
C45   H18   S    
C9    C18   A    
C50   C51   S    
C47   H23   S    
C1    C24   S    
Cu2   O4    S    
C27   C28   A    
C14   H4    S    
C14   C15   A    
C35   F7    S    
O16   C64   S    
C28   O12   S    
C64   H63   S    
C2    F3    S    
C4    F4    S    
C58   H49   S    
Cu1   O3    S    
