data_mof_unit_3872.cif
_audit_creation_date              2012-12-10T18:06:42-0500
_audit_creation_method            fapswitch 2.2
_symmetry_space_group_name_H-M    P1
_symmetry_Int_Tables_number       1
_space_group_crystal_system       triclinic
_cell_length_a                    12.665064
_cell_length_b                    13.089152
_cell_length_c                    15.425693
_cell_angle_alpha                 84.732223
_cell_angle_beta                  99.430721
_cell_angle_gamma                 97.62382
_cell_volume                      2493.90360188

loop_
_atom_site_label
_atom_site_type_symbol
_atom_type_description
_atom_site_fract_x
_atom_site_fract_y
_atom_site_fract_z
_atom_type_partial_charge
C1    C     C_R   0.441915 0.308523 0.507196 0.928728
C2    C     C_R   0.460919 0.576440 0.097718 0.083785
C3    C     C_R   0.354554 0.596113 0.061798 0.177647
C4    C     C_R   0.539697 0.578224 0.042122 0.073040
C5    C     C_R   0.505474 0.579492 0.950376 0.072286
C6    C     C_R   0.400829 0.605086 0.915776 -0.230759
C7    C     C_R   0.327258 0.615316 0.971132 -0.230008
C8    C     C_R   0.650709 0.576187 0.074957 -0.223719
C9    C     C_R   0.723334 0.562948 0.019529 -0.232391
C10   C     C_R   0.686506 0.546924 0.931104 0.175790
C11   C     C_R   0.576668 0.553297 0.896584 0.090488
C12   C     C_R   0.436623 0.516274 0.336052 0.933393
C13   C     C_R   0.757198 0.522482 0.876940 -0.203228
C14   C     C_R   0.718732 0.501377 0.789547 -0.197969
C15   C     C_R   0.539036 0.525913 0.810928 -0.262046
C16   C     C_R   0.634673 0.939875 0.365701 -0.174972
C17   C     C_R   0.584043 0.801309 0.470637 -0.048800
C18   C     C_R   0.338438 0.160091 0.575773 -0.205895
C19   C     C_R   0.324278 0.055101 0.599635 -0.141629
C20   C     C_R   0.381639 0.989028 0.565407 -0.155576
C21   C     C_R   0.449311 0.026815 0.501800 0.042549
C22   C     C_R   0.447665 0.130012 0.466457 0.006372
C23   C     C_R   0.556434 0.691583 0.489594 0.839314
C24   C     C_R   0.517006 0.965275 0.471034 0.081742
C25   C     C_R   0.570625 0.002486 0.398368 0.105622
C26   C     C_R   0.553957 0.098701 0.355751 -0.298288
C27   C     C_R   0.490220 0.161020 0.387297 0.348771
C28   C     C_R   0.531904 0.866902 0.509963 -0.229442
C29   C     C_R   0.639691 0.838422 0.400740 -0.192414
C30   C     C_R   0.403997 0.198467 0.512240 -0.082692
C31   C     C_R   0.142869 0.649065 0.620123 -0.313567
C32   C     C_R   0.753876 0.361537 0.412890 0.026752
C33   C     C_R   0.841175 0.305778 0.425249 -0.255346
C34   C     C_R   0.565487 0.490205 0.663791 0.850692
C35   C     C_R   0.936522 0.345849 0.475165 -0.194132
C36   C     C_R   0.948466 0.446835 0.504153 0.026042
C37   C     C_R   0.852926 0.490565 0.503442 0.227654
C38   C     C_R   0.048497 0.504386 0.536760 -0.017611
C39   C     C_R   0.047053 0.590219 0.586787 0.156535
C40   C     C_R   0.949319 0.619313 0.599913 -0.277697
C41   C     C_R   0.853451 0.572087 0.556305 -0.219554
C42   C     C_R   0.148689 0.488900 0.513765 0.263670
C43   C     C_R   0.239098 0.627969 0.598499 -0.028340
C44   C     C_R   0.404810 0.541419 0.241882 -0.034277
C45   C     C_R   0.608868 0.502287 0.756622 -0.057177
C46   C     C_R   0.276221 0.593279 0.116920 -0.197376
C47   C     C_R   0.301371 0.566369 0.206829 -0.185602
C48   C     C_R   0.483155 0.546775 0.187242 -0.228796
H1    H     H_    0.247218 0.633328 0.942597 0.143777
H2    H     H_    0.841811 0.519289 0.902260 0.137186
H3    H     H_    0.680345 0.787425 0.369551 0.154757
H4    H     H_    0.587438 0.124083 0.295946 0.179228
H5    H     H_    0.675160 0.967204 0.309784 0.138813
H6    H     H_    0.497890 0.836282 0.568025 0.132357
H7    H     H_    0.302092 0.211731 0.609937 0.155682
H8    H     H_    0.369160 0.908706 0.588372 0.122978
H9    H     H_    0.273240 0.025528 0.648370 0.139183
H10   H     H_    0.313982 0.673172 0.623401 0.133832
H11   H     H_    0.453946 0.520021 0.786142 0.165208
H12   H     H_    0.947150 0.682996 0.639602 0.156854
H13   H     H_    0.142929 0.712838 0.660272 0.146450
H14   H     H_    0.677389 0.328854 0.378573 0.178997
H15   H     H_    0.997825 0.295112 0.492735 0.163067
H16   H     H_    0.833576 0.230221 0.399996 0.156475
H17   H     H_    0.781077 0.599687 0.566213 0.211102
H18   H     H_    0.774594 0.484769 0.748021 0.166569
H19   H     H_    0.807590 0.560815 0.046780 0.145920
H20   H     H_    0.195159 0.609815 0.090223 0.135257
H21   H     H_    0.239952 0.564124 0.248477 0.160866
H22   H     H_    0.560729 0.523306 0.214887 0.169593
H23   H     H_    0.374657 0.619379 0.845982 0.144110
H24   H     H_    0.683763 0.586903 0.143047 0.145612
N1    N     N_R   0.239390 0.551900 0.544730 -0.100254
N2    N     N_R   0.759950 0.448600 0.455730 -0.138631
O1    O     O_R   0.374950 0.371210 0.521360 -0.621131
O2    O     O_R   0.542050 0.338030 0.492790 -0.589153
O3    O     O_R   0.368720 0.526070 0.390200 -0.637016
O4    O     O_R   0.535820 0.492890 0.361630 -0.592237
O5    O     O_R   0.457950 0.661970 0.507210 -0.607671
O6    O     O_R   0.625050 0.628790 0.478640 -0.644137
O7    O     O_R   0.464180 0.507110 0.638370 -0.617042
O8    O     O_R   0.631280 0.473930 0.609800 -0.626543
Zn1   Zn    Zn3+2 0.388420 0.522150 0.519080 0.933544
Zn2   Zn    Zn3+2 0.611580 0.477850 0.480920 0.944868
Cl1   Cl    Cl    0.448434 0.265965 0.315816 -0.669296
C49   C     C_3   0.156452 0.410461 0.449972 -0.841522
H25   H     H_    0.225965 0.426921 0.417335 0.293841
H26   H     H_    0.163314 0.333246 0.484996 0.222078
H27   H     H_    0.089732 0.410528 0.393625 0.214868

loop_
_geom_bond_atom_site_label_1
_geom_bond_atom_site_label_2
_ccdc_geom_bond_type
C43   N1    A    
C37   N2    A    
C40   H12   S    
C17   C29   A    
C31   H13   S    
C35   C36   A    
O6    Zn2   S    
O2    Zn2   S    
C19   H9    S    
C26   C27   A    
C17   C23   S    
C31   C43   A    
C36   C37   A    
C38   C42   A    
C3    C7    A    
C32   N2    A    
C38   C39   A    
C49   H26   S    
O3    Zn1   S    
C18   C19   A    
C27   Cl1   S    
C16   H5    S    
C47   H21   S    
C43   H10   S    
C11   C15   A    
C19   C20   A    
C8    C9    A    
C12   O4    A    
C18   C30   A    
C34   O7    A    
C23   O6    A    
C9    C10   A    
C44   C47   A    
C4    C8    A    
C21   C22   A    
C17   C28   A    
O7    Zn1   S    
C14   C45   A    
C6    H23   S    
C8    H24   S    
C1    O1    A    
C24   C25   A    
C7    H1    S    
C48   H22   S    
C39   C40   A    
C28   H6    S    
C49   H25   S    
C41   H17   S    
C2    C48   A    
C16   C29   A    
C10   C13   A    
C2    C4    A    
C9    H19   S    
C46   H20   S    
C26   H4    S    
C12   O3    A    
C14   H18   S    
C34   C45   S    
C18   H7    S    
C42   C49   S    
C40   C41   A    
O8    Zn2   S    
C22   C27   A    
C15   C45   A    
C29   H3    S    
C16   C25   A    
C46   C47   A    
C42   N1    A    
C22   C30   A    
C1    O2    A    
C15   H11   S    
C24   C28   A    
N2    Zn2   S    
C4    C5    A    
C49   H27   S    
C5    C11   A    
C6    C7    A    
C3    C46   A    
C32   C33   A    
C36   C38   A    
C2    C3    A    
C25   C26   A    
C32   H14   S    
C12   C44   S    
O5    Zn1   S    
O1    Zn1   S    
C5    C6    A    
C33   H16   S    
C1    C30   S    
C33   C35   A    
C31   C39   A    
C20   H8    S    
C37   C41   A    
C10   C11   A    
C13   H2    S    
O4    Zn2   S    
C20   C21   A    
C21   C24   A    
C35   H15   S    
C34   O8    A    
C23   O5    A    
C13   C14   A    
N1    Zn1   S    
C44   C48   A    
