data_mof_unit_3581.cif
_audit_creation_date              2012-12-10T16:37:39-0500
_audit_creation_method            fapswitch 2.2
_symmetry_space_group_name_H-M    P1
_symmetry_Int_Tables_number       1
_space_group_crystal_system       triclinic
_cell_length_a                    10.835057
_cell_length_b                    10.822392
_cell_length_c                    15.593262
_cell_angle_alpha                 96.078502
_cell_angle_beta                  75.142008
_cell_angle_gamma                 98.175127
_cell_volume                      1744.77668802

loop_
_atom_site_label
_atom_site_type_symbol
_atom_type_description
_atom_site_fract_x
_atom_site_fract_y
_atom_site_fract_z
_atom_type_partial_charge
C1    C     C_R   0.158456 0.478729 0.520101 0.510014
C2    C     C_R   0.510760 0.479894 0.119027 -0.068941
C3    C     C_R   0.660401 0.336324 0.120059 -0.093793
C4    C     C_R   0.842192 0.521491 0.480337 0.517733
C5    C     C_R   0.418684 0.566439 0.840990 0.025513
C6    C     C_2   0.979519 0.531008 0.473244 -0.112287
C7    C     C_2   0.022791 0.470763 0.527747 -0.078590
C8    C     C_2   0.540509 0.967277 0.472607 -0.092042
C9    C     C_2   0.456791 0.035391 0.528361 -0.087667
C10   C     C_R   0.468704 0.167656 0.520565 0.501465
C11   C     C_R   0.529613 0.833557 0.480324 0.528746
C12   C     C_R   0.358773 0.710556 0.969536 -0.100105
C13   C     C_R   0.554817 0.445520 0.259390 0.521985
C14   C     C_R   0.441974 0.548752 0.742486 0.525325
C15   C     C_R   0.669021 0.299886 0.030432 0.258518
C16   C     C_R   0.578443 0.422526 0.164149 0.002776
C17   C     C_R   0.352240 0.666059 0.884110 -0.135374
C18   C     C_R   0.432596 0.658028 0.014404 0.212118
C19   C     C_R   0.481219 0.541337 0.979118 0.019343
C20   C     C_R   0.473886 0.496287 0.891255 -0.026635
C21   C     C_R   0.537048 0.467093 0.026402 -0.026411
C22   C     C_R   0.612577 0.370202 0.980621 0.014094
C23   C     C_R   0.618122 0.342416 0.889481 0.244866
C24   C     C_R   0.528441 0.385872 0.854490 -0.087154
H1    H     H_    0.706392 0.287985 0.158453 0.165819
H2    H     H_    0.750562 0.994792 0.062257 0.402614
H3    H     H_    0.291410 0.751340 0.188324 0.339391
H4    H     H_    0.045854 0.587345 0.423326 0.118948
H5    H     H_    0.617376 0.010671 0.421168 0.126815
H6    H     H_    0.379488 0.994587 0.580551 0.137166
H7    H     H_    0.435114 0.531831 0.157479 0.186828
H8    H     H_    0.304164 0.717503 0.849039 0.165324
H9    H     H_    0.315769 0.794969 0.997349 0.168141
H10   H     H_    0.512150 0.336306 0.794162 0.163350
H11   H     H_    0.958967 0.412598 0.577228 0.182733
H12   H     H_    0.721720 0.307536 0.679756 0.359783
O1    O     O_3   0.500000 0.500000 0.500000 -0.463573
O2    O     O_R   0.463530 0.379110 0.309170 -0.531212
O3    O     O_R   0.388210 0.611730 0.699360 -0.534873
O4    O     O_R   0.624720 0.532760 0.292120 -0.506934
O5    O     O_R   0.523540 0.476390 0.699360 -0.541376
O6    O     O_2   0.875858 0.348055 0.842031 -0.201901
O7    O     O_2   0.750990 0.161695 0.788293 -0.214602
O8    O     O_3   0.769295 0.368844 0.715127 -0.513224
O9    O     O_2   0.628266 0.074604 0.944374 -0.203940
O10   O     O_2   0.853348 0.157152 0.940907 -0.199685
O11   O     O_3   0.709571 0.071605 0.086096 -0.490964
O12   O     O_R   0.537910 0.240570 0.564270 -0.553203
O13   O     O_2   0.612759 0.737187 0.107339 -0.234908
O14   O     O_2   0.488253 0.893200 0.080108 -0.203913
O15   O     O_3   0.374996 0.738565 0.198710 -0.531399
O16   O     O_R   0.438950 0.782540 0.540270 -0.540563
O17   O     O_R   0.222350 0.398740 0.468260 -0.527797
O18   O     O_R   0.800790 0.578160 0.427210 -0.533247
O19   O     O_R   0.212140 0.566330 0.564260 -0.518107
O20   O     O_R   0.764730 0.456770 0.540270 -0.528411
O21   O     O_R   0.412790 0.208310 0.468260 -0.517381
O22   O     O_R   0.610350 0.768590 0.427210 -0.511320
S1    S     S_3+6 0.757501 0.300833 0.809427 0.074288
S2    S     S_3+6 0.717098 0.148313 0.996126 0.094739
S3    S     S_3+6 0.481963 0.759490 0.100444 0.020956
Zn1   Zn    Zn3+2 0.580150 0.419820 0.574680 0.955572
Zn2   Zn    Zn3+2 0.401380 0.373730 0.437510 0.982230
Zn3   Zn    Zn3+2 0.631680 0.593260 0.413140 1.000913
Zn4   Zn    Zn3+2 0.386790 0.613180 0.574670 0.983426

loop_
_geom_bond_atom_site_label_1
_geom_bond_atom_site_label_2
_ccdc_geom_bond_type
O6    S1    D    
C12   C17   A    
C23   C24   A    
C18   S3    S    
C6    C7    D    
C11   O22   A    
C2    C16   A    
C9    C10   S    
O12   Zn1   S    
C19   C20   A    
O4    Zn3   S    
O7    S1    D    
C4    O18   A    
O1    Zn3   S    
C2    C21   A    
O2    Zn2   S    
O1    Zn1   S    
O11   S2    S    
C3    C15   A    
O9    S2    D    
C5    C20   A    
C21   C22   A    
C4    O20   A    
C23   S1    S    
O3    Zn4   S    
C5    C14   S    
O18   Zn3   S    
O5    Zn1   S    
C12   H9    S    
C8    C11   S    
C9    H6    S    
C8    H5    S    
H2    O11   S    
O1    Zn4   S    
C24   H10   S    
O1    Zn2   S    
C13   O2    A    
O21   Zn2   S    
C14   O5    A    
C10   O12   A    
O20   Zn1   S    
C1    O19   A    
H12   O8    S    
C5    C17   A    
O19   Zn4   S    
C3    C16   A    
O8    S1    S    
C3    H1    S    
C10   O21   A    
O13   S3    D    
C8    C9    D    
C4    C6    S    
C18   C19   A    
C15   S2    S    
C13   C16   S    
C12   C18   A    
C17   H8    S    
O14   S3    D    
C1    O17   A    
C22   C23   A    
O17   Zn2   S    
C13   O4    A    
C11   O16   A    
O22   Zn3   S    
O10   S2    D    
C14   O3    A    
C1    C7    S    
C7    H11   S    
C15   C22   A    
C6    H4    S    
O16   Zn4   S    
C20   C24   A    
H3    O15   S    
C2    H7    S    
C19   C21   A    
O15   S3    S    
