data_mof_unit_165.cif
_audit_creation_date              2012-12-11T14:29:47-0500
_audit_creation_method            fapswitch 2.2
_symmetry_space_group_name_H-M    P1
_symmetry_Int_Tables_number       1
_space_group_crystal_system       triclinic
_cell_length_a                    6.936267
_cell_length_b                    14.733571
_cell_length_c                    16.266033
_cell_angle_alpha                 90.5694
_cell_angle_beta                  90.038833
_cell_angle_gamma                 89.995508
_cell_volume                      1662.24074835

loop_
_atom_site_label
_atom_site_type_symbol
_atom_type_description
_atom_site_fract_x
_atom_site_fract_y
_atom_site_fract_z
_atom_type_partial_charge
O1    O     O_R   0.494400 0.416610 0.413880 -0.544503
O2    O     O_R   0.823920 0.406790 0.585520 -0.511972
O3    O     O_R   0.994250 0.583390 0.586120 -0.539912
C1    C     C_R   0.655883 0.384620 0.613436 0.793979
O4    O     O_R   0.824110 0.405730 0.414490 -0.540981
O5    O     O_R   0.994440 0.582310 0.413870 -0.543179
C2    C     C_R   0.654845 0.383672 0.386330 0.743344
O6    O     O_R   0.494210 0.417690 0.586130 -0.530990
O7    O     O_3   0.660810 0.557940 0.500000 -0.380612
V1    V     V_3+5 0.935650 0.489250 0.500000 1.486990
O8    O     O_R   0.324160 0.593210 0.414480 -0.547754
C3    C     C_R   0.155825 0.614246 0.385885 0.744249
O9    O     O_R   0.323970 0.594270 0.585510 -0.541767
C4    C     C_R   0.155119 0.616061 0.613994 0.693536
V2    V     V_3+5 0.435660 0.510750 0.500000 1.458978
O10   O     O_3   0.160630 0.442060 0.500000 -0.351673
H1    H     H_    0.376206 0.914527 0.520594 0.121817
C5    C     C_R   0.017598 0.566478 0.775637 -0.138074
C6    C     C_R   0.949605 0.540340 0.852400 -0.125993
C7    C     C_R   0.937971 0.603302 0.916346 -0.102031
C8    C     C_R   0.994087 0.692921 0.904021 -0.116302
C9    C     C_R   0.061360 0.721940 0.826427 0.061079
C10   C     C_R   0.073548 0.657310 0.760786 0.064329
C11   C     C_R   0.119994 0.813076 0.814145 -0.177848
C12   C     C_R   0.190653 0.839446 0.736021 0.066948
C13   C     C_R   0.202934 0.774814 0.670394 0.069779
C14   C     C_R   0.144556 0.683639 0.682689 -0.183650
C15   C     C_R   0.245928 0.930357 0.721108 -0.137693
C16   C     C_R   0.313350 0.956587 0.644288 -0.103221
C17   C     C_R   0.325189 0.893617 0.580369 -0.117414
C18   C     C_R   0.269785 0.803906 0.592766 -0.137690
H2    H     H_    0.027159 0.514320 0.728571 0.137345
H3    H     H_    0.907139 0.470612 0.862451 0.130113
H4    H     H_    0.886502 0.582477 0.976081 0.142060
H5    H     H_    0.985380 0.738685 0.956274 0.130083
H6    H     H_    0.236118 0.982525 0.768154 0.113963
H7    H     H_    0.355178 0.026386 0.634162 0.139126
H8    H     H_    0.278539 0.758138 0.540523 0.105742
C19   C     C_2   0.988144 0.700339 0.277097 -0.152638
C20   C     C_2   0.151925 0.679282 0.317132 -0.354721
H9    H     H_    0.854710 0.668678 0.296798 0.172945
H10   H     H_    0.289263 0.706804 0.297940 0.156897
C21   C     C_2   0.973272 0.761667 0.204807 0.283330
C22   C     C_2   0.120353 0.815035 0.178230 -0.331114
H11   H     H_    0.258611 0.812695 0.208999 0.140559
C23   C     C_2   0.779219 0.206083 0.781827 -0.157667
C24   C     C_2   0.612921 0.177402 0.815265 -0.359605
H12   H     H_    0.913861 0.179392 0.805725 0.172807
H13   H     H_    0.474968 0.200427 0.792294 0.158498
C25   C     C_2   0.796379 0.270230 0.711972 0.281581
C26   C     C_2   0.645179 0.318332 0.681442 -0.341337
H14   H     H_    0.503416 0.310566 0.708133 0.150218
C27   C     C_2   0.779330 0.208962 0.214013 -0.125534
C28   C     C_2   0.614124 0.181863 0.177400 -0.305834
H15   H     H_    0.915234 0.180244 0.193196 0.135980
H16   H     H_    0.476536 0.209904 0.196063 0.127403
C29   C     C_2   0.791747 0.277469 0.281946 -0.126485
C30   C     C_2   0.638260 0.315399 0.319562 -0.294145
H17   H     H_    0.935769 0.296630 0.301803 0.136781
H18   H     H_    0.493084 0.296898 0.301627 0.129284
O11   O     O_R   0.770210 0.079270 0.910680 -0.543623
O12   O     O_R   0.440150 0.091160 0.082270 -0.548792
O13   O     O_R   0.269970 0.914530 0.082860 -0.531445
C31   C     C_R   0.608842 0.113256 0.110503 0.747003
O14   O     O_R   0.440480 0.090100 0.911240 -0.549338
O15   O     O_R   0.270310 0.913460 0.910610 -0.537949
C32   C     C_R   0.608755 0.111385 0.882970 0.752902
O16   O     O_R   0.769870 0.080340 0.082930 -0.540935
O17   O     O_3   0.603660 0.938980 0.996790 -0.347577
V3    V     V_3+5 0.328750 0.007610 0.996740 1.448963
O18   O     O_R   0.940600 0.902510 0.911180 -0.539645
C33   C     C_R   0.109476 0.880660 0.882807 0.685610
O19   O     O_R   0.940270 0.903570 0.082200 -0.511688
C34   C     C_R   0.108715 0.880723 0.109616 0.781050
V4    V     V_3+5 0.828770 0.986010 0.996670 1.490315
O20   O     O_3   0.103730 0.054750 0.996710 -0.384829
Br1   Br    Br    0.725014 0.757298 0.151410 -0.591788
Br2   Br    Br    0.055260 0.278357 0.669368 -0.605638

loop_
_geom_bond_atom_site_label_1
_geom_bond_atom_site_label_2
_ccdc_geom_bond_type
O19   C34   A    
C6    C7    A    
C1    O6    A    
C19   H9    S    
C27   C28   D    
O11   V4    S    
O16   V4    S    
C13   C14   A    
C31   O16   A    
C15   C16   A    
O5    C3    A    
C17   C18   A    
C29   H17   S    
C30   H18   S    
V2    O10   S    
O12   V3    S    
C5    C6    A    
O12   C31   A    
O8    V2    S    
O15   C33   A    
O14   C32   A    
O1    V2    S    
C10   C14   A    
C4    C14   S    
O7    V1    S    
C2    C30   S    
C7    H4    S    
C20   H10   S    
C13   C18   A    
O9    C4    A    
H1    C17   S    
O19   V4    S    
C25   Br2   S    
C24   C32   S    
C23   H12   S    
C27   H15   S    
C28   H16   S    
C1    C26   S    
C26   H14   S    
C11   C12   A    
C24   H13   S    
C6    H3    S    
C19   C20   D    
O4    C2    A    
C27   C29   S    
C19   C21   S    
C12   C13   A    
C5    C10   A    
C12   C15   A    
C3    C20   S    
O2    C1    A    
V4    O20   S    
C16   C17   A    
O11   C32   A    
O13   V3    S    
C25   C26   D    
C22   C34   S    
O3    C4    A    
O6    V2    S    
O9    V2    S    
C21   C22   D    
V3    O20   S    
C9    C11   A    
C5    H2    S    
O2    V1    S    
C22   H11   S    
C11   C33   S    
C23   C24   D    
O1    C2    A    
O5    V1    S    
O8    C3    A    
C8    H5    S    
O13   C34   A    
C21   Br1   S    
C23   C25   S    
C18   H8    S    
O7    V2    S    
O18   C33   A    
O3    V1    S    
V1    O10   S    
O18   V4    S    
C29   C30   D    
O15   V3    S    
C28   C31   S    
O17   V4    S    
O17   V3    S    
O4    V1    S    
C7    C8    A    
C15   H6    S    
C16   H7    S    
C9    C10   A    
C8    C9    A    
O14   V3    S    
