data_mof_unit_4936.cif
_audit_creation_date              2012-12-10T18:47:07-0500
_audit_creation_method            fapswitch 2.2
_symmetry_space_group_name_H-M    P1
_symmetry_Int_Tables_number       1
_space_group_crystal_system       triclinic
_cell_length_a                    10.72593
_cell_length_b                    9.911647
_cell_length_c                    14.9033
_cell_angle_alpha                 91.021647
_cell_angle_beta                  93.960183
_cell_angle_gamma                 90.485418
_cell_volume                      1580.28501073

loop_
_atom_site_label
_atom_site_type_symbol
_atom_type_description
_atom_site_fract_x
_atom_site_fract_y
_atom_site_fract_z
_atom_type_partial_charge
C1    C     C_R   0.260158 0.499876 0.497909 1.028462
C2    C     C_R   0.127593 0.501219 0.497781 -0.388748
C3    C     C_R   0.571971 0.074793 0.563186 -0.015296
C4    C     C_R   0.428029 0.925207 0.436814 -0.015296
C5    C     C_R   0.429791 0.069073 0.435830 -0.034797
C6    C     C_R   0.570209 0.930927 0.564170 -0.034798
C7    C     C_R   0.498949 0.498928 0.327093 0.885043
C8    C     C_R   0.501049 0.501072 0.672907 0.885039
C9    C     C_R   0.614357 0.499265 0.819310 -0.207212
C10   C     C_R   0.385639 0.500732 0.180690 -0.207216
C11   C     C_R   0.501021 0.503437 0.768246 -0.050357
C12   C     C_R   0.739842 0.500124 0.502090 1.028460
C13   C     C_R   0.498976 0.496563 0.231754 -0.050356
C14   C     C_R   0.387468 0.507474 0.807499 -0.206946
C15   C     C_R   0.612529 0.492526 0.192501 -0.206946
C16   C     C_R   0.386271 0.504923 0.900343 0.076768
C17   C     C_R   0.613725 0.495076 0.099657 0.076771
C18   C     C_R   0.500606 0.501243 0.953309 -0.014763
C19   C     C_R   0.499390 0.498756 0.046691 -0.014763
C20   C     C_R   0.616008 0.500631 0.912657 0.024918
C21   C     C_R   0.383989 0.499367 0.087343 0.024916
C22   C     C_R   0.272580 0.504635 0.940552 -0.322414
C23   C     C_R   0.270175 0.497664 0.034060 0.524685
C24   C     C_R   0.727416 0.495364 0.059447 -0.322418
C25   C     C_3   0.095329 0.371676 0.051873 -0.341022
C26   C     C_3   0.904674 0.628317 0.948133 -0.341013
C27   C     C_3   0.087621 0.405687 0.289582 -0.241613
C28   C     C_3   0.912371 0.594296 0.710414 -0.241583
C29   C     C_3   0.868670 0.189434 0.416974 -0.196837
C30   C     C_3   0.131329 0.810569 0.583021 -0.196818
C31   C     C_1   0.652492 0.150371 0.627856 0.218606
C32   C     C_1   0.347507 0.849629 0.372144 0.218602
C33   C     C_1   0.362954 0.137145 0.363185 0.281061
C34   C     C_R   0.729821 0.502335 0.965940 0.524682
C35   C     C_1   0.637048 0.862854 0.636813 0.281058
C36   C     C_R   0.056489 0.415627 0.438170 0.356920
C37   C     C_R   0.943511 0.584375 0.561829 0.356916
C38   C     C_R   0.927921 0.408588 0.443940 0.346207
C39   C     C_R   0.072078 0.591414 0.556058 0.346202
C40   C     C_R   0.872407 0.498782 0.502217 -0.388749
H1    H     H_    0.700113 0.493686 0.785772 0.167679
H2    H     H_    0.936683 0.635095 0.020584 0.213802
H3    H     H_    0.844699 0.715984 0.929272 0.163695
H4    H     H_    0.989185 0.634774 0.909595 0.191401
H5    H     H_    0.139778 0.352685 0.238408 0.203899
H6    H     H_    0.118336 0.513396 0.292726 0.149511
H7    H     H_    0.987183 0.398331 0.266161 0.192101
H8    H     H_    0.881631 0.486593 0.707262 0.149501
H9    H     H_    0.860226 0.647306 0.761593 0.203905
H10   H     H_    0.012815 0.601621 0.733833 0.192084
H11   H     H_    0.797062 0.124973 0.379439 0.173141
H12   H     H_    0.299883 0.506309 0.214228 0.167683
H13   H     H_    0.853369 0.181092 0.489862 0.144715
H14   H     H_    0.961820 0.149013 0.403069 0.185245
H15   H     H_    0.146639 0.818908 0.510134 0.144713
H16   H     H_    0.202931 0.875033 0.620558 0.173137
H17   H     H_    0.038176 0.850989 0.596919 0.185238
H18   H     H_    0.300657 0.510250 0.765554 0.150110
H19   H     H_    0.699340 0.489750 0.234446 0.150112
H20   H     H_    0.185593 0.508771 0.899235 0.157254
H21   H     H_    0.814403 0.491230 0.100765 0.157250
H22   H     H_    0.155304 0.284014 0.070749 0.163696
H23   H     H_    0.063333 0.364881 0.979419 0.213788
H24   H     H_    0.010810 0.365228 0.090403 0.191404
N1    N     N_R   0.500000 0.857200 0.500000 -0.126228
N2    N     N_R   0.500000 0.142800 0.500000 -0.126228
N3    N     N_1   0.717673 0.210209 0.679723 -0.226210
N4    N     N_1   0.282326 0.789791 0.320277 -0.226207
N5    N     N_1   0.310337 0.189211 0.303201 -0.182542
N6    N     N_1   0.689666 0.810789 0.696797 -0.182535
O1    O     O_R   0.316770 0.614620 0.499990 -0.602701
O2    O     O_3   0.842725 0.504573 0.926131 -0.637818
O3    O     O_3   0.112731 0.342173 0.372806 -0.592433
O4    O     O_3   0.887272 0.657826 0.627194 -0.592430
O5    O     O_3   0.854841 0.323149 0.386979 -0.597590
O6    O     O_3   0.145157 0.676855 0.613019 -0.597579
O7    O     O_R   0.683230 0.385380 0.500010 -0.602698
O8    O     O_R   0.683230 0.614620 0.500010 -0.603268
O9    O     O_R   0.316770 0.385380 0.499990 -0.603267
O10   O     O_R   0.499980 0.614680 0.367850 -0.625291
O11   O     O_R   0.500020 0.385320 0.632150 -0.625292
O12   O     O_R   0.500020 0.614680 0.632150 -0.605903
O13   O     O_R   0.499980 0.385320 0.367850 -0.605903
O14   O     O_3   0.157272 0.495426 0.073867 -0.637821
Zn1   Zn    Zn3+2 0.500000 0.653120 0.500000 0.984762
Zn2   Zn    Zn3+2 0.500000 0.346880 0.500000 0.984762

loop_
_geom_bond_atom_site_label_1
_geom_bond_atom_site_label_2
_ccdc_geom_bond_type
C7    O13   A    
C37   O4    S    
C24   H21   S    
C26   O2    S    
C3    C6    A    
C10   H12   S    
C26   H4    S    
C31   N3    T    
C1    O1    A    
C8    O12   A    
C19   C21   A    
C18   C19   A    
C37   C40   A    
C22   H20   S    
C4    N1    A    
C11   C14   A    
C29   H14   S    
C27   H7    S    
C30   H17   S    
C6    C35   S    
C1    C2    S    
C25   H23   S    
O8    Zn1   S    
O1    Zn1   S    
C28   H10   S    
C2    C39   A    
C6    N1    A    
C35   N6    T    
C12   O8    A    
C25   O14   S    
O11   Zn2   S    
C33   N5    T    
C32   N4    T    
C20   C34   A    
C27   H5    S    
C28   O4    S    
C10   C21   A    
C26   H3    S    
C38   O5    S    
C21   C23   A    
C14   H18   S    
C17   C24   A    
C23   O14   S    
C8    O11   A    
C4    C5    A    
C30   H16   S    
C24   C34   A    
C5    C33   S    
C25   H24   S    
C12   C40   S    
O10   Zn1   S    
C30   O6    S    
C28   H9    S    
C9    C20   A    
C12   O7    A    
C39   O6    S    
C3    C31   S    
C9    C11   A    
C4    C32   S    
C27   H6    S    
O7    Zn2   S    
C13   C15   A    
C1    O9    A    
C14   C16   A    
C3    N2    A    
C34   O2    S    
C26   H2    S    
C29   H11   S    
C2    C36   A    
C15   C17   A    
C28   H8    S    
C16   C22   A    
C15   H19   S    
C5    N2    A    
C10   C13   A    
N2    Zn2   S    
N1    Zn1   S    
C29   O5    S    
O12   Zn1   S    
C30   H15   S    
C9    H1    S    
C36   C38   A    
C37   C39   A    
C38   C40   A    
C29   H13   S    
C8    C11   S    
C17   C19   A    
C18   C20   A    
C25   H22   S    
C36   O3    S    
C7    C13   S    
O13   Zn2   S    
C16   C18   A    
C22   C23   A    
C27   O3    S    
O9    Zn2   S    
C7    O10   A    
