data_mof_unit_1902.cif
_audit_creation_date              2012-12-10T17:25:21-0500
_audit_creation_method            fapswitch 2.2
_symmetry_space_group_name_H-M    P1
_symmetry_Int_Tables_number       1
_space_group_crystal_system       triclinic
_cell_length_a                    27.78094
_cell_length_b                    10.759266
_cell_length_c                    9.633937
_cell_angle_alpha                 89.735983
_cell_angle_beta                  90.01523
_cell_angle_gamma                 94.265497
_cell_volume                      2871.60136764

loop_
_atom_site_label
_atom_site_type_symbol
_atom_type_description
_atom_site_fract_x
_atom_site_fract_y
_atom_site_fract_z
_atom_type_partial_charge
C1    C     C_R   0.498148 0.262561 0.500234 0.796384
C2    C     C_R   0.284011 0.552273 0.641326 -0.112033
C3    C     C_R   0.253968 0.527498 0.527497 0.217282
C4    C     C_R   0.102635 0.523835 0.555766 -0.046786
C5    C     C_R   0.125877 0.412652 0.571085 -0.028220
C6    C     C_R   0.098283 0.301077 0.596354 -0.095799
C7    C     C_R   0.130582 0.637894 0.547299 -0.083511
C8    C     C_R   0.354215 0.508883 0.503250 -0.164852
C9    C     C_R   0.645352 0.486140 0.499290 -0.139446
C10   C     C_R   0.973631 0.398055 0.534062 -0.016317
C11   C     C_R   0.977299 0.627680 0.524072 0.015830
C12   C     C_R   0.407356 0.500535 0.499958 0.823106
C13   C     C_R   0.950067 0.510757 0.527584 0.048695
C14   C     C_R   0.945614 0.284234 0.508811 0.239165
C15   C     C_R   0.895517 0.280510 0.513284 -0.104715
C16   C     C_R   0.871809 0.390200 0.520792 -0.074361
C17   C     C_R   0.898878 0.506188 0.517716 -0.086486
C18   C     C_R   0.874829 0.616793 0.501261 -0.100228
C19   C     C_R   0.823743 0.607726 0.501189 0.615071
C20   C     C_R   0.821321 0.386259 0.519846 0.632578
C21   C     C_R   0.721577 0.449012 0.385003 0.290713
C22   C     C_R   0.670766 0.444618 0.382213 0.203991
C23   C     C_R   0.497595 0.736588 0.499968 0.807477
C24   C     C_R   0.671349 0.521978 0.619386 -0.236876
C25   C     C_R   0.721341 0.522434 0.622792 -0.116292
C26   C     C_R   0.746682 0.487706 0.505927 0.223820
C27   C     C_R   0.024209 0.404161 0.556092 0.060882
C28   C     C_R   0.051509 0.520806 0.550558 0.051610
C29   C     C_R   0.028285 0.633957 0.543561 -0.001088
C30   C     C_R   0.048253 0.298211 0.594266 -0.116758
C31   C     C_R   0.107684 0.748889 0.554206 -0.124445
C32   C     C_R   0.953072 0.732894 0.485840 -0.154810
C33   C     C_R   0.902910 0.730084 0.478675 0.320845
C34   C     C_R   0.592304 0.493767 0.499755 0.873573
C35   C     C_R   0.057487 0.747679 0.562564 0.238260
C36   C     C_R   0.420159 0.115476 0.358594 -0.207403
C37   C     C_R   0.383684 0.043940 0.289974 -0.110546
C38   C     C_R   0.383524 0.914480 0.289968 0.324729
C39   C     C_R   0.420008 0.856047 0.358240 -0.210572
C40   C     C_R   0.457692 0.926780 0.426999 0.044195
C41   C     C_R   0.457768 0.058204 0.427304 0.095826
C42   C     C_R   0.494632 0.128064 0.500696 -0.063273
C43   C     C_R   0.529110 0.069148 0.576960 -0.149448
C44   C     C_R   0.529023 0.940975 0.576643 -0.138638
C45   C     C_R   0.176362 0.416626 0.564980 0.609086
C46   C     C_R   0.494452 0.869928 0.500048 -0.051234
C47   C     C_R   0.578760 0.644168 0.132396 0.322259
C48   C     C_R   0.617989 0.683861 0.048214 -0.103972
C49   C     C_R   0.612207 0.693994 0.908117 -0.279886
C50   C     C_R   0.569590 0.649167 0.848597 -0.123856
C51   C     C_R   0.534642 0.574362 0.923167 0.132874
C52   C     C_R   0.536358 0.573888 0.073300 0.135493
C53   C     C_R   0.467985 0.426752 0.075084 -0.018512
C54   C     C_R   0.467990 0.425691 0.928203 0.352490
C55   C     C_R   0.181122 0.637812 0.539861 0.620178
C56   C     C_R   0.273587 0.495280 0.399375 0.308822
C57   C     C_R   0.323664 0.484629 0.386505 0.219624
C58   C     C_R   0.333456 0.543599 0.629374 -0.192690
Cu1   Cu    Cu3+1 0.500000 0.499990 0.640660 0.997112
Cu2   Cu    Cu3+1 0.500000 0.500010 0.359340 1.020808
H1    H     H_    0.355486 0.563901 0.720410 0.214581
H2    H     H_    0.128946 0.837106 0.562973 0.220346
H3    H     H_    0.972846 0.817598 0.452450 0.227763
H4    H     H_    0.653050 0.550737 0.711269 0.190553
H5    H     H_    0.417878 0.215337 0.359496 0.170176
H6    H     H_    0.417809 0.755390 0.358930 0.169432
H7    H     H_    0.556790 0.896975 0.633929 0.153081
H8    H     H_    0.651400 0.726194 0.091145 0.207143
H9    H     H_    0.640248 0.742100 0.845675 0.183696
H10   H     H_    0.566839 0.672373 0.742151 0.207435
H11   H     H_    0.028773 0.212717 0.627077 0.214307
N1    N     N_R   0.202717 0.527685 0.544670 -0.455496
N2    N     N_R   0.798475 0.493949 0.510253 -0.460344
N3    N     N_R   0.500460 0.501210 0.147910 -0.210445
N4    N     N_R   0.500480 0.501290 0.852040 -0.221597
O1    O     O_R   0.500000 0.319640 0.618810 -0.542336
O2    O     O_2   0.795128 0.275633 0.527911 -0.474609
O3    O     O_2   0.208382 0.746343 0.526663 -0.481453
O4    O     O_2   0.799099 0.710697 0.493191 -0.451362
O5    O     O_R   0.500000 0.319660 0.381240 -0.576124
O6    O     O_R   0.430260 0.500010 0.618770 -0.548946
O7    O     O_R   0.430270 0.500030 0.381200 -0.564601
O8    O     O_R   0.500000 0.680340 0.618760 -0.609729
O9    O     O_R   0.500000 0.680360 0.381190 -0.541000
O10   O     O_R   0.569730 0.499970 0.618800 -0.610081
O11   O     O_R   0.569740 0.499990 0.381230 -0.521521
O12   O     O_2   0.198992 0.310379 0.577450 -0.485896
Br1   Br    Br    0.230872 0.465460 0.243304 -0.331394
Br2   Br    Br    0.877045 0.884416 0.425112 -0.304861
H12   H     H_    0.740630 0.551545 0.716234 0.182146
Br3   Br    Br    0.034825 0.898450 0.638266 -0.452558
H13   H     H_    0.556936 0.122973 0.634426 0.164573
H14   H     H_    0.355116 0.089408 0.238310 0.205159
H15   H     H_    0.268827 0.576754 0.740163 0.194015
Br4   Br    Br    0.332668 0.816498 0.199591 -0.385954
H16   H     H_    0.442507 0.364652 0.131221 0.183544
Br5   Br    Br    0.589971 0.746002 0.295152 -0.491259
Br6   Br    Br    0.421729 0.309940 0.842026 -0.422330
H17   H     H_    0.115178 0.215798 0.619459 0.211392
Br7   Br    Br    0.637830 0.371931 0.221982 -0.407422
Br8   Br    Br    0.757467 0.406051 0.223059 -0.352594
H18   H     H_    0.875088 0.191706 0.499092 0.238369
Br9   Br    Br    0.970671 0.139781 0.425266 -0.402145
Br10  Br    Br    0.347571 0.430937 0.210629 -0.421380

loop_
_geom_bond_atom_site_label_1
_geom_bond_atom_site_label_2
_ccdc_geom_bond_type
C10   C27   A    
C21   C26   A    
C40   C41   A    
Cu2   O9    S    
C41   C42   A    
C53   N3    A    
C7    C55   A    
C30   H11   S    
C53   C54   A    
C40   C46   A    
C25   H12   S    
C23   O8    A    
C20   O2    S    
C28   C29   A    
C45   O12   S    
C51   N4    A    
C52   N3    A    
C5    C6    A    
C9    C22   A    
C56   Br1   S    
C15   C16   A    
C26   N2    S    
C56   C57   A    
C18   C19   A    
C34   O11   A    
C8    C58   A    
Cu2   O7    S    
Cu2   O5    S    
C16   C17   A    
C38   Br4   S    
C12   O6    A    
C27   C30   A    
C55   N1    A    
C16   C20   A    
C21   Br8   S    
C58   H1    S    
Cu1   Cu2   S    
C24   H4    S    
C23   C46   S    
C49   H9    S    
C21   C22   A    
C45   N1    A    
C31   H2    S    
C36   C41   A    
C4    C7    A    
C4    C28   A    
C44   C46   A    
C17   C18   A    
C7    C31   A    
C23   O9    A    
C37   H14   S    
C51   C52   A    
C19   N2    A    
C22   Br7   S    
C24   C25   A    
C10   C14   A    
C39   C40   A    
C55   O3    S    
Cu2   O11   S    
C36   H5    S    
C25   C26   A    
C5    C45   A    
C34   O10   A    
C43   C44   A    
Cu1   O10   S    
C37   C38   A    
C33   Br2   S    
C8    C57   A    
C3    C56   A    
C47   C48   A    
C2    H15   S    
C8    C12   S    
C50   C51   A    
C12   O7    A    
C48   H8    S    
C19   O4    S    
C48   C49   A    
C6    C30   A    
C11   C32   A    
C9    C34   S    
C39   H6    S    
C31   C35   A    
C42   C43   A    
Cu1   N4    S    
C57   Br10  S    
C36   C37   A    
C1    O1    A    
Cu1   O6    S    
C32   H3    S    
Cu1   O8    S    
C4    C5    A    
C10   C13   A    
C2    C58   A    
C9    C24   A    
C47   C52   A    
C29   C35   A    
C43   H13   S    
C47   Br5   S    
C13   C17   A    
C32   C33   A    
C3    N1    S    
C50   H10   S    
C6    H17   S    
C11   C13   A    
C14   Br9   S    
C38   C39   A    
Cu2   N3    S    
C20   N2    A    
C2    C3    A    
C15   H18   S    
C18   C33   A    
C54   N4    A    
C1    C42   S    
C11   C29   A    
C49   C50   A    
C27   C28   A    
C1    O5    A    
C14   C15   A    
C54   Br6   S    
C44   H7    S    
Cu1   O1    S    
C53   H16   S    
C35   Br3   S    
