data_mof_unit_2365.cif
_audit_creation_date              2012-12-10T17:18:52-0500
_audit_creation_method            fapswitch 2.2
_symmetry_space_group_name_H-M    P1
_symmetry_Int_Tables_number       1
_space_group_crystal_system       triclinic
_cell_length_a                    9.645985
_cell_length_b                    10.827818
_cell_length_c                    13.423968
_cell_angle_alpha                 92.797514
_cell_angle_beta                  72.518966
_cell_angle_gamma                 90.881738
_cell_volume                      1335.71941087

loop_
_atom_site_label
_atom_site_type_symbol
_atom_type_description
_atom_site_fract_x
_atom_site_fract_y
_atom_site_fract_z
_atom_type_partial_charge
C1    C     C_R   0.498748 0.737428 0.504210 0.793616
C2    C     C_R   0.435810 0.492386 0.979212 0.020525
C3    C     C_R   0.466117 0.458154 0.871790 0.024195
C4    C     C_R   0.541528 0.468330 0.030316 0.057217
C5    C     C_R   0.669997 0.401106 0.975971 0.039268
C6    C     C_R   0.689987 0.357219 0.871974 0.381330
C7    C     C_R   0.586728 0.382872 0.822989 -0.251926
C8    C     C_R   0.523134 0.509646 0.134303 -0.177429
C9    C     C_R   0.747934 0.414362 0.132738 -0.164150
C10   C     C_R   0.373263 0.497842 0.815655 -0.156361
C11   C     C_R   0.266371 0.880689 0.658485 -0.304049
C12   C     C_R   0.421304 0.496889 0.700074 0.792574
C13   C     C_R   0.158956 0.950504 0.731832 0.388031
C14   C     C_R   0.175516 0.077967 0.740823 -0.095861
C15   C     C_R   0.286913 0.137842 0.668751 -0.224816
C16   C     C_R   0.387626 0.070066 0.587139 0.083593
C17   C     C_R   0.382966 0.939232 0.585343 0.052339
C18   C     C_R   0.496212 0.871819 0.511269 -0.072012
C19   C     C_R   0.609796 0.933653 0.441322 -0.180440
C20   C     C_R   0.608858 0.061225 0.439625 -0.191014
C21   C     C_R   0.496646 0.129526 0.509732 -0.070297
C22   C     C_R   0.912823 0.337465 0.359220 -0.125157
C23   C     C_R   0.498864 0.262892 0.501996 0.744530
C24   C     C_R   0.012416 0.257225 0.289965 0.146578
C25   C     C_R   0.154943 0.256700 0.291902 -0.192569
C26   C     C_R   0.198532 0.335278 0.361525 -0.176826
C27   C     C_R   0.101795 0.419260 0.431727 0.228232
C28   C     C_R   0.952887 0.419839 0.431151 0.207255
C29   C     C_R   0.900234 0.576245 0.565435 -0.000172
C30   C     C_R   0.047852 0.576379 0.565136 0.004419
C31   C     C_R   0.578154 0.497249 0.300259 0.767759
C32   C     C_R   0.772931 0.376895 0.028360 -0.035611
C33   C     C_R   0.621357 0.478326 0.186541 -0.053983
C34   C     C_R   0.239189 0.551938 0.870476 -0.222534
C35   C     C_R   0.201980 0.575796 0.978265 0.470079
C36   C     C_R   0.300064 0.548096 0.031617 -0.242489
Cu1   Cu    Cu3+1 0.359340 0.500010 0.500010 0.965048
Cu2   Cu    Cu3+1 0.640660 0.499990 0.499990 0.962866
H1    H     H_    0.825818 0.390354 0.171966 0.175292
H2    H     H_    0.256823 0.781510 0.659995 0.177614
H3    H     H_    0.101598 0.131541 0.803413 0.235560
H4    H     H_    0.293789 0.237224 0.678475 0.182712
H5    H     H_    0.695170 0.106923 0.382301 0.151625
H6    H     H_    0.824227 0.639024 0.619223 0.153439
H7    H     H_    0.805627 0.331999 0.353734 0.183870
H8    H     H_    0.233424 0.194571 0.239066 0.169466
H9    H     H_    0.309663 0.325877 0.356658 0.204158
H10   H     H_    0.081467 0.639299 0.618264 0.159556
H11   H     H_    0.872371 0.327017 0.990720 0.197673
H12   H     H_    0.432005 0.565616 0.178081 0.152389
H13   H     H_    0.165756 0.578766 0.828712 0.233681
H14   H     H_    0.265055 0.569453 0.114472 0.179419
H15   H     H_    0.599315 0.339706 0.746652 0.193846
H16   H     H_    0.697054 0.882593 0.385122 0.161400
N1    N     N_R   0.852480 0.498790 0.499000 -0.199665
N2    N     N_R   0.148360 0.498710 0.498970 -0.199717
O1    O     O_R   0.381190 0.680360 0.500010 -0.585571
O2    O     O_R   0.618760 0.680340 0.500000 -0.576178
O3    O     O_R   0.323240 0.499990 0.650990 -0.567655
O4    O     O_R   0.560820 0.499960 0.650980 -0.566792
O5    O     O_R   0.381240 0.319660 0.500000 -0.586677
O6    O     O_R   0.618810 0.319640 0.499990 -0.589174
O7    O     O_R   0.439180 0.500040 0.349020 -0.600013
O8    O     O_R   0.676760 0.500010 0.349010 -0.594700
S1    S     S_3+6 0.997481 0.880965 0.806715 0.068362
O9    O     O_2   0.012848 0.743249 0.803626 -0.309628
O10   O     O_2   0.959374 0.930966 0.917972 -0.163791
O11   O     O_3   0.862303 0.914726 0.757501 -0.465301
H17   H     H_    0.896004 0.883536 0.683572 0.321766
C37   C     C_3   0.968144 0.171105 0.213559 -0.813437
H18   H     H_    0.851320 0.180490 0.220062 0.206179
H19   H     H_    0.032891 0.191654 0.132545 0.251716
H20   H     H_    0.988279 0.073954 0.228311 0.259390
S2    S     S_3+6 0.839666 0.265374 0.801149 -0.015815
O12   O     O_2   0.977603 0.336701 0.791741 -0.305787
O13   O     O_2   0.838280 0.151969 0.861392 -0.273624
O14   O     O_3   0.832437 0.223539 0.680356 -0.513465
H21   H     H_    0.763801 0.152974 0.690028 0.362446
S3    S     S_3+6 0.038951 0.652121 0.047084 0.023966
O15   O     O_2   0.068803 0.788545 0.051156 -0.242266
O16   O     O_2   0.924519 0.627459 0.993538 -0.224851
O17   O     O_3   0.980312 0.603737 0.169936 -0.578421
H22   H     H_    0.894653 0.656001 0.205430 0.375246

loop_
_geom_bond_atom_site_label_1
_geom_bond_atom_site_label_2
_ccdc_geom_bond_type
C16   C21   A    
C35   C36   A    
C4    C8    A    
C24   C37   S    
C13   S1    S    
O14   H21   S    
C1    C18   S    
Cu1   Cu2   S    
S2    O13   D    
C30   H10   S    
C18   C19   A    
C3    C7    A    
C5    C6    A    
C15   C16   A    
C9    H1    S    
C34   C35   A    
C9    C32   A    
Cu2   O2    S    
Cu1   N2    S    
C23   O6    A    
Cu2   N1    S    
C19   C20   A    
O11   H17   S    
S1    O10   D    
S2    O14   S    
C31   C33   S    
C37   H18   S    
C36   H14   S    
C5    C32   A    
C22   C28   A    
C13   C14   A    
C9    C33   A    
C12   O3    A    
Cu1   O7    S    
C28   N1    A    
C6    S2    S    
Cu2   O8    S    
S2    O12   D    
C31   O7    A    
C24   C25   A    
S3    O16   D    
C27   N2    A    
C16   C17   A    
C29   N1    A    
C25   C26   A    
C30   N2    A    
C2    C4    A    
C29   C30   A    
C1    O1    A    
S1    O11   S    
C37   H20   S    
C17   C18   A    
C34   H13   S    
C10   C34   A    
Cu1   O3    S    
C10   C12   S    
C26   H9    S    
C14   H3    S    
Cu2   O4    S    
C19   H16   S    
O17   H22   S    
C21   C23   S    
C29   H6    S    
C26   C27   A    
C22   C24   A    
C7    H15   S    
C8    H12   S    
C20   H5    S    
C2    C36   A    
C11   C17   A    
C31   O8    A    
C15   H4    S    
C4    C5    A    
S3    O17   S    
Cu1   O5    S    
C6    C7    A    
C2    C3    A    
C3    C10   A    
C1    O2    A    
C11   C13   A    
C35   S3    S    
C8    C33   A    
C11   H2    S    
C32   H11   S    
S3    O15   D    
C12   O4    A    
C23   O5    A    
C22   H7    S    
C20   C21   A    
S1    O9    D    
C27   C28   A    
C14   C15   A    
C37   H19   S    
C25   H8    S    
Cu1   O1    S    
Cu2   O6    S    
