data_mof_unit_4204.cif
_audit_creation_date              2012-12-10T16:52:02-0500
_audit_creation_method            fapswitch 2.2
_symmetry_space_group_name_H-M    P1
_symmetry_Int_Tables_number       1
_space_group_crystal_system       triclinic
_cell_length_a                    7.860768
_cell_length_b                    8.493968
_cell_length_c                    15.000324
_cell_angle_alpha                 92.614258
_cell_angle_beta                  84.497056
_cell_angle_gamma                 93.611067
_cell_volume                      994.173363078

loop_
_atom_site_label
_atom_site_type_symbol
_atom_type_description
_atom_site_fract_x
_atom_site_fract_y
_atom_site_fract_z
_atom_type_partial_charge
C1    C     C_R   0.545845 0.794627 0.508219 0.939140
C2    C     C_R   0.587264 0.630646 0.811361 0.090351
C3    C     C_R   0.504992 0.498844 0.231627 -0.067731
C4    C     C_R   0.496192 0.505840 0.768753 -0.052332
C5    C     C_R   0.605805 0.614708 0.183853 0.058149
C6    C     C_R   0.393286 0.392953 0.817509 0.061761
C7    C     C_R   0.583828 0.628944 0.093133 0.088134
C8    C     C_R   0.419565 0.376180 0.907243 0.086146
C9    C     C_R   0.500586 0.501444 0.047021 -0.031360
C10   C     C_R   0.504905 0.502270 0.953143 -0.028869
C11   C     C_R   0.409713 0.375345 0.094711 -0.013609
C12   C     C_R   0.455814 0.207069 0.513244 0.841653
C13   C     C_R   0.595884 0.627859 0.905193 -0.020888
C14   C     C_R   0.648850 0.764163 0.046500 0.147084
C15   C     C_R   0.354960 0.240414 0.953157 0.125526
C16   C     C_3   0.364689 0.224193 0.240540 -0.886883
C17   C     C_3   0.640822 0.778654 0.759343 -0.866819
C18   C     C_3   0.754966 0.702400 0.226627 -0.829895
C19   C     C_3   0.236695 0.313339 0.777997 -0.842425
C20   C     C_3   0.661419 0.926810 0.092709 -0.777260
C21   C     C_3   0.337735 0.079442 0.905225 -0.743819
C22   C     C_2   0.828462 0.849735 0.910826 0.422486
C23   C     C_R   0.682466 0.751108 0.953452 -0.031637
C24   C     C_2   0.177416 0.152976 0.088916 0.423648
C25   C     C_2   0.752292 0.021612 0.546230 0.411780
C26   C     C_2   0.270044 0.997294 0.592721 0.427817
C27   C     C_3   0.020364 0.390707 0.391602 -0.476774
C28   C     C_3   0.978590 0.600416 0.610185 -0.459609
C29   C     C_R   0.323166 0.251989 0.046309 -0.027774
C30   C     C_2   0.573598 0.958602 0.533541 -0.213151
C31   C     C_2   0.436672 0.049057 0.544445 -0.292222
C32   C     C_R   0.498942 0.498543 0.672679 0.885465
C33   C     C_R   0.501494 0.503869 0.327535 0.915755
C34   C     C_R   0.417409 0.372571 0.188506 0.081473
H1    H     H_    0.430234 0.217531 0.302364 0.231098
H2    H     H_    0.146208 0.251727 0.827648 0.261476
H3    H     H_    0.158100 0.403672 0.753928 0.248451
H4    H     H_    0.276558 0.230267 0.722048 0.239254
H5    H     H_    0.597215 0.927403 0.161695 0.225349
H6    H     H_    0.796905 0.971029 0.094679 0.273475
H7    H     H_    0.594651 0.011265 0.056106 0.260523
H8    H     H_    0.201332 0.037692 0.904261 0.278739
H9    H     H_    0.399158 0.080283 0.835588 0.237050
H10   H     H_    0.404446 0.992261 0.939903 0.255181
H11   H     H_    0.925356 0.793618 0.866032 0.077853
H12   H     H_    0.225215 0.217222 0.259953 0.227773
H13   H     H_    0.081223 0.208622 0.134382 0.064347
H14   H     H_    0.773460 0.117838 0.594867 0.090901
H15   H     H_    0.152775 0.046393 0.577523 0.128796
H16   H     H_    0.918626 0.314820 0.361991 0.184210
H17   H     H_    0.060590 0.485234 0.344052 0.193884
H18   H     H_    0.123134 0.312789 0.401601 0.222590
H19   H     H_    0.079899 0.668630 0.643694 0.227741
H20   H     H_    0.878222 0.682360 0.602209 0.226009
H21   H     H_    0.935794 0.500614 0.653695 0.174667
H22   H     H_    0.401668 0.117392 0.200196 0.254333
H23   H     H_    0.577348 0.783929 0.696957 0.239685
H24   H     H_    0.601698 0.885545 0.799143 0.257057
H25   H     H_    0.780607 0.786501 0.740961 0.218137
H26   H     H_    0.846690 0.765562 0.178291 0.257230
H27   H     H_    0.707261 0.785486 0.281335 0.242152
H28   H     H_    0.836297 0.617101 0.253286 0.254574
N1    N     N_2   0.950330 0.457950 0.475660 -0.010968
N2    N     N_2   0.049670 0.542050 0.524340 -0.000584
O1    O     O_R   0.389250 0.738570 0.505970 -0.580649
O2    O     O_2   0.164566 0.010121 0.075184 -0.583581
O3    O     O_2   0.875820 0.968860 0.501852 -0.587187
O4    O     O_2   0.265304 0.908926 0.654937 -0.608207
O5    O     O_R   0.610750 0.261430 0.494030 -0.612403
O6    O     O_R   0.678390 0.711620 0.490370 -0.587312
O7    O     O_R   0.321610 0.288380 0.509630 -0.640706
O8    O     O_R   0.355420 0.513510 0.639950 -0.613960
O9    O     O_R   0.644580 0.486490 0.360050 -0.622154
O10   O     O_R   0.644560 0.486560 0.624350 -0.657977
O11   O     O_R   0.355440 0.513440 0.375650 -0.628965
O12   O     O_2   0.840703 0.992788 0.923735 -0.586241
Zn1   Zn    Zn3+2 0.306940 0.517990 0.510420 0.969111
Zn2   Zn    Zn3+2 0.693060 0.482010 0.489580 0.955930

loop_
_geom_bond_atom_site_label_1
_geom_bond_atom_site_label_2
_ccdc_geom_bond_type
C12   O5    A    
O6    Zn2   S    
N2    Zn1   S    
C25   O3    D    
C22   O12   D    
C20   H7    S    
C32   O8    A    
C6    C19   S    
C19   H2    S    
C16   H1    S    
C32   O10   A    
C30   C31   D    
C20   H6    S    
C3    C33   S    
C13   C23   A    
C2    C13   A    
C24   C29   S    
C19   H3    S    
C16   C34   S    
C21   H9    S    
C33   O11   A    
C7    C14   A    
C1    O1    A    
O9    Zn2   S    
C9    C10   A    
C27   H16   S    
C24   O2    D    
C17   H24   S    
C26   C31   S    
C2    C17   S    
O5    Zn2   S    
C28   H21   S    
C27   H17   S    
C15   C29   A    
O1    Zn1   S    
C14   C20   S    
C4    C6    A    
C26   H15   S    
C16   H12   S    
C5    C7    A    
C20   H5    S    
C28   H20   S    
C18   H28   S    
C6    C8    A    
C5    C18   S    
C3    C34   A    
N1    N2    D    
C14   C23   A    
C2    C4    A    
C16   H22   S    
O8    Zn1   S    
C19   H4    S    
C21   H10   S    
C9    C11   A    
O11   Zn1   S    
C25   H14   S    
C4    C32   S    
C27   N1    S    
C17   H25   S    
C28   N2    S    
C18   H26   S    
C12   O7    A    
C8    C15   A    
C12   C31   S    
O7    Zn1   S    
C27   H18   S    
C33   O9    A    
C25   C30   S    
C7    C9    A    
C24   H13   S    
C11   C34   A    
C3    C5    A    
C10   C13   A    
C28   H19   S    
C18   H27   S    
C1    O6    A    
C26   O4    D    
C1    C30   S    
C21   H8    S    
C15   C21   S    
C22   H11   S    
C11   C29   A    
C8    C10   A    
O10   Zn2   S    
C22   C23   S    
C17   H23   S    
N1    Zn2   S    
