data_mof_unit_4284.cif
_audit_creation_date              2012-10-26T20:20:46-0400
_audit_creation_method            fapswitch 2.2
_symmetry_space_group_name_H-M    P1
_symmetry_Int_Tables_number       1
_space_group_crystal_system       triclinic
_cell_length_a                    8.723173
_cell_length_b                    10.808151
_cell_length_c                    9.618701
_cell_angle_alpha                 89.14067
_cell_angle_beta                  97.012283
_cell_angle_gamma                 92.563902
_cell_volume                      899.138360118

loop_
_atom_site_label
_atom_site_type_symbol
_atom_type_description
_atom_site_fract_x
_atom_site_fract_y
_atom_site_fract_z
_atom_type_partial_charge
C1    C     C_R   0.498635 0.262389 0.500567 0.542463
C2    C     C_R   0.548375 0.064122 0.624237 -0.148125
C3    C     C_R   0.498333 0.871586 0.499694 0.020295
C4    C     C_R   0.496457 0.128363 0.501334 0.017530
C5    C     C_R   0.406763 0.418774 0.067920 0.476855
C6    C     C_R   0.597921 0.577663 0.932764 0.474395
C7    C     C_R   0.401662 0.419926 0.919312 0.070681
C8    C     C_R   0.596460 0.581323 0.080521 0.071594
C9    C     C_3   0.286545 0.327167 0.842525 -0.225324
C10   C     C_3   0.119437 0.348434 0.867717 -0.404799
C11   C     C_3   0.705978 0.677995 0.156528 -0.219618
C12   C     C_R   0.499741 0.737607 0.499492 0.542670
C13   C     C_3   0.657606 0.809664 0.117269 -0.414883
C14   C     C_R   0.204326 0.500010 0.464370 0.546148
C15   C     C_R   0.795656 0.502597 0.535300 0.545743
C16   C     C_2   0.038673 0.498205 0.444310 -0.157137
C17   C     C_2   0.961199 0.509157 0.553874 -0.158114
C18   C     C_R   0.443047 0.063834 0.378339 -0.130044
C19   C     C_R   0.550007 0.936059 0.623255 -0.128824
C20   C     C_R   0.442557 0.935734 0.378040 -0.149046
Cu1   Cu    Cu3+1 0.500000 0.500020 0.640660 1.000566
Cu2   Cu    Cu3+1 0.500000 0.499980 0.359340 1.002459
F1    F     F_    0.317748 0.335552 0.132695 -0.645707
F2    F     F_    0.698390 0.652507 0.869752 -0.641986
H1    H     H_    0.980132 0.486171 0.338599 0.137531
H2    H     H_    0.288324 0.327613 0.729774 0.202963
H3    H     H_    0.316699 0.232069 0.878388 0.142368
H4    H     H_    0.530683 0.815961 0.113654 0.148456
H5    H     H_    0.715751 0.876061 0.195876 0.133672
H6    H     H_    0.691220 0.837612 0.013376 0.195058
H7    H     H_    0.716233 0.669720 0.270067 0.199476
H8    H     H_    0.824798 0.666292 0.129520 0.150320
H9    H     H_    0.019877 0.524232 0.658459 0.139837
H10   H     H_    0.399797 0.112180 0.283100 0.178851
H11   H     H_    0.592876 0.887693 0.718625 0.165238
H12   H     H_    0.396060 0.886959 0.283857 0.126052
H13   H     H_    0.590017 0.112791 0.720065 0.128705
H14   H     H_    0.100310 0.448702 0.876637 0.162694
H15   H     H_    0.037944 0.309505 0.779815 0.123895
H16   H     H_    0.091337 0.300831 0.964969 0.207529
N1    N     N_R   0.500040 0.500030 0.852080 -0.255690
N2    N     N_R   0.499960 0.499970 0.147920 -0.254482
O1    O     O_R   0.499990 0.319660 0.618740 -0.545706
O2    O     O_R   0.500010 0.680340 0.381260 -0.535093
O3    O     O_R   0.499990 0.319630 0.381170 -0.441498
O4    O     O_R   0.500010 0.680370 0.618830 -0.451094
O5    O     O_R   0.274840 0.500010 0.591370 -0.529331
O6    O     O_R   0.725160 0.499990 0.408630 -0.537219
O7    O     O_R   0.274830 0.499980 0.353800 -0.443863
O8    O     O_R   0.725170 0.500020 0.646200 -0.436461

loop_
_geom_bond_atom_site_label_1
_geom_bond_atom_site_label_2
_ccdc_geom_bond_type
C11   H8    S    
C2    C4    A    
C5    N2    A    
C5    C7    A    
C13   H4    S    
C3    C19   A    
C14   O5    A    
C12   O4    A    
C11   C13   S    
C9    C10   S    
Cu2   O6    S    
C5    F1    S    
C8    C11   S    
C10   H14   S    
C1    C4    S    
C6    F2    S    
C11   H7    S    
C3    C20   A    
C12   O2    A    
C19   H11   S    
Cu1   Cu2   S    
C18   H10   S    
C2    H13   S    
C1    O3    A    
Cu2   N2    S    
C17   H9    S    
C15   O6    A    
Cu2   O7    S    
Cu1   N1    S    
C13   H5    S    
Cu1   O8    S    
C8    N2    A    
C9    H2    S    
C18   C20   A    
C7    N1    A    
C14   C16   S    
C14   O7    A    
C20   H12   S    
C13   H6    S    
Cu2   O3    S    
C9    H3    S    
C15   C17   S    
Cu1   O4    S    
C15   O8    A    
C16   H1    S    
C7    C9    S    
C16   C17   D    
C10   H16   S    
C6    C8    A    
C3    C12   S    
C2    C19   A    
Cu1   O1    S    
C4    C18   A    
C1    O1    A    
Cu2   O2    S    
C10   H15   S    
Cu1   O5    S    
C6    N1    A    
