data_mof_unit_2628.cif
_audit_creation_date              2012-12-10T21:42:37-0500
_audit_creation_method            fapswitch 2.2
_symmetry_space_group_name_H-M    P1
_symmetry_Int_Tables_number       1
_space_group_crystal_system       triclinic
_cell_length_a                    10.749138
_cell_length_b                    16.07982
_cell_length_c                    16.562125
_cell_angle_alpha                 87.901021
_cell_angle_beta                  90.895424
_cell_angle_gamma                 94.587515
_cell_volume                      2851.35001655

loop_
_atom_site_label
_atom_site_type_symbol
_atom_type_description
_atom_site_fract_x
_atom_site_fract_y
_atom_site_fract_z
_atom_type_partial_charge
C1    C     C_R   0.495140 0.488879 0.653506 0.867121
C2    C     C_R   0.567630 0.451869 0.220278 -0.262971
C3    C     C_R   0.389076 0.539016 0.858758 0.122421
C4    C     C_R   0.578368 0.454678 0.136595 0.121233
C5    C     C_R   0.429571 0.470195 0.904358 0.292818
C6    C     C_R   0.539344 0.525007 0.092616 0.285490
C7    C     C_R   0.480028 0.404531 0.866594 -0.230124
C8    C     C_R   0.500412 0.593366 0.132333 -0.206997
C9    C     C_R   0.500468 0.409729 0.784062 -0.239611
C10   C     C_R   0.490839 0.590014 0.215856 -0.238913
C11   C     C_R   0.466414 0.763197 0.448218 -0.038390
C12   C     C_R   0.504315 0.511070 0.346416 0.883325
C13   C     C_R   0.513559 0.235722 0.556972 -0.021636
C14   C     C_R   0.467252 0.850433 0.452152 -0.279899
C15   C     C_R   0.515308 0.148612 0.553202 -0.288032
C16   C     C_R   0.740347 0.501332 0.503297 0.868624
C17   C     C_R   0.259387 0.498441 0.500440 0.881015
C18   C     C_R   0.517026 0.890819 0.521194 0.323451
C19   C     C_R   0.489470 0.109432 0.479222 0.323448
C20   C     C_R   0.563606 0.841087 0.584185 -0.314227
C21   C     C_R   0.462373 0.160037 0.411584 -0.332795
C22   C     C_R   0.562755 0.754397 0.577143 0.019984
C23   C     C_R   0.126675 0.496247 0.503613 -0.100213
C24   C     C_R   0.459053 0.246475 0.418348 0.001240
C25   C     C_R   0.851115 0.780103 0.409333 0.124902
C26   C     C_R   0.185421 0.231329 0.609704 0.131542
C27   C     C_R   0.875718 0.696559 0.420498 -0.187870
C28   C     C_R   0.155560 0.313399 0.594400 -0.165205
C29   C     C_R   0.905289 0.663655 0.497028 0.078703
C30   C     C_R   0.094242 0.336184 0.522699 0.056582
C31   C     C_R   0.911436 0.715232 0.565160 0.084166
C32   C     C_R   0.061457 0.275306 0.463983 0.092247
C33   C     C_R   0.887741 0.801061 0.554142 0.109901
C34   C     C_R   0.872796 0.503643 0.510127 -0.089182
C35   C     C_R   0.088923 0.191054 0.480714 0.118345
C36   C     C_R   0.856596 0.831646 0.475842 -0.183386
C37   C     C_R   0.150539 0.170624 0.553477 -0.205491
C38   C     C_R   0.075532 0.573467 0.497200 -0.275105
C39   C     C_R   0.924145 0.427185 0.522695 -0.254643
C40   C     C_3   0.828708 0.815428 0.325066 -0.440493
C41   C     C_3   0.705149 0.778418 0.288894 -0.311565
C42   C     C_3   0.688155 0.809115 0.201481 -0.901598
C43   C     C_3   0.253630 0.208753 0.686668 -0.424232
C44   C     C_3   0.168930 0.210402 0.760105 -0.341105
C45   C     C_R   0.050148 0.421466 0.515612 0.017533
C46   C     C_3   0.238746 0.188908 0.838070 -0.886616
C47   C     C_3   0.946031 0.678285 0.648097 -0.452583
C48   C     C_3   0.830653 0.638093 0.692007 -0.315692
C49   C     C_3   0.866841 0.591867 0.769922 -0.896744
C50   C     C_3   0.004547 0.301037 0.382853 -0.435179
C51   C     C_3   0.862132 0.279880 0.378614 -0.334291
C52   C     C_3   0.814746 0.277507 0.291336 -0.903420
C53   C     C_3   0.899923 0.858799 0.625652 -0.426732
C54   C     C_3   0.879109 0.951056 0.607019 -0.359925
C55   C     C_3   0.894171 0.002280 0.682835 -0.897702
C56   C     C_R   0.949339 0.578488 0.501729 0.020917
C57   C     C_3   0.049204 0.120141 0.425170 -0.452492
C58   C     C_3   0.161262 0.082555 0.388788 -0.328738
C59   C     C_3   0.119706 0.007327 0.338556 -0.909453
C60   C     C_3   0.631616 0.382709 0.096100 -0.425114
C61   C     C_3   0.540848 0.304059 0.100255 -0.328852
C62   C     C_3   0.595932 0.231190 0.060893 -0.903556
C63   C     C_3   0.322757 0.606884 0.897125 -0.426125
C64   C     C_3   0.191854 0.573636 0.924446 -0.331689
C65   C     C_3   0.122567 0.642230 0.960792 -0.897011
C66   C     C_R   0.471541 0.481309 0.739442 -0.051497
C67   C     C_R   0.520219 0.517951 0.259593 -0.064787
C68   C     C_R   0.412698 0.544472 0.776217 -0.266861
H1    H     H_    0.838524 0.896235 0.465014 0.132050
H2    H     H_    0.384492 0.597729 0.740426 0.154530
H3    H     H_    0.537333 0.112861 0.607463 0.150063
H4    H     H_    0.428088 0.885317 0.402108 0.152770
H5    H     H_    0.600436 0.869399 0.638791 0.143440
H6    H     H_    0.443418 0.132429 0.353573 0.142189
H7    H     H_    0.598269 0.716893 0.626279 0.118199
H8    H     H_    0.437592 0.284236 0.365425 0.129206
H9    H     H_    0.689384 0.878297 0.197861 0.261556
H10   H     H_    0.763697 0.788897 0.163502 0.264765
H11   H     H_    0.597064 0.782479 0.177518 0.246558
H12   H     H_    0.170247 0.106490 0.566884 0.143646
H13   H     H_    0.701764 0.709115 0.290666 0.230566
H14   H     H_    0.626737 0.797539 0.324667 0.225775
H15   H     H_    0.827264 0.884517 0.325402 0.198874
H16   H     H_    0.907537 0.801577 0.286331 0.202309
H17   H     H_    0.271612 0.125274 0.835905 0.258070
H18   H     H_    0.320174 0.234820 0.847113 0.265187
H19   H     H_    0.175420 0.190692 0.890197 0.248418
H20   H     H_    0.134857 0.273489 0.764899 0.219640
H21   H     H_    0.086832 0.164486 0.752975 0.223544
H22   H     H_    0.287824 0.145492 0.683260 0.197321
H23   H     H_    0.543057 0.359560 0.755751 0.148640
H24   H     H_    0.336683 0.253782 0.694113 0.205233
H25   H     H_    0.876461 0.657323 0.368663 0.134191
H26   H     H_    0.179290 0.360010 0.638988 0.133272
H27   H     H_    0.926201 0.540768 0.756383 0.258691
H28   H     H_    0.918471 0.635569 0.811365 0.266617
H29   H     H_    0.781236 0.564242 0.800541 0.258256
H30   H     H_    0.769028 0.687202 0.707368 0.205215
H31   H     H_    0.777681 0.593097 0.652606 0.235647
H32   H     H_    0.015045 0.631225 0.642184 0.218816
H33   H     H_    0.994323 0.725527 0.687020 0.189453
H34   H     H_    0.456436 0.642205 0.245852 0.153728
H35   H     H_    0.837998 0.338734 0.259671 0.259762
H36   H     H_    0.857377 0.227805 0.258972 0.257948
H37   H     H_    0.711776 0.263999 0.290377 0.250865
H38   H     H_    0.834724 0.218987 0.409744 0.220839
H39   H     H_    0.813657 0.327970 0.409016 0.243098
H40   H     H_    0.024137 0.368999 0.369605 0.204051
H41   H     H_    0.052210 0.270778 0.334004 0.203127
H42   H     H_    0.824320 0.978569 0.728576 0.260114
H43   H     H_    0.989597 0.999215 0.708954 0.260877
H44   H     H_    0.879627 0.068566 0.667062 0.250110
H45   H     H_    0.536444 0.265431 0.613368 0.121697
H46   H     H_    0.949353 0.977100 0.562718 0.217438
H47   H     H_    0.784002 0.957196 0.581590 0.234868
H48   H     H_    0.833002 0.834108 0.672807 0.201458
H49   H     H_    0.996197 0.857712 0.650815 0.199829
H50   H     H_    0.069619 0.957727 0.376944 0.263103
H51   H     H_    0.057251 0.025950 0.288137 0.259868
H52   H     H_    0.202799 0.981686 0.312820 0.250790
H53   H     H_    0.212504 0.130714 0.349426 0.220304
H54   H     H_    0.225186 0.061795 0.437415 0.238073
H55   H     H_    0.992959 0.071214 0.460449 0.192277
H56   H     H_    0.426246 0.732432 0.395823 0.125207
H57   H     H_    0.988035 0.139278 0.374758 0.219430
H58   H     H_    0.616445 0.246931 0.996362 0.256647
H59   H     H_    0.683267 0.215879 0.092878 0.264933
H60   H     H_    0.528017 0.175430 0.064283 0.249684
H61   H     H_    0.519742 0.285780 0.164264 0.213308
H62   H     H_    0.451963 0.316744 0.068702 0.232165
H63   H     H_    0.654015 0.399170 0.031947 0.214744
H64   H     H_    0.721125 0.369659 0.126702 0.195298
H65   H     H_    0.174283 0.667140 0.014450 0.262704
H66   H     H_    0.111793 0.693845 0.915408 0.257434
H67   H     H_    0.133738 0.631370 0.488644 0.175848
H68   H     H_    0.028307 0.616314 0.979892 0.251934
H69   H     H_    0.137175 0.548820 0.871789 0.220509
H70   H     H_    0.198562 0.522097 0.970494 0.231425
H71   H     H_    0.378225 0.631922 0.949183 0.213305
H72   H     H_    0.313646 0.660200 0.853266 0.192291
H73   H     H_    0.510082 0.351683 0.902022 0.147144
H74   H     H_    0.471494 0.647353 0.098108 0.136280
H75   H     H_    0.865514 0.370461 0.536216 0.164032
H76   H     H_    0.596053 0.397823 0.254726 0.159796
N1    N     N_2   0.439414 0.472501 0.988521 -0.207263
N2    N     N_2   0.525907 0.524119 0.008549 -0.212999
N3    N     N_R   0.515300 0.716920 0.509720 -0.079344
N4    N     N_R   0.484700 0.283080 0.490280 -0.077828
N5    N     N_2   0.519640 0.979373 0.530962 -0.201848
N6    N     N_2   0.488036 0.020914 0.469694 -0.197408
O1    O     O_R   0.494530 0.422540 0.612660 -0.630166
O2    O     O_R   0.505470 0.577460 0.387340 -0.627079
O3    O     O_R   0.504350 0.561840 0.618900 -0.633638
O4    O     O_R   0.495650 0.438160 0.381100 -0.628391
O5    O     O_R   0.678330 0.430350 0.496870 -0.629996
O6    O     O_R   0.321670 0.569650 0.503130 -0.624177
O7    O     O_R   0.688150 0.569660 0.503110 -0.614759
O8    O     O_R   0.311850 0.430340 0.496890 -0.608907
Zn1   Zn    Zn3+2 0.493440 0.406980 0.495830 0.933192
Zn2   Zn    Zn3+2 0.506560 0.593020 0.504170 0.933296

loop_
_geom_bond_atom_site_label_1
_geom_bond_atom_site_label_2
_ccdc_geom_bond_type
C66   C68   A    
O2    Zn2   S    
C52   H35   S    
C34   C56   A    
C59   H52   S    
C23   C45   A    
C55   H44   S    
C27   C29   A    
C2    H76   S    
C41   C42   S    
C40   H16   S    
C30   C45   S    
C3    C68   A    
C60   H64   S    
N1    N2    D    
C64   H70   S    
C53   C54   S    
C15   C19   A    
C17   C23   S    
C47   H33   S    
C35   C37   A    
C25   C40   S    
C57   H57   S    
C62   H59   S    
C6    N2    S    
C11   C14   A    
C53   H49   S    
C33   C36   A    
C62   H60   S    
C28   H26   S    
C63   H72   S    
C12   O2    A    
C9    C66   A    
C16   C34   S    
C11   H56   S    
C47   C48   S    
C31   C33   A    
C18   N5    S    
C65   H66   S    
C53   H48   S    
C61   H61   S    
C39   C45   A    
C46   H17   S    
C55   H43   S    
C42   H11   S    
C31   C47   S    
C50   H40   S    
C40   H15   S    
C9    H23   S    
C14   H4    S    
C22   H7    S    
N3    Zn2   S    
C60   H63   S    
C12   C67   S    
C44   C46   S    
C26   C43   S    
C1    C66   S    
C64   H69   S    
C33   C53   S    
C37   H12   S    
C58   H54   S    
C43   H22   S    
C5    N1    S    
O5    Zn1   S    
C51   C52   S    
C32   C35   A    
C10   H34   S    
C4    C6    A    
C2    C67   A    
C24   N4    A    
C12   O4    A    
C5    C7    A    
C24   H8    S    
C6    C8    A    
C58   C59   S    
C10   C67   A    
C21   H6    S    
C50   H41   S    
C47   H32   S    
C34   C39   A    
C60   C61   S    
N4    Zn1   S    
O1    Zn1   S    
C2    C4    A    
C43   C44   S    
C57   H55   S    
C19   N6    S    
O6    Zn2   S    
C41   H13   S    
C54   H47   S    
C4    C60   S    
C16   O5    A    
C50   C51   S    
C38   H67   S    
C49   H27   S    
C1    O3    A    
C17   O8    A    
C32   C50   S    
C61   H62   S    
C8    C10   A    
C48   C49   S    
C39   H75   S    
C52   H37   S    
C42   H10   S    
O7    Zn2   S    
C13   C15   A    
C55   H42   S    
O8    Zn1   S    
C27   H25   S    
C7    H73   S    
C48   H30   S    
C36   H1    S    
C62   H58   S    
C46   H19   S    
C7    C9    A    
C48   H31   S    
C54   C55   S    
C52   H36   S    
C58   H53   S    
C59   H51   S    
C19   C21   A    
C16   O7    A    
C63   H71   S    
C14   C18   A    
C20   C22   A    
C22   N3    A    
C3    C5    A    
C8    H74   S    
C26   C37   A    
C29   C56   S    
C3    C63   S    
C25   C27   A    
C23   C38   A    
C15   H3    S    
C26   C28   A    
C43   H24   S    
C35   C57   S    
C64   C65   S    
O3    Zn2   S    
C28   C30   A    
O4    Zn1   S    
C29   C31   A    
N5    N6    D    
C30   C32   A    
C11   N3    A    
C57   C58   S    
C51   H38   S    
C41   H14   S    
C54   H46   S    
C20   H5    S    
C1    O1    A    
C18   C20   A    
C49   H28   S    
C61   C62   S    
C13   H45   S    
C65   H68   S    
C25   C36   A    
C49   H29   S    
C63   C64   S    
C38   C56   A    
C59   H50   S    
C42   H9    S    
C51   H39   S    
C21   C24   A    
C68   H2    S    
C40   C41   S    
C13   N4    A    
C44   H20   S    
C17   O6    A    
C65   H65   S    
C44   H21   S    
C46   H18   S    
