data_mof_unit_1415.cif
_audit_creation_date              2013-03-05T15:42:03-0500
_audit_creation_method            fapswitch 2.2
_symmetry_space_group_name_H-M    P1
_symmetry_Int_Tables_number       1
_space_group_crystal_system       triclinic
_cell_length_a                    27.210309
_cell_length_b                    8.659713
_cell_length_c                    7.474611
_cell_angle_alpha                 104.322491
_cell_angle_beta                  94.842485
_cell_angle_gamma                 92.91851
_cell_volume                      1695.72598006

loop_
_atom_site_label
_atom_site_type_symbol
_atom_site_description
_atom_site_fract_x
_atom_site_fract_y
_atom_site_fract_z
_atom_type_partial_charge
O1    O     O_R   0.503500 0.286120 0.619780 -0.534526
O2    O     O_R   0.496500 0.713880 0.380220 -0.535517
O3    O     O_R   0.494410 0.256780 0.308360 -0.607049
O4    O     O_R   0.505590 0.743220 0.691640 -0.605189
C1    C     C_R   0.498520 0.199096 0.452025 0.855598
C2    C     C_R   0.501750 0.800934 0.547965 0.852987
O5    O     O_R   0.434810 0.514700 0.655690 -0.539791
O6    O     O_R   0.565190 0.485300 0.344310 -0.524272
O7    O     O_R   0.425720 0.485350 0.344280 -0.604681
O8    O     O_R   0.574280 0.514650 0.655720 -0.599374
C3    C     C_R   0.406942 0.499723 0.501085 0.806657
C4    C     C_R   0.592729 0.501657 0.499056 0.786331
Cu1   Cu    Cu3+1 0.505380 0.517380 0.684380 1.023383
Cu2   Cu    Cu3+1 0.494620 0.482620 0.315620 1.024436
C5    C     C_R   0.162797 0.350749 0.349165 0.513900
C6    C     C_R   0.818696 0.731143 0.390834 0.521440
O9    O     O_2   0.177537 0.213697 0.383115 -0.522910
O10   O     O_2   0.795850 0.864737 0.388974 -0.609632
N1    N     N_R   0.195970 0.481377 0.382419 -0.452369
N2    N     N_R   0.791303 0.592298 0.383609 -0.424628
C7    C     C_R   0.179629 0.627559 0.378269 0.497401
C8    C     C_R   0.804847 0.457553 0.264785 0.553322
C9    C     C_R   0.272562 0.568770 0.600783 0.167683
C10   C     C_R   0.730007 0.435124 0.516610 0.185722
C11   C     C_R   0.325362 0.586997 0.626857 0.109661
C12   C     C_R   0.677996 0.399340 0.509521 0.101201
C13   C     C_R   0.327334 0.374869 0.344317 -0.256210
C14   C     C_R   0.666594 0.679446 0.526415 -0.248016
C15   C     C_R   0.276146 0.368552 0.303364 0.156935
C16   C     C_R   0.717767 0.712316 0.541924 0.159851
C17   C     C_R   0.248221 0.469376 0.430718 0.235297
C18   C     C_R   0.747058 0.582538 0.481863 0.206842
C19   C     C_R   0.094867 0.515046 0.319731 -0.107234
C20   C     C_R   0.888714 0.577842 0.302470 -0.111052
C21   C     C_R   0.112879 0.361614 0.286512 -0.048444
C22   C     C_R   0.870166 0.728383 0.375302 -0.052888
C23   C     C_R   0.080584 0.226248 0.197459 0.158561
C24   C     C_R   0.903153 0.868319 0.429234 0.156410
C25   C     C_R   0.128803 0.650512 0.378294 -0.112039
C26   C     C_R   0.855049 0.441224 0.235347 -0.116106
C27   C     C_R   0.352366 0.487412 0.495713 -0.126967
C28   C     C_R   0.646408 0.522997 0.500823 -0.099368
H1    H     H_    0.348965 0.294853 0.252724 0.175003
H2    H     H_    0.642658 0.777378 0.552176 0.147041
C29   C     C_R   0.958086 0.413279 0.215635 -0.026221
C30   C     C_R   0.025399 0.687254 0.352714 -0.016038
C31   C     C_R   0.973381 0.702916 0.348965 0.027637
C32   C     C_R   0.009943 0.395825 0.228630 0.030401
C33   C     C_R   0.940218 0.564697 0.289599 0.074402
C34   C     C_R   0.043250 0.532892 0.298613 0.075403
C35   C     C_R   0.923220 0.283863 0.131368 -0.235562
C36   C     C_R   0.060446 0.819715 0.422283 -0.248357
C37   C     C_R   0.872811 0.294825 0.143405 0.393736
C38   C     C_R   0.111016 0.802796 0.438692 0.401898
O11   O     O_2   0.769636 0.343310 0.173948 -0.558685
O12   O     O_2   0.212566 0.750616 0.382399 -0.535381
C39   C     C_R   0.029618 0.244612 0.178163 -0.217001
C40   C     C_R   0.953481 0.852764 0.405990 -0.206230
H3    H     H_    0.933720 0.169595 0.055964 0.167157
H4    H     H_    0.050300 0.939664 0.474981 0.165340
H5    H     H_    0.005826 0.137337 0.128428 0.150889
H6    H     H_    0.976847 0.960557 0.433710 0.154341
C41   C     C_2   0.498044 0.030207 0.425919 -0.356336
C42   C     C_2   0.502483 0.969866 0.574080 -0.365446
H7    H     H_    0.494031 0.955522 0.284511 0.192504
H8    H     H_    0.506475 0.044535 0.715490 0.194505
N3    N     N_2   0.486510 0.456430 0.038510 0.141859
N4    N     N_2   0.513490 0.543570 0.961490 0.143890
O13   O     O_3   0.452174 0.354778 0.923635 -0.618718
H9    H     H_    0.434916 0.299743 0.004422 0.322815
O14   O     O_3   0.547682 0.645699 0.076486 -0.611052
H10   H     H_    0.564831 0.701082 0.995768 0.329156
C43   C     C_3   0.251608 0.250708 0.127071 -0.348157
C44   C     C_3   0.284210 0.205368 0.966911 -0.881234
H11   H     H_    0.304847 0.312331 0.946085 0.268451
H12   H     H_    0.310758 0.118520 0.993803 0.248217
H13   H     H_    0.260636 0.146883 0.836587 0.268956
H14   H     H_    0.239308 0.138421 0.161759 0.252103
H15   H     H_    0.218482 0.300601 0.073052 0.200169
C45   C     C_3   0.739212 0.870444 0.669919 -0.338021
C46   C     C_3   0.719481 0.903534 0.860715 -0.823651
H16   H     H_    0.679444 0.922923 0.849984 0.239941
H17   H     H_    0.725651 0.802236 0.924669 0.268749
H18   H     H_    0.739271 0.013465 0.953073 0.291586
H19   H     H_    0.779897 0.870583 0.698350 0.237512
H20   H     H_    0.730239 0.968523 0.604521 0.227469
C47   C     C_3   0.101064 0.067021 0.109655 -0.323755
C48   C     C_3   0.067369 0.953795 0.951701 -0.866845
H21   H     H_    0.035987 0.899546 0.006758 0.248901
H22   H     H_    0.053283 0.018086 0.848639 0.263917
H23   H     H_    0.088712 0.854916 0.879935 0.255561
H24   H     H_    0.135739 0.091647 0.049470 0.214119
H25   H     H_    0.110373 0.003856 0.217835 0.272286
C49   C     C_3   0.885325 0.031408 0.522017 -0.328509
C50   C     C_3   0.925266 0.166088 0.611497 -0.878887
H26   H     H_    0.951488 0.128403 0.711977 0.254788
H27   H     H_    0.945489 0.202730 0.503916 0.255315
H28   H     H_    0.907643 0.272232 0.687800 0.257111
H29   H     H_    0.861792 0.073437 0.418139 0.232140
H30   H     H_    0.862692 0.016548 0.634534 0.238167
C51   C     C_3   0.656332 0.232513 0.506506 -0.425865
C52   C     C_3   0.666523 0.109140 0.330986 -0.787356
H31   H     H_    0.650637 0.143718 0.205897 0.263096
H32   H     H_    0.706768 0.098173 0.323387 0.274220
H33   H     H_    0.649045 0.990439 0.331089 0.240987
H34   H     H_    0.670553 0.196314 0.632288 0.202899
H35   H     H_    0.615665 0.227947 0.510360 0.198036
C53   C     C_3   0.352662 0.720930 0.781507 -0.406484
C54   C     C_3   0.370373 0.860674 0.706383 -0.803060
H36   H     H_    0.395359 0.821914 0.596586 0.242484
H37   H     H_    0.338140 0.912520 0.647827 0.265099
H38   H     H_    0.390793 0.954981 0.820599 0.238247
H39   H     H_    0.329864 0.770019 0.894571 0.210345
H40   H     H_    0.384114 0.676448 0.852956 0.234347
C55   C     C_3   0.767448 0.330394 0.583219 -0.393908
C56   C     C_3   0.803773 0.427226 0.743795 -0.807053
H41   H     H_    0.828612 0.511367 0.696320 0.237121
H42   H     H_    0.783441 0.495395 0.856897 0.272348
H43   H     H_    0.826967 0.344922 0.799701 0.275280
H44   H     H_    0.749291 0.236333 0.635835 0.222288
H45   H     H_    0.788332 0.266811 0.470290 0.218659
C57   C     C_3   0.242025 0.654767 0.752921 -0.393050
C58   C     C_3   0.245139 0.580384 0.917583 -0.828361
H46   H     H_    0.229339 0.454896 0.869803 0.267857
H47   H     H_    0.283638 0.583136 0.980352 0.256124
H48   H     H_    0.222864 0.646124 0.025169 0.281259
H49   H     H_    0.253060 0.784797 0.796497 0.214093
H50   H     H_    0.202104 0.646375 0.708077 0.206553
O15   O     O_3   0.842517 0.158152 0.065909 -0.723846
H51   H     H_    0.822207 0.138760 0.162967 0.348120
O16   O     O_3   0.141313 0.937046 0.528190 -0.677794
H52   H     H_    0.166945 0.905012 0.611338 0.342612

loop_
_geom_bond_atom_site_label_1
_geom_bond_atom_site_label_2
_geom_bond_distance
_ccdc_geom_bond_type
C40   H6    1.067767 S    
C47   C48   1.532612 S    
C41   H7    1.087430 S    
C51   H35   1.108326 S    
C51   C52   1.528927 S    
C55   H45   1.105219 S    
C13   C15   1.395947 A    
C43   C44   1.535092 S    
C50   H26   1.110936 S    
N1    C17   1.452421 S    
C46   H16   1.109948 S    
C50   H28   1.109862 S    
C58   H46   1.108045 S    
C31   C33   1.415445 A    
C56   H41   1.109924 S    
O5    C3    1.301975 A    
C38   O16   1.379553 S    
C19   C25   1.409901 A    
C44   H12   1.110608 S    
O1    C1    1.285280 A    
N1    C7    1.369509 A    
C10   C12   1.426964 A    
O13   H9    0.989847 S    
C54   H37   1.111267 S    
C12   C51   1.526443 S    
C58   H47   1.107727 S    
C25   C38   1.408699 A    
C15   C43   1.529823 S    
C29   C35   1.412208 A    
C2    C42   1.426073 S    
C55   C56   1.529065 S    
C30   C36   1.416108 A    
C57   H49   1.109853 S    
C53   C54   1.527912 S    
C1    C41   1.426078 S    
C52   H33   1.110614 S    
C37   O15   1.377202 S    
C53   H40   1.106433 S    
O4    Cu1   1.942698 S    
C4    C28   1.461451 S    
C36   H4    1.074917 S    
C24   C40   1.403948 A    
C44   H13   1.110967 S    
C45   H20   1.107390 S    
Cu2   N3    2.018834 S    
C29   C33   1.418798 A    
C6    N2    1.368930 A    
C16   C45   1.518919 S    
C32   C34   1.416722 A    
Cu1   Cu2   2.686634 S    
O2    C2    1.285280 A    
C5    C21   1.414408 A    
C46   H17   1.111354 S    
C36   C38   1.389575 A    
C9    C57   1.530276 S    
C44   H11   1.109336 S    
N3    N4    1.292163 D    
C32   C39   1.415875 A    
O4    C2    1.290703 A    
C54   H38   1.110522 S    
C11   C27   1.418577 A    
C58   H48   1.108622 S    
C19   C34   1.420639 A    
C43   H14   1.109507 S    
C14   H2    1.084944 S    
N3    O13   1.338613 S    
C9    C17   1.433135 A    
C53   H39   1.103348 S    
C5    N1    1.369376 A    
O7    Cu2   1.905545 S    
C10   C18   1.427031 A    
C45   H19   1.109386 S    
C13   C27   1.396766 A    
C7    C25   1.407209 A    
C48   H23   1.110945 S    
C49   H30   1.111782 S    
O6    C4    1.296627 A    
C8    C26   1.410449 A    
C24   C49   1.533904 S    
C43   H15   1.107550 S    
C49   C50   1.533284 S    
C52   H32   1.109005 S    
O7    C3    1.298340 A    
O3    Cu2   1.942698 S    
O8    C4    1.294493 A    
C48   H22   1.111018 S    
C26   C37   1.414412 A    
C20   C26   1.417360 A    
C35   H3    1.076336 S    
O16   H52   0.990698 S    
C46   H18   1.110266 S    
C12   C28   1.417191 A    
O15   H51   0.989162 S    
N2    C18   1.471588 S    
C29   C32   1.424494 A    
C51   H34   1.108452 S    
C5    O9    1.346896 S    
C30   C31   1.427358 A    
C20   C33   1.421202 A    
O6    Cu2   1.912404 S    
C14   C28   1.397149 A    
C21   C23   1.414100 A    
C23   C47   1.528004 S    
N2    C8    1.368397 A    
C45   C46   1.531977 S    
O3    C1    1.290725 A    
O8    Cu1   1.905548 S    
C7    O12   1.349637 S    
C50   H27   1.110530 S    
C39   H5    1.071247 S    
C8    O11   1.348708 S    
C30   C34   1.420610 A    
C56   H43   1.108859 S    
C22   C24   1.422366 A    
O14   H10   0.989789 S    
C15   C17   1.422781 A    
C54   H36   1.108864 S    
C6    C22   1.415983 A    
C31   C40   1.412666 A    
C16   C18   1.414832 A    
C49   H29   1.106798 S    
N4    O14   1.338528 S    
C47   H25   1.102520 S    
C14   C16   1.396214 A    
C19   C21   1.410986 A    
C56   H42   1.111093 S    
C3    C27   1.479870 S    
C20   C22   1.418740 A    
C9    C11   1.428786 A    
C57   H50   1.102746 S    
C52   H31   1.110937 S    
O2    Cu2   1.937351 S    
C41   C42   1.335744 D    
C13   H1    1.081720 S    
O5    Cu1   1.912404 S    
O1    Cu1   1.937350 S    
C48   H21   1.110551 S    
C10   C55   1.529773 S    
C6    O10   1.343408 S    
C55   H44   1.101161 S    
C35   C37   1.388658 A    
C57   C58   1.522205 S    
C47   H24   1.112075 S    
C23   C39   1.403336 A    
C11   C53   1.528778 S    
C42   H8    1.087402 S    
Cu1   N4    2.018833 S    
