data_mof_unit_952.cif
_audit_creation_date              2012-10-26T20:07:44-0400
_audit_creation_method            fapswitch 2.2
_symmetry_space_group_name_H-M    P1
_symmetry_Int_Tables_number       1
_space_group_crystal_system       triclinic
_cell_length_a                    9.624934
_cell_length_b                    10.87269
_cell_length_c                    17.083384
_cell_angle_alpha                 87.609175
_cell_angle_beta                  94.726443
_cell_angle_gamma                 89.280722
_cell_volume                      1779.89794152

loop_
_atom_site_label
_atom_site_type_symbol
_atom_type_description
_atom_site_fract_x
_atom_site_fract_y
_atom_site_fract_z
_atom_type_partial_charge
C1    C     C_R   0.501219 0.262388 0.500853 0.551708
C2    C     C_R   0.063316 0.564744 0.442779 0.185181
C3    C     C_R   0.518539 0.499771 0.650699 0.556762
C4    C     C_R   0.481461 0.500229 0.349301 0.556762
C5    C     C_R   0.531185 0.502856 0.736778 0.034371
C6    C     C_R   0.468816 0.497143 0.263222 0.034373
C7    C     C_R   0.433664 0.439495 0.778917 -0.193837
C8    C     C_R   0.566331 0.560513 0.221084 -0.193835
C9    C     C_R   0.438950 0.443130 0.860249 -0.104701
C10   C     C_R   0.561046 0.556878 0.139751 -0.104701
C11   C     C_R   0.543513 0.510261 0.901406 0.199572
C12   C     C_R   0.498781 0.737612 0.499150 0.551725
C13   C     C_R   0.456491 0.489739 0.098594 0.199573
C14   C     C_R   0.643984 0.569945 0.859868 -0.101303
C15   C     C_R   0.356026 0.430046 0.140133 -0.101302
C16   C     C_R   0.638324 0.568283 0.777733 0.105923
C17   C     C_R   0.361685 0.431707 0.222267 0.105922
C18   C     C_R   0.379333 0.069066 0.477768 -0.177009
C19   C     C_R   0.620660 0.930933 0.522248 -0.176989
C20   C     C_3   0.691794 0.757536 0.709351 -0.283676
C21   C     C_3   0.308248 0.242458 0.290664 -0.283670
C22   C     C_3   0.156554 0.227667 0.605224 -0.275481
C23   C     C_R   0.374436 0.941639 0.477114 0.078535
C24   C     C_3   0.843459 0.772331 0.394773 -0.275520
C25   C     C_R   0.625559 0.058360 0.522898 0.078535
C26   C     C_R   0.496728 0.871650 0.499272 0.030803
C27   C     C_R   0.503269 0.128349 0.500738 0.030788
C28   C     C_R   0.084162 0.432318 0.555554 0.271527
C29   C     C_R   0.915838 0.567682 0.444445 0.271517
C30   C     C_R   0.936684 0.435254 0.557220 0.185182
Cu1   Cu    Cu3+1 0.640660 0.500020 0.500000 0.970240
Cu2   Cu    Cu3+1 0.359340 0.499980 0.500000 0.970239
H1    H     H_    0.646027 0.614424 0.251016 0.124204
H2    H     H_    0.773443 0.801446 0.675957 0.132288
H3    H     H_    0.672949 0.814922 0.759891 0.130483
H4    H     H_    0.594451 0.753427 0.669934 0.161248
H5    H     H_    0.164327 0.364239 0.232874 0.238682
H6    H     H_    0.226599 0.198536 0.324052 0.132288
H7    H     H_    0.405574 0.246594 0.330091 0.161259
H8    H     H_    0.327131 0.185068 0.240133 0.130486
H9    H     H_    0.170639 0.911772 0.490080 0.222254
H10   H     H_    0.213073 0.918522 0.395909 0.215080
H11   H     H_    0.829358 0.088222 0.509933 0.222256
H12   H     H_    0.353962 0.385590 0.748985 0.124203
H13   H     H_    0.786920 0.081481 0.604104 0.215089
H14   H     H_    0.153023 0.384583 0.669599 0.233854
H15   H     H_    0.256321 0.182805 0.628941 0.142166
H16   H     H_    0.135634 0.204521 0.542701 0.144431
H17   H     H_    0.071445 0.190224 0.638891 0.139778
H18   H     H_    0.846978 0.615416 0.330401 0.233861
H19   H     H_    0.743755 0.817218 0.370963 0.142108
H20   H     H_    0.928693 0.809743 0.361187 0.139838
H21   H     H_    0.864208 0.795477 0.457308 0.144482
H22   H     H_    0.791897 0.326126 0.605660 0.301717
H23   H     H_    0.638795 0.606694 0.109442 0.140488
H24   H     H_    0.860632 0.438845 0.664008 0.257470
H25   H     H_    0.208100 0.673872 0.394336 0.301710
H26   H     H_    0.139372 0.561144 0.335991 0.257485
H27   H     H_    0.361196 0.393321 0.890558 0.140488
H28   H     H_    0.724806 0.621217 0.891491 0.111471
H29   H     H_    0.275210 0.378767 0.108509 0.111469
H30   H     H_    0.285426 0.121524 0.458978 0.117003
H31   H     H_    0.714562 0.878475 0.541047 0.116975
H32   H     H_    0.835698 0.635714 0.767120 0.238677
N1    N     N_2   0.551343 0.520802 0.984122 -0.250551
N2    N     N_2   0.833596 0.640529 0.386827 -0.444227
N3    N     N_3   0.881001 0.373800 0.623058 -0.646579
N4    N     N_3   0.119000 0.626191 0.376939 -0.646609
N5    N     N_2   0.448661 0.479198 0.015879 -0.250553
N6    N     N_R   0.852070 0.500030 0.499980 -0.231831
N7    N     N_R   0.147930 0.499970 0.500020 -0.231825
N8    N     N_2   0.738264 0.635207 0.737026 -0.508857
N9    N     N_2   0.261752 0.364772 0.262974 -0.508865
N10   N     N_3   0.245410 0.884911 0.452836 -0.622470
N11   N     N_3   0.754585 0.115087 0.547176 -0.622467
N12   N     N_2   0.166402 0.359471 0.613173 -0.444232
O1    O     O_R   0.618740 0.319660 0.500000 -0.480563
O2    O     O_R   0.381260 0.680340 0.500000 -0.480561
O3    O     O_R   0.381170 0.319630 0.500010 -0.496590
O4    O     O_R   0.618830 0.680370 0.499990 -0.496586
O5    O     O_R   0.631780 0.498870 0.613920 -0.494429
O6    O     O_R   0.368220 0.501130 0.386080 -0.494430
O7    O     O_R   0.394210 0.498840 0.613930 -0.485142
O8    O     O_R   0.605790 0.501160 0.386070 -0.485136

loop_
_geom_bond_atom_site_label_1
_geom_bond_atom_site_label_2
_ccdc_geom_bond_type
C24   H20   S    
C22   H16   S    
C1    O1    A    
C16   N8    S    
C22   N12   S    
H14   N12   S    
Cu1   O4    S    
C2    C29   A    
C2    N4    S    
C4    O8    A    
C11   C14   A    
C21   N9    S    
C15   C17   A    
C23   C26   A    
C6    C17   A    
C19   C26   A    
C5    C16   A    
H9    N10   S    
C20   H3    S    
Cu1   N6    S    
C21   H6    S    
C19   H31   S    
C12   O2    A    
C3    O5    A    
C30   N3    S    
C24   N2    S    
C20   H2    S    
C24   H19   S    
C22   H15   S    
C17   N9    S    
C30   N6    A    
Cu1   O1    S    
Cu2   N7    S    
H11   N11   S    
H10   N10   S    
C18   C23   A    
C4    C6    S    
C5    C7    A    
C18   H30   S    
C6    C8    A    
H22   N3    S    
C24   H21   S    
Cu1   O8    S    
C12   C26   S    
C9    H27   S    
C9    C11   A    
Cu1   Cu2   S    
C21   H7    S    
C15   H29   S    
C7    H12   S    
C10   H23   S    
H18   N2    S    
C22   H17   S    
H26   N4    S    
C13   C15   A    
C3    O7    A    
C1    O3    A    
C14   C16   A    
C28   N7    A    
C23   N10   S    
C2    N7    A    
C28   N12   S    
Cu2   O6    S    
C29   N6    A    
C7    C9    A    
Cu2   O7    S    
H5    N9    S    
C18   C27   A    
C3    C5    S    
C10   C13   A    
C25   C27   A    
H24   N3    S    
C14   H28   S    
Cu1   O5    S    
H13   N11   S    
C28   C30   A    
Cu2   O3    S    
C21   H8    S    
C13   N5    S    
N1    N5    D    
C12   O4    A    
C8    H1    S    
H32   N8    S    
C19   C25   A    
Cu2   O2    S    
C29   N2    S    
C20   H4    S    
C4    O6    A    
C8    C10   A    
C1    C27   S    
C20   N8    S    
H25   N4    S    
C25   N11   S    
C11   N1    S    
