data_mof_unit_2503.cif
_audit_creation_date              2012-12-10T18:03:35-0500
_audit_creation_method            fapswitch 2.2
_symmetry_space_group_name_H-M    P1
_symmetry_Int_Tables_number       1
_space_group_crystal_system       triclinic
_cell_length_a                    10.728876
_cell_length_b                    9.59283
_cell_length_c                    19.480591
_cell_angle_alpha                 89.923823
_cell_angle_beta                  91.363264
_cell_angle_gamma                 89.929659
_cell_volume                      2004.37708597

loop_
_atom_site_label
_atom_site_type_symbol
_atom_type_description
_atom_site_fract_x
_atom_site_fract_y
_atom_site_fract_z
_atom_type_partial_charge
C1    C     C_R   0.870927 0.499468 0.499181 -0.158573
C2    C     C_R   0.128403 0.504016 0.497625 -0.153982
C3    C     C_R   0.610839 0.513891 0.963581 0.174405
C4    C     C_R   0.387221 0.514541 0.037475 0.178362
C5    C     C_R   0.615735 0.509517 0.035878 0.178835
C6    C     C_R   0.382326 0.509965 0.965203 0.179153
C7    C     C_R   0.503876 0.510461 0.072402 0.116213
C8    C     C_R   0.494193 0.510750 0.928669 0.119427
C9    C     C_R   0.262618 0.500614 0.498794 0.900676
C10   C     C_R   0.737121 0.499877 0.499480 0.910467
C11   C     C_R   0.502080 0.499915 0.367793 0.935108
C12   C     C_R   0.496785 0.499946 0.632441 0.919338
C13   C     C_R   0.061838 0.459882 0.438509 0.134169
C14   C     C_R   0.937263 0.548105 0.557331 0.138769
C15   C     C_R   0.931331 0.457108 0.439500 0.126862
C16   C     C_R   0.067378 0.554740 0.555534 0.119621
C17   C     C_R   0.525493 0.380481 0.746870 0.214715
C18   C     C_R   0.560428 0.613842 0.257803 0.202970
C19   C     C_R   0.461217 0.384082 0.254270 0.215045
C20   C     C_R   0.447603 0.620446 0.743256 0.219668
C21   C     C_R   0.532185 0.386788 0.819319 0.266577
C22   C     C_R   0.555870 0.619135 0.185289 0.264788
C23   C     C_R   0.460764 0.387907 0.181758 0.264710
C24   C     C_R   0.442623 0.620461 0.815759 0.259187
C25   C     C_R   0.489617 0.506095 0.852954 0.034892
C26   C     C_R   0.508760 0.504899 0.148113 0.035551
C27   C     C_R   0.409159 0.073371 0.464814 0.262415
C28   C     C_R   0.584788 0.924709 0.539572 0.258269
C29   C     C_R   0.590484 0.073913 0.535728 0.262638
C30   C     C_R   0.417187 0.924889 0.459440 0.256281
C31   C     C_R   0.490163 0.500273 0.708631 -0.204373
C32   C     C_R   0.506387 0.499917 0.292048 -0.206257
Cu1   Cu    Cu3+1 0.500000 0.640660 0.500000 1.012019
Cu2   Cu    Cu3+1 0.500000 0.359340 0.500000 1.011739
N1    N     N_R   0.500000 0.852070 0.500000 -0.213574
N2    N     N_R   0.500000 0.147930 0.500000 -0.217618
O1    O     O_R   0.319640 0.618740 0.500000 -0.589158
O2    O     O_R   0.680360 0.381260 0.500000 -0.561254
O3    O     O_R   0.680360 0.618740 0.500000 -0.569238
O4    O     O_R   0.319640 0.381260 0.500000 -0.549295
O5    O     O_R   0.500020 0.618830 0.400190 -0.525182
O6    O     O_R   0.499980 0.381170 0.599810 -0.543996
O7    O     O_R   0.499980 0.618830 0.599810 -0.514948
O8    O     O_R   0.500020 0.381170 0.400190 -0.535448
N3    N     N_2   0.301823 0.143081 0.437961 -0.333556
H1    H     H_    0.286283 0.130526 0.386062 0.278155
C33   C     C_3   0.190589 0.121239 0.477689 -0.680957
H2    H     H_    0.207256 0.152949 0.531970 0.240746
H3    H     H_    0.160989 0.010897 0.476758 0.181560
H4    H     H_    0.112481 0.183716 0.455907 0.226246
N4    N     N_2   0.671110 0.849075 0.581785 -0.355142
H5    H     H_    0.759552 0.840808 0.562729 0.254079
C34   C     C_3   0.666575 0.870929 0.655264 -0.620630
H6    H     H_    0.665565 0.768436 0.681603 0.250103
H7    H     H_    0.582335 0.930695 0.669587 0.225724
H8    H     H_    0.750686 0.928233 0.673708 0.185130
N5    N     N_2   0.688241 0.146970 0.570625 -0.356670
H9    H     H_    0.679902 0.152472 0.622979 0.288823
C35   C     C_3   0.814353 0.119450 0.548832 -0.716413
H10   H     H_    0.865505 0.055604 0.587839 0.202718
H11   H     H_    0.865298 0.219133 0.543812 0.245066
H12   H     H_    0.815145 0.064328 0.498700 0.213966
N6    N     N_2   0.338854 0.850409 0.412391 -0.385900
H13   H     H_    0.248715 0.832674 0.426995 0.238837
C36   C     C_3   0.354446 0.877455 0.339848 -0.643184
H14   H     H_    0.272783 0.935619 0.318539 0.189073
H15   H     H_    0.359762 0.777167 0.311960 0.242930
H16   H     H_    0.441067 0.937309 0.330294 0.242481
N7    N     N_2   0.126567 0.418050 0.378740 -0.403801
H17   H     H_    0.084598 0.338785 0.351077 0.271651
C37   C     C_3   0.165293 0.531841 0.335473 -0.690500
H18   H     H_    0.083094 0.591848 0.316098 0.212781
H19   H     H_    0.215841 0.490074 0.290901 0.239855
H20   H     H_    0.228849 0.602264 0.364477 0.236228
N8    N     N_2   0.872115 0.593565 0.616305 -0.433316
H21   H     H_    0.910849 0.678172 0.641344 0.265164
C38   C     C_3   0.838247 0.483110 0.662895 -0.689739
H22   H     H_    0.923210 0.431678 0.684676 0.218663
H23   H     H_    0.779284 0.404406 0.636035 0.256200
H24   H     H_    0.784089 0.527279 0.705618 0.221461
N9    N     N_2   0.859598 0.422343 0.379344 -0.428568
H25   H     H_    0.886105 0.473037 0.335342 0.263769
C39   C     C_3   0.833379 0.275520 0.369276 -0.669012
H26   H     H_    0.865789 0.241511 0.318191 0.203594
H27   H     H_    0.731335 0.258150 0.371233 0.264849
H28   H     H_    0.880804 0.209726 0.408893 0.216691
N10   N     N_2   0.137941 0.613006 0.611353 -0.420254
H29   H     H_    0.114598 0.576810 0.659223 0.258379
C40   C     C_3   0.154709 0.763040 0.608167 -0.608114
H30   H     H_    0.117507 0.812925 0.654888 0.196652
H31   H     H_    0.106587 0.809900 0.562426 0.195535
H32   H     H_    0.255396 0.787250 0.605249 0.286749
O9    O     O_3   0.553080 0.258906 0.712693 -0.749915
H33   H     H_    0.530685 0.178348 0.741769 0.328161
O10   O     O_3   0.620829 0.715447 0.296255 -0.718246
H34   H     H_    0.687425 0.757319 0.268582 0.332410
O11   O     O_3   0.417962 0.269122 0.289154 -0.728652
H35   H     H_    0.436460 0.184262 0.262323 0.324479
O12   O     O_3   0.409766 0.735165 0.705250 -0.728879
H36   H     H_    0.419707 0.820315 0.733456 0.326514
O13   O     O_3   0.578825 0.277836 0.858747 -0.722737
H37   H     H_    0.641690 0.226902 0.832036 0.337189
O14   O     O_3   0.592358 0.735835 0.149273 -0.722417
H38   H     H_    0.581502 0.819192 0.178488 0.332038
O15   O     O_3   0.411984 0.280642 0.142197 -0.724689
H39   H     H_    0.343417 0.236017 0.167279 0.335650
O16   O     O_3   0.394731 0.731467 0.851775 -0.723737
H40   H     H_    0.323689 0.771039 0.824785 0.334811
N11   N     N_2   0.722468 0.516222 0.925206 -0.411134
H41   H     H_    0.795162 0.458001 0.945599 0.262688
C41   C     C_3   0.760503 0.653404 0.903069 -0.698700
H42   H     H_    0.843537 0.644041 0.870425 0.221274
H43   H     H_    0.784824 0.719511 0.948203 0.230590
H44   H     H_    0.684934 0.704499 0.872287 0.252041
N12   N     N_2   0.275567 0.518391 0.075807 -0.410982
H45   H     H_    0.202471 0.460854 0.055603 0.263082
C42   C     C_3   0.238492 0.656124 0.097587 -0.700791
H46   H     H_    0.155317 0.647920 0.130193 0.223322
H47   H     H_    0.214773 0.722291 0.052272 0.230284
H48   H     H_    0.314361 0.706423 0.128311 0.248917
N13   N     N_2   0.732434 0.507213 0.072539 -0.398522
H49   H     H_    0.801438 0.567149 0.051471 0.263996
C43   C     C_3   0.775231 0.369703 0.092670 -0.684158
H50   H     H_    0.862793 0.378908 0.123871 0.221425
H51   H     H_    0.793736 0.305526 0.046584 0.225349
H52   H     H_    0.704823 0.316482 0.124260 0.251621
N14   N     N_2   0.265610 0.507484 0.928583 -0.408584
H53   H     H_    0.196733 0.568223 0.949292 0.262180
C44   C     C_3   0.222615 0.369762 0.909371 -0.685288
H54   H     H_    0.134982 0.378702 0.878186 0.220452
H55   H     H_    0.204165 0.306618 0.955873 0.226607
H56   H     H_    0.292907 0.315602 0.878080 0.254273

loop_
_geom_bond_atom_site_label_1
_geom_bond_atom_site_label_2
_ccdc_geom_bond_type
N10   H29   S    
N6    C36   S    
O9    H33   S    
C8    C25   S    
C4    N12   S    
O10   H34   S    
Cu2   O6    S    
O11   H35   S    
C19   O11   S    
C43   H50   S    
C33   H3    S    
C38   H22   S    
C29   N2    A    
Cu1   O3    S    
C7    C26   S    
C30   N1    A    
Cu2   O4    S    
C28   C29   A    
C6    N14   S    
C12   O7    A    
C42   H47   S    
C28   N4    S    
N5    C35   S    
N12   H45   S    
C23   O15   S    
C5    N13   S    
C23   C26   A    
N7    C37   S    
C2    C13   A    
C12   O6    A    
C20   C24   A    
C28   N1    A    
C36   H15   S    
C16   N10   S    
O16   H40   S    
C1    C15   A    
C40   H31   S    
C2    C16   A    
C44   H56   S    
C21   O13   S    
C27   N3    S    
C38   H23   S    
C35   H10   S    
Cu2   O2    S    
C30   N6    S    
C27   C30   A    
C18   O10   S    
C4    C7    A    
C19   C32   A    
N9    C39   S    
N9    H25   S    
C33   H4    S    
N3    C33   S    
C35   H11   S    
N4    H5    S    
Cu1   O7    S    
O13   H37   S    
C15   N9    S    
Cu2   O8    S    
C24   C25   A    
C4    C6    A    
C3    C8    A    
C42   H48   S    
C37   H19   S    
C43   H52   S    
C6    C8    A    
N12   C42   S    
N3    H1    S    
C9    O4    A    
Cu1   O1    S    
C22   O14   S    
C10   O3    A    
N4    C34   S    
C19   C23   A    
N8    H21   S    
N14   C44   S    
C39   H26   S    
C36   H16   S    
C9    O1    A    
Cu1   Cu2   S    
C11   O8    A    
C41   H43   S    
C24   O16   S    
C40   H32   S    
N8    C38   S    
N13   H49   S    
C39   H27   S    
C29   N5    S    
C11   C32   S    
C13   C15   A    
C12   C31   S    
C17   C31   A    
C14   C16   A    
C17   O9    S    
C34   H7    S    
N14   H53   S    
C3    C5    A    
C5    C7    A    
C44   H54   S    
C34   H8    S    
C21   C25   A    
C35   H12   S    
C41   H42   S    
C18   C22   A    
C1    C10   S    
C33   H2    S    
C37   H20   S    
C34   H6    S    
C27   N2    A    
O15   H39   S    
O12   H36   S    
C10   O2    A    
Cu1   O5    S    
C14   N8    S    
N11   C41   S    
C37   H18   S    
N11   H41   S    
C38   H24   S    
N5    H9    S    
C20   O12   S    
C13   N7    S    
C3    N11   S    
Cu1   N1    S    
C11   O5    A    
C41   H44   S    
Cu2   N2    S    
N7    H17   S    
C17   C21   A    
N13   C43   S    
C43   H51   S    
N6    H13   S    
C39   H28   S    
C18   C32   A    
C36   H14   S    
C22   C26   A    
O14   H38   S    
N10   C40   S    
C1    C14   A    
C40   H30   S    
C42   H46   S    
C2    C9    S    
C44   H55   S    
C20   C31   A    
