data_mof_unit_3505.cif
_audit_creation_date              2012-12-10T18:11:43-0500
_audit_creation_method            fapswitch 2.2
_symmetry_space_group_name_H-M    P1
_symmetry_Int_Tables_number       1
_space_group_crystal_system       triclinic
_cell_length_a                    10.49583
_cell_length_b                    12.646706
_cell_length_c                    13.130629
_cell_angle_alpha                 82.370044
_cell_angle_beta                  90.575098
_cell_angle_gamma                 102.905364
_cell_volume                      1683.51448278

loop_
_atom_site_label
_atom_site_type_symbol
_atom_type_description
_atom_site_fract_x
_atom_site_fract_y
_atom_site_fract_z
_atom_type_partial_charge
C1    C     C_R   0.480177 0.438855 0.691101 0.844357
C2    C     C_3   0.063778 0.579074 0.427018 -0.247552
C3    C     C_3   0.988415 0.599172 0.520623 -0.204731
C4    C     C_3   0.878155 0.502668 0.500900 -0.099991
C5    C     C_R   0.403653 0.698934 0.064867 -0.181255
C6    C     C_R   0.500262 0.595931 0.200304 -0.042938
C7    C     C_R   0.499685 0.300959 0.838111 -0.177833
C8    C     C_R   0.511130 0.272457 0.942968 -0.133072
C9    C     C_R   0.497082 0.345323 0.010376 -0.178278
C10   C     C_R   0.464814 0.446539 0.973595 0.086139
C11   C     C_R   0.432974 0.466702 0.869522 0.086403
C12   C     C_R   0.742388 0.501095 0.500266 0.921277
C13   C     C_R   0.463234 0.528536 0.036543 0.074882
C14   C     C_R   0.409277 0.619744 0.000582 0.174395
C15   C     C_R   0.360110 0.629495 0.901739 -0.239241
C16   C     C_R   0.371993 0.554062 0.836720 -0.195622
C17   C     C_R   0.516691 0.523272 0.133834 -0.224285
C18   C     C_R   0.446908 0.685938 0.165513 -0.202052
C19   C     C_R   0.464941 0.399618 0.800691 -0.119399
C20   C     C_R   0.316667 0.084751 0.350531 -0.334208
C21   C     C_R   0.651659 0.797422 0.631709 -0.088376
C22   C     C_R   0.679589 0.899192 0.665340 -0.305150
C23   C     C_R   0.512703 0.560913 0.308851 0.883552
C24   C     C_R   0.620960 0.981335 0.619095 0.611567
C25   C     C_R   0.534981 0.962090 0.535573 -0.121433
C26   C     C_R   0.507909 0.855029 0.506166 0.167841
C27   C     C_R   0.472881 0.041725 0.480964 0.008783
C28   C     C_R   0.381551 0.010042 0.403593 0.179898
C29   C     C_R   0.356143 0.904245 0.378442 -0.279648
C30   C     C_R   0.419843 0.828631 0.428043 -0.167009
C31   C     C_R   0.498030 0.152240 0.497534 -0.024750
C32   C     C_R   0.343073 0.191291 0.372831 0.120423
C33   C     C_R   0.257679 0.498980 0.499601 0.877188
C34   C     C_3   0.936974 0.421397 0.572791 -0.245784
C35   C     C_3   0.049663 0.517869 0.592657 -0.140646
C36   C     C_3   0.122080 0.497572 0.499131 -0.060012
C37   C     C_3   0.012169 0.400815 0.479320 -0.192106
C38   C     C_3   0.951844 0.482675 0.408868 0.683730
H1    H     H_    0.094594 0.531903 0.668018 0.142097
H2    H     H_    0.567733 0.460264 0.161675 0.166570
H3    H     H_    0.521995 0.247489 0.786152 0.190142
H4    H     H_    0.508692 0.319230 0.090886 0.141534
H5    H     H_    0.536490 0.195705 0.971806 0.156281
H6    H     H_    0.331425 0.564116 0.760912 0.166108
H7    H     H_    0.287527 0.879934 0.318970 0.148670
H8    H     H_    0.246343 0.060339 0.292104 0.151321
H9    H     H_    0.569643 0.186878 0.549589 0.218504
H10   H     H_    0.695974 0.733197 0.668545 0.171977
H11   H     H_    0.880980 0.357911 0.632336 0.182666
H12   H     H_    0.745165 0.913903 0.728677 0.183507
H13   H     H_    0.397882 0.749350 0.403923 0.203360
H14   H     H_    0.025388 0.320480 0.461528 0.170343
H15   H     H_    0.119528 0.642185 0.367036 0.145728
H16   H     H_    0.974936 0.679668 0.537749 0.170203
H17   H     H_    0.432834 0.742656 0.216990 0.146352
H18   H     H_    0.314779 0.696617 0.873936 0.152076
H19   H     H_    0.361365 0.768236 0.038617 0.140099
N1    N     N_R   0.432930 0.222190 0.444670 -0.140087
N2    N     N_R   0.566370 0.776980 0.554790 -0.123942
O1    O     O_R   0.467970 0.366730 0.627150 -0.614944
O2    O     O_R   0.510820 0.544830 0.662520 -0.617332
O3    O     O_R   0.664630 0.410960 0.482340 -0.598193
O4    O     O_R   0.707470 0.589060 0.517710 -0.625254
O5    O     O_R   0.489180 0.455170 0.337480 -0.605192
O6    O     O_R   0.532030 0.633270 0.372850 -0.637580
O7    O     O_R   0.292530 0.410940 0.482290 -0.617504
O8    O     O_R   0.335370 0.589040 0.517660 -0.641773
Zn1   Zn    Zn3+2 0.471390 0.381080 0.476380 0.974063
Zn2   Zn    Zn3+2 0.528610 0.618920 0.523620 0.932261
C39   C     C_1   0.275695 0.268266 0.318508 0.222170
N3    N     N_1   0.221173 0.329748 0.274398 -0.188568
F1    F     F_    0.646465 0.075608 0.661296 -0.713019
F2    F     F_    0.896616 0.465109 0.314789 -0.667708

loop_
_geom_bond_atom_site_label_1
_geom_bond_atom_site_label_2
_ccdc_geom_bond_type
O7    Zn1   S    
C30   H13   S    
C34   C37   S    
C35   C36   S    
C8    H5    S    
C32   N1    A    
C7    C8    A    
C11   C19   A    
C9    H4    S    
C29   C30   A    
O5    Zn1   S    
C31   N1    A    
C28   C29   A    
C21   N2    A    
C3    H16   S    
O2    Zn2   S    
C15   C16   A    
C33   C36   S    
C34   C35   S    
O4    Zn2   S    
C8    C9    A    
C39   N3    T    
C4    C12   S    
C9    C10   A    
C16   H6    S    
C22   H12   S    
C21   H10   S    
C31   H9    S    
C21   C22   A    
C33   O7    A    
C24   F1    S    
C6    C18   A    
C4    C34   S    
C1    C19   S    
C27   C31   A    
C24   C25   A    
C1    O1    A    
C37   H14   S    
C32   C39   S    
C5    C18   A    
C20   C28   A    
C25   C26   A    
C2    H15   S    
C29   H7    S    
O8    Zn2   S    
C17   H2    S    
C35   H1    S    
C37   C38   S    
C12   O3    A    
C11   C16   A    
C2    C38   S    
C3    C35   S    
C5    C14   A    
C18   H17   S    
N2    Zn2   S    
N1    Zn1   S    
C23   O5    A    
C4    C38   S    
C26   C30   A    
C7    C19   A    
C22   C24   A    
C3    C4    S    
C33   O8    A    
C20   C32   A    
C2    C36   S    
C12   O4    A    
C6    C17   A    
C36   C37   S    
C34   H11   S    
C10   C13   A    
C1    O2    A    
C5    H19   S    
C25   C27   A    
C13   C17   A    
C15   H18   S    
C23   O6    A    
C2    C3    S    
O6    Zn2   S    
C6    C23   S    
O3    Zn1   S    
C7    H3    S    
C10   C11   A    
O1    Zn1   S    
C27   C28   A    
C14   C15   A    
C26   N2    A    
C13   C14   A    
C20   H8    S    
C38   F2    S    
