data_mof_unit_1963.cif
_audit_creation_date              2012-12-11T16:24:00-0500
_audit_creation_method            fapswitch 2.2
_symmetry_space_group_name_H-M    P1
_symmetry_Int_Tables_number       1
_space_group_crystal_system       triclinic
_cell_length_a                    14.754772
_cell_length_b                    14.765061
_cell_length_c                    33.261489
_cell_angle_alpha                 95.97948
_cell_angle_beta                  96.226682
_cell_angle_gamma                 61.208378
_cell_volume                      6301.70060732

loop_
_atom_site_label
_atom_site_type_symbol
_atom_type_description
_atom_site_fract_x
_atom_site_fract_y
_atom_site_fract_z
_atom_type_partial_charge
C1    C     C_R   0.391234 0.698785 0.445806 0.545830
C2    C     C_R   0.331873 0.351621 0.308241 0.051430
C3    C     C_R   0.410954 0.267250 0.328156 -0.141800
C4    C     C_R   0.430197 0.275266 0.369984 -0.134365
C5    C     C_R   0.396704 0.254551 0.165237 -0.103038
C6    C     C_R   0.386592 0.235571 0.123497 -0.114458
C7    C     C_R   0.211000 0.378359 0.121570 -0.125900
C8    C     C_R   0.221341 0.397063 0.163347 -0.095869
C9    C     C_R   0.312994 0.333092 0.185275 0.037311
C10   C     C_1   0.318293 0.341910 0.228556 0.019607
C11   C     C_1   0.323347 0.346700 0.264894 0.045193
C12   C     C_R   0.405860 0.386591 0.433959 0.546930
C13   C     C_R   0.292220 0.294836 0.101504 0.016635
C14   C     C_R   0.755264 0.374240 0.409902 0.020932
C15   C     C_R   0.783742 0.438601 0.392411 -0.125485
C16   C     C_R   0.811013 0.418448 0.352461 -0.112178
C17   C     C_R   0.811004 0.333228 0.329419 0.034586
C18   C     C_R   0.792281 0.263362 0.348068 -0.116729
C19   C     C_R   0.764379 0.283838 0.388039 -0.128886
C20   C     C_R   0.829175 0.309680 0.203928 0.343666
C21   C     C_R   0.821058 0.323094 0.285471 0.345289
C22   C     C_R   0.813687 0.388976 0.139290 -0.089753
C23   C     C_R   0.700607 0.410145 0.447495 0.547062
C24   C     C_R   0.844147 0.380618 0.100010 -0.012463
C25   C     C_R   0.925384 0.192885 0.101457 -0.141781
C26   C     C_R   0.894098 0.202504 0.140292 -0.125101
C27   C     C_R   0.842835 0.300320 0.160276 0.019457
C28   C     C_R   0.906152 0.280825 0.081723 0.034988
C29   C     C_R   0.372833 0.748744 0.407514 0.017371
C30   C     C_R   0.285820 0.763243 0.381549 -0.118266
C31   C     C_R   0.280968 0.783470 0.341253 -0.101625
C32   C     C_R   0.362155 0.791187 0.326323 0.033242
C33   C     C_R   0.444482 0.786493 0.353069 -0.115609
C34   C     C_R   0.393522 0.701248 0.561262 0.542995
C35   C     C_R   0.450087 0.764857 0.393408 -0.129528
C36   C     C_R   0.365506 0.804700 0.201572 0.365016
C37   C     C_R   0.363719 0.796532 0.282572 0.337484
C38   C     C_R   0.262365 0.831917 0.136012 -0.149402
C39   C     C_R   0.235648 0.869334 0.097519 -0.144167
C40   C     C_R   0.394427 0.880580 0.100031 -0.100000
C41   C     C_R   0.422429 0.842102 0.138665 0.162488
C42   C     C_R   0.353030 0.822873 0.157981 0.044076
C43   C     C_R   0.298896 0.898816 0.080016 -0.011260
C44   C     C_R   0.371642 0.368996 0.585118 0.022505
C45   C     C_R   0.407379 0.388797 0.549009 0.545923
C46   C     C_R   0.284907 0.448317 0.603854 -0.130599
C47   C     C_R   0.265799 0.439102 0.642961 -0.121601
C48   C     C_R   0.333215 0.350507 0.663877 0.034856
C49   C     C_R   0.414162 0.267493 0.643681 -0.120842
C50   C     C_R   0.433123 0.276582 0.604616 -0.129540
C51   C     C_R   0.318903 0.348591 0.788654 0.346628
C52   C     C_R   0.325560 0.348030 0.707467 0.346868
C53   C     C_R   0.218566 0.403930 0.850531 -0.121956
C54   C     C_R   0.207284 0.384162 0.889263 -0.131218
C55   C     C_R   0.386476 0.249674 0.893221 -0.129932
C56   C     C_R   0.701363 0.413564 0.562684 0.543081
C57   C     C_R   0.397708 0.269381 0.854573 -0.121000
C58   C     C_R   0.312473 0.343169 0.832124 0.034422
C59   C     C_R   0.289783 0.303360 0.910066 0.022394
C60   C     C_R   0.754161 0.380441 0.602936 0.020193
C61   C     C_R   0.778455 0.447470 0.629497 -0.126058
C62   C     C_R   0.806578 0.427043 0.670316 -0.110466
C63   C     C_R   0.811216 0.339361 0.684946 0.040921
C64   C     C_R   0.793514 0.268945 0.658323 -0.110965
C65   C     C_R   0.765428 0.289113 0.617491 -0.125532
C66   C     C_R   0.885144 0.213186 0.822940 -0.110715
C67   C     C_R   0.370327 0.368058 0.392302 -0.011649
C68   C     C_R   0.912914 0.201821 0.864333 -0.127201
C69   C     C_R   0.871546 0.382514 0.873438 -0.126314
C70   C     C_R   0.843648 0.393669 0.832101 -0.110910
C71   C     C_R   0.853386 0.308327 0.806663 0.041609
C72   C     C_1   0.838198 0.316960 0.763641 -0.022165
C73   C     C_1   0.826773 0.325828 0.727659 -0.022415
C74   C     C_R   0.909889 0.285541 0.889747 0.019540
C75   C     C_R   0.376475 0.754604 0.602007 0.020038
C76   C     C_R   0.281090 0.790011 0.619073 -0.125224
C77   C     C_R   0.271601 0.819147 0.660310 -0.110666
C78   C     C_R   0.286146 0.449834 0.372433 -0.096509
C79   C     C_R   0.357031 0.813558 0.684901 0.041460
C80   C     C_R   0.450391 0.784567 0.667809 -0.111268
C81   C     C_R   0.460069 0.755588 0.626512 -0.127420
C82   C     C_R   0.396953 0.884097 0.832788 -0.111088
C83   C     C_R   0.377086 0.911664 0.873595 -0.125923
C84   C     C_R   0.227974 0.882018 0.862780 -0.126336
C85   C     C_R   0.248127 0.854373 0.822023 -0.110976
C86   C     C_R   0.330870 0.858128 0.806784 0.040193
C87   C     C_1   0.343266 0.842140 0.764031 -0.022933
C88   C     C_1   0.350598 0.829957 0.727983 -0.022588
C89   C     C_R   0.267200 0.442264 0.330526 0.175735
C90   C     C_R   0.290349 0.914136 0.888720 0.019601
C91   C     C_R   0.962699 0.264509 0.045358 0.544507
C92   C     C_R   0.272888 0.259514 0.059959 0.545572
C93   C     C_R   0.259341 0.959402 0.043728 0.547504
C94   C     C_R   0.962527 0.267701 0.930741 0.541412
C95   C     C_R   0.270858 0.264147 0.945401 0.545305
C96   C     C_R   0.256080 0.965107 0.928946 0.543133
Cr1   Cr    Cr6+3 0.576280 0.580550 0.506370 1.015656
Cr2   Cr    Cr6+3 0.346780 0.572400 0.496520 1.020089
Cr3   Cr    Cr6+3 0.576960 0.347070 0.497150 1.016147
Cr4   Cr    Cr6+3 0.087320 0.083240 0.984860 1.014832
Cr5   Cr    Cr6+3 0.087720 0.316210 0.996740 1.011973
Cr6   Cr    Cr6+3 0.317350 0.090340 0.995890 1.020938
H1    H     H_    0.450547 0.170866 0.108911 0.143612
H2    H     H_    0.743564 0.232403 0.400849 0.132102
H3    H     H_    0.827308 0.472432 0.339080 0.149507
H4    H     H_    0.792815 0.196414 0.331109 0.140988
H5    H     H_    0.770696 0.465030 0.154173 0.156096
H6    H     H_    0.971260 0.115589 0.088090 0.137294
H7    H     H_    0.916248 0.132816 0.155574 0.145302
H8    H     H_    0.224682 0.751897 0.391497 0.149037
H9    H     H_    0.517914 0.754459 0.412780 0.129971
H10   H     H_    0.162096 0.881132 0.082608 0.140917
H11   H     H_    0.468047 0.204937 0.182113 0.133006
H12   H     H_    0.215523 0.788919 0.321385 0.165261
H13   H     H_    0.507608 0.793088 0.342281 0.142427
H14   H     H_    0.208018 0.816429 0.149506 0.149062
H15   H     H_    0.445809 0.899934 0.086371 0.155035
H16   H     H_    0.235668 0.520247 0.589435 0.130066
H17   H     H_    0.499842 0.213639 0.590760 0.130459
H18   H     H_    0.131938 0.427290 0.901625 0.130829
H19   H     H_    0.201991 0.503852 0.657589 0.132230
H20   H     H_    0.466191 0.197302 0.658743 0.132867
H21   H     H_    0.460901 0.196882 0.311104 0.130810
H22   H     H_    0.151853 0.462235 0.834135 0.132416
H23   H     H_    0.451848 0.187923 0.908805 0.130491
H24   H     H_    0.471769 0.222802 0.841509 0.133479
H25   H     H_    0.942645 0.126016 0.875888 0.128239
H26   H     H_    0.892706 0.146749 0.803413 0.111247
H27   H     H_    0.797230 0.200707 0.669418 0.111543
H28   H     H_    0.747118 0.236005 0.597872 0.126995
H29   H     H_    0.770185 0.518551 0.619315 0.127159
H30   H     H_    0.818763 0.467726 0.819720 0.111031
H31   H     H_    0.868309 0.448415 0.892178 0.127353
H32   H     H_    0.495503 0.211040 0.384429 0.141030
H33   H     H_    0.820454 0.481844 0.690774 0.112757
H34   H     H_    0.426423 0.936298 0.892709 0.129111
H35   H     H_    0.461347 0.886969 0.821220 0.113043
H36   H     H_    0.516903 0.780143 0.686668 0.110703
H37   H     H_    0.534714 0.728189 0.614372 0.127283
H38   H     H_    0.215348 0.790105 0.601055 0.128174
H39   H     H_    0.196733 0.834047 0.802063 0.113579
H40   H     H_    0.160532 0.883290 0.873419 0.128104
H41   H     H_    0.198920 0.841792 0.673325 0.110922
H42   H     H_    0.238911 0.522244 0.388939 0.155770
H43   H     H_    0.156307 0.458213 0.178756 0.148517
H44   H     H_    0.137338 0.425304 0.105497 0.134004
H45   H     H_    0.778571 0.508268 0.408645 0.136430
N1    N     N_R   0.811824 0.398552 0.225899 -0.207701
N2    N     N_R   0.243617 0.423274 0.726992 -0.236038
N3    N     N_R   0.404253 0.273663 0.729360 -0.234857
N4    N     N_R   0.400829 0.273746 0.769100 -0.234984
N5    N     N_R   0.807564 0.405208 0.265848 -0.209291
N6    N     N_R   0.837726 0.234284 0.263512 -0.224458
N7    N     N_R   0.842520 0.227448 0.223512 -0.223879
N8    N     N_R   0.310837 0.764923 0.216382 -0.228414
N9    N     N_R   0.310175 0.760658 0.256032 -0.205496
N10   N     N_R   0.419656 0.835093 0.267934 -0.213902
N11   N     N_R   0.419568 0.840050 0.228193 -0.148401
N12   N     N_R   0.240010 0.423136 0.766798 -0.236237
O1    O     O_R   0.679450 0.499830 0.463150 -0.517778
O2    O     O_R   0.356040 0.477400 0.534170 -0.501506
O3    O     O_R   0.495910 0.323070 0.537100 -0.519549
O4    O     O_R   0.663920 0.359620 0.542290 -0.501825
O5    O     O_3   0.500010 0.500010 0.500010 -0.238203
O6    O     O_R   0.170070 0.978950 0.027680 -0.518404
O7    O     O_R   0.001760 0.175230 0.026640 -0.503723
O8    O     O_R   0.984760 0.333570 0.037150 -0.518770
O9    O     O_R   0.183410 0.309240 0.041890 -0.501417
O10   O     O_R   0.340240 0.172500 0.045430 -0.514699
O11   O     O_R   0.309670 0.000990 0.032050 -0.499653
O12   O     O_R   0.480650 0.664000 0.464630 -0.500026
O13   O     O_R   0.168330 0.982130 0.939200 -0.519594
O14   O     O_R   0.000140 0.178170 0.944610 -0.501627
O15   O     O_R   0.983010 0.336750 0.948660 -0.520839
O16   O     O_R   0.181800 0.312190 0.959860 -0.501937
O17   O     O_R   0.338500 0.175680 0.956950 -0.519226
O18   O     O_R   0.308050 0.003930 0.950020 -0.501616
O19   O     O_3   0.164130 0.163270 0.992500 -0.237302
O20   O     O_R   0.323930 0.675950 0.455370 -0.517915
O21   O     O_R   0.354700 0.475360 0.451930 -0.502275
O22   O     O_R   0.494470 0.320860 0.448390 -0.515381
O23   O     O_R   0.662580 0.357570 0.460050 -0.501488
O24   O     O_R   0.680900 0.502040 0.551870 -0.519866
O25   O     O_R   0.481990 0.666040 0.546870 -0.502714
O26   O     O_R   0.325370 0.678160 0.544080 -0.518104
C97   C     C_3   0.811405 0.478579 0.079079 -0.371470
H46   H     H_    0.749092 0.546773 0.094774 0.145627
H47   H     H_    0.878119 0.493659 0.078909 0.162451
H48   H     H_    0.780777 0.471761 0.047550 0.139903
Br1   Br    Br    0.556117 0.817568 0.162703 -0.487669
Br2   Br    Br    0.157523 0.560042 0.304629 -0.510957

loop_
_geom_bond_atom_site_label_1
_geom_bond_atom_site_label_2
_ccdc_geom_bond_type
Cr6   O11   S    
C66   C68   A    
C87   C88   T    
C40   C41   A    
N10   N11   A    
C54   H18   S    
Cr4   O13   S    
C41   C42   A    
C74   C94   S    
C91   O7    A    
C36   C42   S    
C8    H43   S    
C45   O3    A    
Cr5   O9    S    
Cr4   O19   S    
C18   H4    S    
C65   H28   S    
C7    C8    A    
C85   C86   A    
C25   C28   A    
C56   O4    A    
C26   C27   A    
C29   C30   A    
C59   C95   S    
C41   Br1   S    
C30   H8    S    
C91   O8    A    
C38   C42   A    
Cr2   O26   S    
C55   C59   A    
C5    C6    A    
C80   C81   A    
C24   C97   S    
C47   H19   S    
N1    N5    A    
C68   C74   A    
C15   C16   A    
C46   H16   S    
Cr4   O7    S    
C18   C19   A    
C21   N5    A    
C37   N10   A    
Cr5   O8    S    
C95   O16   A    
Cr3   O23   S    
C45   O2    A    
Cr5   O19   S    
C43   C93   S    
Cr6   O17   S    
C40   C43   A    
C47   C48   A    
C53   C54   A    
C44   C46   A    
C16   C17   A    
C20   N1    A    
C34   O25   A    
C70   C71   A    
C96   O18   A    
C9    C10   S    
C31   H12   S    
C36   N11   A    
C34   C75   S    
C7    H44   S    
C62   H33   S    
Cr6   O10   S    
C76   H38   S    
C40   H15   S    
C93   O6    A    
N6    N7    A    
C95   O17   A    
C37   N9    A    
Cr5   O15   S    
C69   C70   A    
C67   C78   A    
C84   C90   A    
C2    C11   S    
C70   H30   S    
C79   C88   S    
C3    H21   S    
Cr1   O24   S    
C54   C59   A    
C77   C79   A    
C78   C89   A    
C38   C39   A    
C12   C67   S    
C93   O11   A    
C33   H13   S    
C32   C37   S    
C63   C64   A    
C50   H17   S    
Cr1   O1    S    
C55   H23   S    
C76   C77   A    
C23   O23   A    
C85   H39   S    
C57   H24   S    
C86   C87   S    
C8    C9    A    
C39   C43   A    
C63   C73   S    
C25   C26   A    
C82   C86   A    
C1    O12   A    
C17   C21   S    
C56   C60   S    
Cr4   O6    S    
C14   C23   S    
C2    C89   A    
C75   C76   A    
C77   H41   S    
C66   C71   A    
C5    C9    A    
C62   C63   A    
C78   H42   S    
Cr3   O3    S    
C38   H14   S    
C19   H2    S    
C52   N2    A    
C12   O22   A    
C26   H7    S    
C84   H40   S    
C92   O10   A    
Cr1   O5    S    
C23   O1    A    
C56   O24   A    
C1    C29   S    
C17   C18   A    
C89   Br2   S    
C69   C74   A    
C51   C58   S    
C6    H1    S    
C84   C85   A    
C34   O26   A    
N2    N12   A    
C68   H25   S    
C83   H34   S    
C20   N7    A    
C16   H3    S    
C94   O15   A    
Cr3   O4    S    
C48   C49   A    
C12   O21   A    
C60   C65   A    
C49   C50   A    
C22   C27   A    
C55   C57   A    
C13   C92   S    
Cr6   O19   S    
C22   C24   A    
Cr5   O16   S    
C97   H47   S    
C3    C4    A    
Cr4   O14   S    
Cr2   O2    S    
C35   H9    S    
C44   C45   S    
Cr1   O25   S    
C4    H32   S    
C44   C50   A    
C81   H37   S    
C83   C90   A    
C46   C47   A    
C39   H10   S    
C69   H31   S    
C5    H11   S    
N3    N4    A    
C14   C19   A    
C31   C32   A    
C75   C81   A    
C24   C28   A    
C72   C73   T    
C53   H22   S    
C4    C67   A    
Cr2   O5    S    
C53   C58   A    
C90   C96   S    
C20   C27   S    
C82   H35   S    
C29   C35   A    
Cr1   O12   S    
C64   C65   A    
C97   H48   S    
C2    C3    A    
Cr2   O20   S    
C71   C72   S    
C32   C33   A    
C6    C13   A    
C15   H45   S    
C1    O20   A    
C57   C58   A    
C30   C31   A    
C80   H36   S    
C49   H20   S    
C51   N12   A    
Cr3   O5    S    
C33   C35   A    
C66   H26   S    
C28   C91   S    
C61   C62   A    
C92   O9    A    
Cr3   O22   S    
C10   C11   T    
C61   H29   S    
C94   O14   A    
C51   N4    A    
C79   C80   A    
C7    C13   A    
C64   H27   S    
C36   N8    A    
C52   N3    A    
C82   C83   A    
C96   O13   A    
N8    N9    A    
Cr6   O18   S    
C21   N6    A    
C14   C15   A    
C60   C61   A    
C97   H46   S    
C48   C52   S    
Cr2   O21   S    
C22   H5    S    
C25   H6    S    
