data_mof_unit_2746.cif
_audit_creation_date              2012-12-11T17:43:41-0500
_audit_creation_method            fapswitch 2.2
_symmetry_space_group_name_H-M    P1
_symmetry_Int_Tables_number       1
_space_group_crystal_system       triclinic
_cell_length_a                    15.038057
_cell_length_b                    15.221397
_cell_length_c                    16.853386
_cell_angle_alpha                 108.903198
_cell_angle_beta                  105.95172
_cell_angle_gamma                 109.249915
_cell_volume                      3115.25657924

loop_
_atom_site_label
_atom_site_type_symbol
_atom_type_description
_atom_site_fract_x
_atom_site_fract_y
_atom_site_fract_z
_atom_type_partial_charge
C1    C     C_R   0.090633 0.277518 0.038137 -0.133821
C2    C     C_R   0.075790 0.057973 0.946683 -0.238983
C3    C     C_R   0.995329 0.890059 0.941652 0.057717
C4    C     C_R   0.999538 0.080160 0.968094 0.067589
C5    C     C_R   0.074300 0.961907 0.932383 0.019016
C6    C     C_R   0.918372 0.005221 0.973086 0.016302
C7    C     C_R   0.731990 0.960654 0.939055 -0.188863
C8    C     C_R   0.259757 0.010048 0.956304 -0.172778
C9    C     C_R   0.684439 0.052787 0.053296 -0.096269
C10   C     C_R   0.303074 0.888927 0.860434 -0.098319
C11   C     C_R   0.483380 0.675270 0.353813 -0.094730
C12   C     C_R   0.912784 0.709275 0.921453 -0.187657
C13   C     C_R   0.526694 0.439771 0.732476 -0.108955
C14   C     C_R   0.498387 0.669379 0.274339 -0.142018
C15   C     C_R   0.530564 0.456263 0.820184 -0.093785
C16   C     C_R   0.935764 0.457778 0.733633 0.595258
C17   C     C_R   0.060277 0.487558 0.258064 0.591899
C18   C     C_R   0.523113 0.592373 0.227573 0.108697
C19   C     C_R   0.560212 0.557020 0.886972 0.117560
C20   C     C_R   0.534354 0.522773 0.263005 -0.162071
C21   C     C_R   0.583640 0.640355 0.864130 -0.202437
C22   C     C_R   0.519717 0.529315 0.342777 -0.108631
C23   C     C_R   0.026331 0.463691 0.722559 -0.053445
C24   C     C_R   0.580498 0.623539 0.776582 -0.134158
C25   C     C_R   0.493935 0.605240 0.387952 -0.073334
C26   C     C_R   0.552206 0.523333 0.710842 -0.110483
C27   C     C_R   0.618920 0.570655 0.128814 -0.237828
C28   C     C_R   0.484463 0.593142 0.994634 -0.218347
C29   C     C_R   0.630302 0.562100 0.047269 0.065992
C30   C     C_R   0.464635 0.588361 0.069542 0.053729
C31   C     C_R   0.562850 0.575142 0.979827 0.012423
C32   C     C_R   0.535278 0.583762 0.141116 0.023923
C33   C     C_R   0.655620 0.975819 0.965169 -0.121631
C34   C     C_R   0.966796 0.426540 0.258237 -0.044952
C35   C     C_R   0.334118 0.985596 0.933353 -0.106128
C36   C     C_R   0.950312 0.381935 0.322098 -0.042417
C37   C     C_R   0.032031 0.411184 0.633787 -0.030430
C38   C     C_R   0.123993 0.402423 0.534942 -0.384594
C39   C     C_R   0.847847 0.325966 0.401564 -0.372549
C40   C     C_R   0.720182 0.216481 0.824814 -0.143570
C41   C     C_R   0.228394 0.797231 0.187357 -0.126027
C42   C     C_R   0.127033 0.432431 0.624727 0.648090
C43   C     C_R   0.854838 0.353582 0.330861 0.633765
C44   C     C_R   0.938425 0.347708 0.553027 -0.262012
C45   C     C_R   0.662760 0.219594 0.747362 0.030500
C46   C     C_R   0.031551 0.372535 0.378233 -0.319692
C47   C     C_R   0.937487 0.341186 0.469098 0.113176
C48   C     C_R   0.030822 0.367511 0.459049 0.116676
C49   C     C_R   0.553902 0.146924 0.681869 0.130988
C50   C     C_R   0.293512 0.899751 0.361297 0.140279
C51   C     C_R   0.390808 0.088128 0.446267 -0.225157
C52   C     C_R   0.410503 0.972875 0.609768 -0.227227
C53   C     C_R   0.327945 0.998139 0.362527 -0.169955
C54   C     C_R   0.500395 0.054721 0.686191 -0.167934
C55   C     C_R   0.308614 0.893395 0.444657 -0.292184
C56   C     C_R   0.251472 0.804531 0.275129 0.037608
C57   C     C_R   0.508167 0.162210 0.606369 -0.292599
C58   C     C_R   0.376466 0.982186 0.528291 0.194441
C59   C     C_R   0.422034 0.079318 0.528236 0.196180
C60   C     C_R   0.789653 0.114514 0.115409 -0.113349
C61   C     C_R   0.197560 0.816698 0.809952 -0.112750
C62   C     C_R   0.866480 0.100462 0.089374 -0.125703
C63   C     C_R   0.122922 0.840940 0.832365 -0.130808
C64   C     C_R   0.301049 0.598213 0.006581 -0.130675
C65   C     C_R   0.737031 0.463178 0.047988 -0.129976
C66   C     C_R   0.838083 0.023686 0.000673 0.116764
C67   C     C_R   0.359596 0.566222 0.057068 0.050690
C68   C     C_R   0.153383 0.937562 0.906450 0.118955
C69   C     C_R   0.724263 0.310937 0.748579 -0.065893
C70   C     C_R   0.229397 0.704723 0.266304 -0.146608
C71   C     C_R   0.295553 0.499652 0.079576 -0.113471
C72   C     C_R   0.755273 0.566068 0.977911 -0.117096
C73   C     C_R   0.108496 0.532768 0.811004 -0.211442
C74   C     C_R   0.888988 0.398994 0.175646 -0.178785
C75   C     C_R   0.916428 0.194383 0.955290 -0.111398
C76   C     C_R   0.085257 0.796090 0.000724 -0.118637
C77   C     C_R   0.003530 0.180103 0.982287 0.044829
C78   C     C_R   0.710071 0.536831 0.031461 0.045341
C79   C     C_R   0.999109 0.800579 0.950595 0.064226
C80   C     C_3   0.676505 0.287944 0.247517 -0.338138
C81   C     C_3   0.294808 0.566305 0.709270 -0.302580
C82   C     C_3   0.811827 0.504188 0.678066 -0.314612
C83   C     C_3   0.177284 0.599672 0.408752 -0.370417
C84   C     C_R   0.916565 0.910435 0.957802 -0.234054
H1    H     H_    0.170393 0.294241 0.073986 0.102707
H2    H     H_    0.510718 0.390930 0.836192 0.111052
H3    H     H_    0.552504 0.462234 0.228051 0.117244
H4    H     H_    0.605492 0.718307 0.914514 0.124604
H5    H     H_    0.527781 0.475056 0.369279 0.105538
H6    H     H_    0.599651 0.688101 0.759611 0.105911
H7    H     H_    0.674121 0.565241 0.181663 0.142951
H8    H     H_    0.430138 0.596299 0.939289 0.138419
H9    H     H_    0.101633 0.385728 0.367694 0.203885
H10   H     H_    0.864539 0.315157 0.555393 0.209201
H11   H     H_    0.195315 0.417515 0.526134 0.153135
H12   H     H_    0.834509 0.683265 0.872455 0.103787
H13   H     H_    0.777811 0.309554 0.412745 0.156228
H14   H     H_    0.574105 0.927576 0.917283 0.099035
H15   H     H_    0.415940 0.041440 0.972449 0.098902
H16   H     H_    0.546109 0.233184 0.602082 0.114463
H17   H     H_    0.277851 0.818794 0.445024 0.110488
H18   H     H_    0.531565 0.041934 0.744948 0.113432
H19   H     H_    0.313285 0.006142 0.299428 0.114649
H20   H     H_    0.423474 0.162885 0.445812 0.125095
H21   H     H_    0.374629 0.899195 0.611205 0.120968
H22   H     H_    0.625170 0.064031 0.073583 0.091972
H23   H     H_    0.708708 0.900371 0.870709 0.110433
H24   H     H_    0.360791 0.870022 0.843035 0.088792
H25   H     H_    0.811662 0.172651 0.183974 0.111684
H26   H     H_    0.173537 0.741850 0.753427 0.106053
H27   H     H_    0.947717 0.148673 0.138272 0.116361
H28   H     H_    0.041447 0.784165 0.792239 0.103945
H29   H     H_    0.691438 0.165289 0.853590 0.095442
H30   H     H_    0.237601 0.859295 0.167903 0.091711
H31   H     H_    0.328978 0.660193 0.987808 0.089675
H32   H     H_    0.713369 0.422829 0.086573 0.117313
H33   H     H_    0.697840 0.347156 0.708555 0.132724
H34   H     H_    0.285355 0.084674 0.013924 0.106933
H35   H     H_    0.249412 0.684306 0.320891 0.159764
H36   H     H_    0.317531 0.466253 0.124630 0.110319
H37   H     H_    0.754616 0.624984 0.956181 0.117576
H38   H     H_    0.190498 0.558688 0.830632 0.192709
H39   H     H_    0.809679 0.338116 0.144107 0.169378
H40   H     H_    0.836345 0.135798 0.912306 0.112796
H41   H     H_    0.165967 0.850769 0.025999 0.101232
H42   H     H_    0.857315 0.855346 0.966585 0.136539
H43   H     H_    0.135240 0.115022 0.939851 0.133596
H44   H     H_    0.644958 0.304676 0.299926 0.164491
H45   H     H_    0.482161 0.609822 0.449425 0.098319
H46   H     H_    0.674725 0.209922 0.227973 0.129902
H47   H     H_    0.624063 0.284244 0.184296 0.168779
H48   H     H_    0.261190 0.617192 0.693589 0.116192
H49   H     H_    0.333699 0.545670 0.664039 0.167372
H50   H     H_    0.355814 0.612803 0.781761 0.174107
H51   H     H_    0.873369 0.574667 0.684046 0.147415
H52   H     H_    0.795199 0.524452 0.740028 0.145824
H53   H     H_    0.739482 0.477702 0.617069 0.173064
H54   H     H_    0.147374 0.565017 0.450007 0.179544
H55   H     H_    0.143310 0.652827 0.400284 0.139066
H56   H     H_    0.549442 0.510296 0.642953 0.096469
H57   H     H_    0.262584 0.648444 0.451056 0.168363
H58   H     H_    0.463460 0.734105 0.388879 0.109764
H59   H     H_    0.503380 0.362138 0.681109 0.108236
H60   H     H_    0.490082 0.724439 0.248951 0.116098
N1    N     N_R   0.055660 0.348550 0.045620 -0.044158
N2    N     N_R   0.185200 0.638170 0.176300 -0.035728
N3    N     N_R   0.201680 0.494570 0.045620 -0.040066
N4    N     N_R   0.798320 0.505430 0.954380 -0.045453
N5    N     N_R   0.068420 0.560530 0.871650 -0.077340
N6    N     N_R   0.931580 0.439470 0.128350 -0.082926
N7    N     N_R   0.948070 0.295860 0.997670 -0.046394
N8    N     N_R   0.051930 0.704140 0.002330 -0.037872
N9    N     N_R   0.944340 0.651450 0.954380 -0.038387
N10   N     N_R   0.960830 0.507850 0.823700 -0.103208
N11   N     N_R   0.039170 0.492150 0.176300 -0.097882
N12   N     N_R   0.811290 0.303410 0.871650 -0.042976
N13   N     N_R   0.188710 0.696590 0.128350 -0.041382
N14   N     N_R   0.205200 0.552990 0.997670 -0.037918
N15   N     N_R   0.794800 0.447010 0.002330 -0.039692
N16   N     N_R   0.814800 0.361830 0.823700 -0.050292
Ni1   Ni    Ni4+2 0.119340 0.493420 0.109960 0.247544
Ni2   Ni    Ni4+2 0.880660 0.506580 0.890040 0.206913
Ni3   Ni    Ni4+2 0.872590 0.372590 0.000000 0.202366
Ni4   Ni    Ni4+2 0.127410 0.627410 0.000000 0.205315
O1    O     O_3   0.777051 0.369853 0.280193 -0.621494
O2    O     O_3   0.219740 0.475308 0.702223 -0.620213
O3    O     O_3   0.839154 0.422005 0.664172 -0.654226
O4    O     O_3   0.159805 0.523143 0.322896 -0.636428

loop_
_geom_bond_atom_site_label_1
_geom_bond_atom_site_label_2
_ccdc_geom_bond_type
C71   N3    A    
C12   C79   A    
C72   H37   S    
C27   C29   A    
C1    C77   A    
C14   C18   A    
C1    N1    A    
C76   C79   A    
C12   N9    A    
C65   N15   A    
C19   C31   S    
C83   H55   S    
C8    H34   S    
C81   H50   S    
N2    N13   A    
N11   Ni1   S    
C15   C19   A    
N6    Ni3   S    
C71   H36   S    
C19   C21   A    
C24   C26   A    
C38   C42   A    
C82   H53   S    
C26   H56   S    
C11   C14   A    
C57   C59   A    
C76   N8    A    
C16   O3    S    
C49   C54   A    
C20   H3    S    
C82   H51   S    
C69   N16   A    
C49   C57   A    
C60   C62   A    
C33   H14   S    
C37   C42   A    
C61   C63   A    
C72   C78   A    
C60   H25   S    
C10   H24   S    
C29   C78   S    
C47   C48   A    
N12   Ni3   S    
C75   N7    A    
C22   C25   A    
C38   H11   S    
C81   O2    S    
C36   C46   A    
C10   C35   A    
C70   N2    A    
N15   Ni3   S    
C41   H30   S    
C18   C20   A    
C30   C67   S    
C44   C47   A    
N14   Ni4   S    
C2    H43   S    
C74   H39   S    
C21   H4    S    
C25   H45   S    
C80   H47   S    
C54   H18   S    
C1    H1    S    
C76   H41   S    
C7    C33   A    
C23   C73   A    
C5    C68   S    
C35   H15   S    
C61   H26   S    
C52   C54   A    
C46   C48   A    
C82   O3    S    
C43   O1    S    
C84   H42   S    
C40   C45   A    
N2    Ni1   S    
C14   H60   S    
C50   C53   A    
C6    C84   A    
C62   C66   A    
C45   C69   A    
C75   H40   S    
C64   C67   A    
N12   N16   A    
C80   H46   S    
C4    C6    A    
N3    Ni1   S    
C83   H57   S    
C81   H48   S    
C39   C43   A    
C80   H44   S    
C39   H13   S    
C51   H20   S    
C23   C37   S    
C57   H16   S    
C50   C56   S    
C51   C53   A    
N4    N15   A    
N16   Ni2   S    
C2    C4    A    
N5    N10   A    
C41   C56   A    
C40   N12   A    
C40   H29   S    
C45   C49   S    
C70   H35   S    
C28   H8    S    
N5    Ni4   S    
N1    N7    A    
C62   H27   S    
C27   H7    S    
C75   C77   A    
N13   Ni4   S    
C3    C79   S    
N8    Ni4   S    
C52   C58   A    
C9    C33   A    
C15   H2    S    
C41   N13   A    
C34   C74   A    
C52   H21   S    
C8    C68   A    
C16   C23   A    
C56   C70   A    
N6    N11   A    
C13   C15   A    
C16   N10   A    
C65   H32   S    
C7    H23   S    
C13   C26   A    
C58   C59   A    
C10   C61   A    
C18   C32   S    
C17   C34   A    
C21   C24   A    
C17   N11   A    
C80   O1    S    
C39   C47   A    
C63   C68   A    
C65   C78   A    
C73   N5    A    
C27   C32   A    
C63   H28   S    
C38   C48   A    
N10   Ni2   S    
C28   C31   A    
C12   H12   S    
C20   C22   A    
C3    C5    A    
C17   O4    S    
C24   H6    S    
C81   H49   S    
C83   O4    S    
C55   H17   S    
N7    Ni3   S    
C50   C55   A    
N9    Ni2   S    
C9    C60   A    
N4    Ni2   S    
C37   C44   A    
C28   C30   A    
C9    H22   S    
C4    C77   S    
C29   C31   A    
C72   N4    A    
C7    C66   A    
C30   C32   A    
C46   H9    S    
N1    Ni1   S    
C53   H19   S    
C69   H33   S    
C22   H5    S    
C67   C71   A    
C13   H59   S    
C82   H52   S    
C11   H58   S    
C44   H10   S    
C2    C5    A    
C6    C66   S    
C51   C59   A    
N8    N9    A    
C34   C36   S    
C73   H38   S    
C55   C58   A    
C64   N14   A    
C3    C84   A    
C64   H31   S    
C11   C25   A    
C74   N6    A    
C36   C43   A    
N3    N14   A    
C8    C35   A    
C83   H54   S    
C42   O2    S    
