data_mof_unit_2891.cif
_audit_creation_date              2012-12-10T18:11:46-0500
_audit_creation_method            fapswitch 2.2
_symmetry_space_group_name_H-M    P1
_symmetry_Int_Tables_number       1
_space_group_crystal_system       triclinic
_cell_length_a                    10.524722
_cell_length_b                    12.565043
_cell_length_c                    12.960745
_cell_angle_alpha                 82.390328
_cell_angle_beta                  90.968238
_cell_angle_gamma                 101.317068
_cell_volume                      1665.77528206

loop_
_atom_site_label
_atom_site_type_symbol
_atom_type_description
_atom_site_fract_x
_atom_site_fract_y
_atom_site_fract_z
_atom_type_partial_charge
C1    C     C_R   0.465077 0.440121 0.689502 0.959684
C2    C     C_R   0.411490 0.455057 0.968554 -0.078746
C3    C     C_R   0.401291 0.483314 0.861316 -0.106979
C4    C     C_R   0.741959 0.499178 0.501157 0.959307
C5    C     C_R   0.441178 0.541900 0.029999 0.046267
C6    C     C_R   0.420837 0.649440 0.991243 0.006906
C7    C     C_R   0.383110 0.669923 0.885772 0.142387
C8    C     C_R   0.376741 0.587313 0.822550 -0.135606
C9    C     C_R   0.494776 0.524440 0.128037 -0.190179
C10   C     C_R   0.472769 0.702632 0.163911 -0.323012
C11   C     C_R   0.409578 0.404344 0.795385 -0.278272
C12   C     C_3   0.061311 0.596701 0.526606 0.479181
C13   C     C_R   0.274845 0.081163 0.384124 0.437340
C14   C     C_R   0.660000 0.797532 0.626097 -0.166083
C15   C     C_R   0.684824 0.897642 0.665645 0.494610
C16   C     C_R   0.512947 0.561154 0.307796 0.879964
C17   C     C_R   0.614799 0.978600 0.625943 0.105128
C18   C     C_R   0.527418 0.959960 0.540619 -0.052420
C19   C     C_R   0.501185 0.853906 0.510702 0.115095
C20   C     C_R   0.462981 0.039002 0.484640 -0.077171
C21   C     C_R   0.353902 0.005360 0.420857 0.011548
C22   C     C_R   0.332230 0.898935 0.391734 0.148410
C23   C     C_3   0.964841 0.512322 0.596780 0.332201
C24   C     C_R   0.409450 0.827097 0.434700 -0.128426
C25   C     C_R   0.507240 0.151385 0.484040 -0.088704
C26   C     C_R   0.316937 0.190159 0.400314 -0.063440
C27   C     C_R   0.258376 0.500752 0.499655 0.922670
C28   C     C_3   0.939878 0.403900 0.474196 0.141072
C29   C     C_3   0.026464 0.418564 0.569457 0.418076
C30   C     C_3   0.124379 0.502845 0.500502 -0.209656
C31   C     C_3   0.038809 0.488666 0.404361 -0.278817
C32   C     C_3   0.974184 0.583173 0.430536 -0.330690
C33   C     C_3   0.964161 0.279489 0.705972 -0.223625
C34   C     C_3   0.876844 0.497685 0.501389 -0.199406
C35   C     C_3   0.327853 0.112491 0.789631 -0.162613
C36   C     C_3   0.465325 0.238810 0.143468 -0.348928
C37   C     C_3   0.138407 0.166214 0.983345 -0.340144
C38   C     C_3   0.239639 0.862954 0.306602 -0.772795
C39   C     C_3   0.120758 0.109196 0.259142 -0.346317
C40   C     C_3   0.876022 0.294007 0.441872 -0.814222
C41   C     C_3   0.625684 0.074001 0.687642 -0.886518
C42   C     C_3   0.770894 0.834632 0.822779 -0.367356
C43   C     C_3   0.051851 0.770765 0.559554 -0.255753
C44   C     C_3   0.019460 0.545105 0.764674 -0.311715
C45   C     C_R   0.439540 0.731062 0.059896 0.541919
C46   C     C_3   0.353601 0.778088 0.835768 -0.836627
C47   C     C_3   0.519175 0.916139 0.038689 -0.361431
C48   C     C_R   0.500038 0.599386 0.197539 -0.156920
C49   C     C_R   0.361810 0.292796 0.831831 0.359230
C50   C     C_R   0.338996 0.263826 0.940511 0.337567
C51   C     C_R   0.384092 0.341378 0.009060 0.381808
H1    H     H_    0.532365 0.451537 0.152553 0.205538
H2    H     H_    0.962008 0.190155 0.713817 0.201235
H3    H     H_    0.866263 0.293266 0.680982 0.145287
H4    H     H_    0.983532 0.305922 0.783966 0.160072
H5    H     H_    0.237848 0.066931 0.830371 0.206565
H6    H     H_    0.415279 0.104385 0.837262 0.139958
H7    H     H_    0.333053 0.072320 0.719089 0.163282
H8    H     H_    0.560580 0.268998 0.102618 0.131575
H9    H     H_    0.425564 0.153333 0.129709 0.211228
H10   H     H_    0.484698 0.237509 0.227824 0.189668
H11   H     H_    0.101377 0.185540 0.903556 0.178917
H12   H     H_    0.345597 0.602908 0.742893 0.186660
H13   H     H_    0.119246 0.226698 0.033673 0.172031
H14   H     H_    0.083395 0.084542 0.016334 0.182588
H15   H     H_    0.250230 0.782465 0.284981 0.209023
H16   H     H_    0.137841 0.853563 0.332234 0.271047
H17   H     H_    0.259211 0.923411 0.235268 0.250416
H18   H     H_    0.202651 0.129472 0.202428 0.225816
H19   H     H_    0.090954 0.184539 0.277771 0.170318
H20   H     H_    0.037284 0.061673 0.221024 0.185967
H21   H     H_    0.951910 0.250514 0.420559 0.246494
H22   H     H_    0.818180 0.243306 0.507465 0.226626
H23   H     H_    0.256974 0.249980 0.379160 0.167757
H24   H     H_    0.812741 0.306595 0.373810 0.233530
H25   H     H_    0.718034 0.131961 0.667808 0.235011
H26   H     H_    0.544105 0.116985 0.676054 0.239177
H27   H     H_    0.624479 0.044822 0.772477 0.248875
H28   H     H_    0.823261 0.771432 0.802686 0.181328
H29   H     H_    0.668748 0.797312 0.845949 0.167940
H30   H     H_    0.819189 0.867955 0.891642 0.189989
H31   H     H_    0.971510 0.737904 0.616594 0.179125
H32   H     H_    0.011206 0.794671 0.482335 0.172618
H33   H     H_    0.109465 0.846026 0.585799 0.196869
H34   H     H_    0.599378 0.184582 0.515284 0.165990
H35   H     H_    0.065334 0.633165 0.752191 0.196997
H36   H     H_    0.094595 0.494887 0.759295 0.177066
H37   H     H_    0.980152 0.526495 0.845305 0.179270
H38   H     H_    0.326330 0.776633 0.752671 0.226855
H39   H     H_    0.270545 0.797447 0.876285 0.267545
H40   H     H_    0.440366 0.844206 0.837516 0.257653
H41   H     H_    0.607337 0.898391 0.003473 0.154215
H42   H     H_    0.536581 0.929765 0.121121 0.169648
H43   H     H_    0.500462 0.993797 0.995601 0.197251
H44   H     H_    0.712033 0.733607 0.654303 0.176386
H45   H     H_    0.396686 0.749379 0.407361 0.208894
H46   H     H_    0.074074 0.478980 0.326523 0.172638
H47   H     H_    0.948092 0.649261 0.373437 0.165471
H48   H     H_    0.473513 0.760358 0.218992 0.171226
N1    N     N_R   0.432930 0.222190 0.444670 -0.135144
N2    N     N_R   0.566370 0.776980 0.554790 -0.149440
O1    O     O_R   0.467970 0.366730 0.627150 -0.553731
O2    O     O_3   0.319113 0.222630 0.757740 -0.560311
O3    O     O_3   0.375072 0.307495 0.115282 -0.599964
O4    O     O_3   0.271242 0.161738 0.981311 -0.610449
O5    O     O_3   0.149737 0.044337 0.350536 -0.616372
O6    O     O_3   0.779767 0.921121 0.739979 -0.605972
O7    O     O_3   0.134282 0.695766 0.553607 -0.607554
O8    O     O_3   0.915988 0.522229 0.695137 -0.624873
O9    O     O_3   0.409201 0.833088 0.029958 -0.607908
O10   O     O_R   0.510820 0.544830 0.662520 -0.626394
O11   O     O_R   0.664630 0.410960 0.482340 -0.631556
O12   O     O_R   0.707470 0.589060 0.517710 -0.612658
O13   O     O_R   0.489180 0.455170 0.337480 -0.605171
O14   O     O_R   0.532030 0.633270 0.372850 -0.645889
O15   O     O_R   0.292530 0.410940 0.482290 -0.593328
O16   O     O_R   0.335370 0.589040 0.517660 -0.622604
O17   O     O_3   0.065879 0.333530 0.637031 -0.582518
Zn1   Zn    Zn3+2 0.471390 0.381080 0.476380 0.972922
Zn2   Zn    Zn3+2 0.528610 0.618920 0.523620 0.931473

loop_
_geom_bond_atom_site_label_1
_geom_bond_atom_site_label_2
_ccdc_geom_bond_type
C33   H4    S    
C39   O5    S    
C42   H29   S    
C6    C45   A    
C43   H32   S    
C47   H41   S    
C1    C11   S    
C36   H8    S    
C16   C48   S    
C37   H11   S    
C7    C8    A    
C46   H38   S    
C37   O4    S    
C42   H30   S    
C12   C23   S    
C35   H7    S    
C23   C29   S    
C28   C29   S    
C35   O2    S    
C24   H45   S    
C41   H26   S    
C30   C31   S    
C20   C25   A    
C28   C40   S    
C22   C38   S    
C40   H22   S    
C18   C19   A    
C15   O6    S    
C39   H19   S    
C38   H15   S    
C37   H14   S    
C50   O4    S    
C44   H36   S    
C40   H21   S    
C42   O6    S    
O13   Zn1   S    
C44   O8    S    
C4    O11   A    
C28   C34   S    
C33   O17   S    
C21   C22   A    
C12   C32   S    
C27   C30   S    
C43   H33   S    
C9    H1    S    
C44   H35   S    
C50   C51   A    
C27   O16   A    
C33   H2    S    
C23   O8    S    
C4    C34   S    
C7    C46   S    
C4    O12   A    
C3    C8    A    
O16   Zn2   S    
C41   H27   S    
C12   O7    S    
C45   O9    S    
C14   N2    A    
C46   H40   S    
C51   O3    S    
O10   Zn2   S    
C32   C34   S    
C5    C9    A    
C29   C30   S    
C11   C49   A    
O12   Zn2   S    
C25   N1    A    
C31   C32   S    
C23   C34   S    
C10   C45   A    
C25   H34   S    
C17   C18   A    
C39   H18   S    
C13   C21   A    
N1    Zn1   S    
C38   H16   S    
C38   H17   S    
O14   Zn2   S    
C10   C48   A    
C22   C24   A    
C13   C26   A    
C2    C5    A    
C36   H10   S    
C16   O14   A    
C14   H44   S    
C37   H13   S    
C33   H3    S    
C15   C17   A    
C47   H42   S    
C12   C30   S    
C35   H5    S    
N2    Zn2   S    
C28   C31   S    
C13   O5    S    
C36   H9    S    
C16   O13   A    
C49   O2    S    
O11   Zn1   S    
C40   H24   S    
C6    C7    A    
C46   H39   S    
C47   O9    S    
C29   O17   S    
O15   Zn1   S    
C35   H6    S    
C36   O3    S    
C2    C3    A    
C27   O15   A    
C41   H25   S    
C19   N2    A    
C5    C6    A    
C26   H23   S    
C47   H43   S    
C32   H47   S    
C19   C24   A    
C18   C20   A    
C43   O7    S    
C31   H46   S    
C10   H48   S    
C17   C41   S    
C3    C11   A    
C2    C51   A    
C8    H12   S    
C42   H28   S    
C20   C21   A    
C9    C48   A    
C49   C50   A    
C43   H31   S    
C39   H20   S    
C14   C15   A    
C44   H37   S    
C1    O1    A    
C1    O10   A    
O1    Zn1   S    
C26   N1    A    
