data_mof_unit_3826.cif
_audit_creation_date              2013-03-05T15:54:26-0500
_audit_creation_method            fapswitch 2.2
_symmetry_space_group_name_H-M    P1
_symmetry_Int_Tables_number       1
_space_group_crystal_system       triclinic
_cell_length_a                    15.738051
_cell_length_b                    10.729613
_cell_length_c                    9.890306
_cell_angle_alpha                 89.238173
_cell_angle_beta                  89.998766
_cell_angle_gamma                 91.678865
_cell_volume                      1669.24405957

loop_
_atom_site_label
_atom_site_type_symbol
_atom_site_description
_atom_site_fract_x
_atom_site_fract_y
_atom_site_fract_z
_atom_type_partial_charge
O1    O     O_R   0.500000 0.316780 0.614690 -0.657464
O2    O     O_R   0.499990 0.316750 0.385360 -0.641401
C1    C     C_R   0.504990 0.259807 0.501994 0.869503
O3    O     O_R   0.376780 0.500000 0.614650 -0.630639
O4    O     O_R   0.376770 0.499980 0.385310 -0.623340
C2    C     C_R   0.338039 0.499501 0.499999 0.872678
Zn1   Zn    Zn3+2 0.500010 0.500020 0.653130 0.938001
Zn2   Zn    Zn3+2 0.499990 0.499980 0.346870 0.949191
O5    O     O_R   0.500010 0.683250 0.614640 -0.625837
O6    O     O_R   0.500000 0.683220 0.385310 -0.620243
O7    O     O_R   0.623230 0.500020 0.614690 -0.609254
O8    O     O_R   0.623220 0.500000 0.385350 -0.606426
C3    C     C_R   0.491348 0.738871 0.499681 0.879146
C4    C     C_R   0.662005 0.500062 0.500022 0.913615
C5    C     C_3   0.968113 0.373385 0.513741 -0.290354
C6    C     C_3   0.025393 0.425776 0.398854 0.314939
H1    H     H_    0.941946 0.276544 0.524550 0.182619
H2    H     H_    0.948608 0.582413 0.285809 0.174574
C7    C     C_1   0.249263 0.497244 0.500080 -0.117634
C8    C     C_1   0.750801 0.497616 0.500099 -0.176820
C9    C     C_3   0.025772 0.443618 0.614930 0.312370
C10   C     C_3   0.083211 0.492377 0.500447 -0.018141
C11   C     C_3   0.972641 0.561302 0.605051 -0.184676
C12   C     C_3   0.916667 0.492849 0.500446 0.093224
C13   C     C_3   0.030392 0.610671 0.487280 -0.260416
C14   C     C_3   0.972247 0.542925 0.382599 -0.176775
C15   C     C_1   0.174048 0.494869 0.500228 0.095929
C16   C     C_1   0.825972 0.495181 0.500256 0.012771
H3    H     H_    0.057062 0.707241 0.476500 0.182841
H4    H     H_    0.949322 0.615951 0.691341 0.171253
H5    H     H_    0.517463 0.113989 0.288671 0.171541
C17   C     C_R   0.513612 0.107064 0.761957 -0.160945
H6    H     H_    0.550891 0.191634 0.777441 0.176022
C18   C     C_R   0.485121 0.043759 0.878211 -0.155795
H7    H     H_    0.496171 0.083775 0.976829 0.143999
C19   C     C_R   0.440607 0.930737 0.866944 -0.149317
H8    H     H_    0.415026 0.883898 0.956298 0.145848
C20   C     C_R   0.432393 0.875384 0.740859 -0.142230
H9    H     H_    0.397479 0.787203 0.735774 0.164662
C21   C     C_R   0.468571 0.933684 0.624007 0.097471
C22   C     C_R   0.497247 0.057842 0.631524 0.098177
C23   C     C_R   0.507955 0.125768 0.507675 -0.115699
C24   C     C_R   0.507984 0.064343 0.383890 -0.212869
H10   H     H_    0.504228 0.891271 0.284904 0.170452
C25   C     C_R   0.497402 0.937462 0.380922 -0.208414
C26   C     C_R   0.480341 0.871281 0.500616 -0.125681
H11   H     H_    0.595290 0.640367 0.123465 0.149753
C27   C     C_R   0.387838 0.337095 0.142327 -0.155363
H12   H     H_    0.383879 0.331051 0.249532 0.212559
C28   C     C_R   0.332414 0.257439 0.072940 -0.150290
H13   H     H_    0.289350 0.194900 0.128250 0.187161
C29   C     C_R   0.332322 0.257818 0.933047 -0.120501
H14   H     H_    0.289427 0.195273 0.879226 0.182876
C30   C     C_R   0.387878 0.337532 0.861765 -0.145295
H15   H     H_    0.384876 0.330970 0.754663 0.212115
C31   C     C_R   0.444793 0.419756 0.928682 0.141580
C32   C     C_R   0.444803 0.419689 0.073415 0.160030
N1    N     N_R   0.499210 0.498800 0.142780 -0.120445
C33   C     C_R   0.552482 0.577256 0.070442 -0.110918
H16   H     H_    0.595220 0.640360 0.872281 0.157254
C34   C     C_R   0.552457 0.577225 0.927184 -0.103906
N2    N     N_R   0.499180 0.498720 0.857170 -0.126108
N3    N     N_R   0.053049 0.351966 0.285150 0.225972
O9    O     O_R   0.996795 0.300795 0.205382 -0.334827
O10   O     O_R   0.133449 0.336912 0.262341 -0.386689
N4    N     N_R   0.053847 0.389697 0.742822 0.222329
O11   O     O_R   0.997895 0.352832 0.832617 -0.334374
O12   O     O_R   0.134315 0.377968 0.768181 -0.383367

loop_
_geom_bond_atom_site_label_1
_geom_bond_atom_site_label_2
_geom_bond_distance
_ccdc_geom_bond_type
O4    Zn2   1.976149 S    
C28   C29   1.383537 A    
C11   C12   1.538883 S    
N3    O10   1.300387 A    
Zn1   N2    2.017921 S    
C21   C22   1.396877 A    
C6    N3    1.457783 S    
C9    N4    1.457890 S    
C7    C15   1.183266 T    
C22   C23   1.424437 A    
C30   H15   1.063501 S    
N4    O12   1.300402 A    
O2    C1    1.301627 A    
H2    C14   1.110307 S    
Zn2   O8    1.976393 S    
C17   H6    1.078681 S    
C29   C30   1.390379 A    
C27   C28   1.390765 A    
C28   H13   1.082779 S    
N1    C33   1.366017 A    
C27   C32   1.411015 A    
C1    C23   1.440655 S    
C5    C12   1.540191 S    
C25   C26   1.394351 A    
C31   C32   1.431448 A    
Zn1   O7    1.976150 S    
C2    C7    1.396658 S    
C24   C25   1.367380 A    
C32   N1    1.377419 A    
C34   N2    1.366086 A    
H5    C24   1.083920 S    
H16   C34   1.081749 S    
O3    Zn1   1.976393 S    
C5    H1    1.110254 S    
C19   C20   1.392743 A    
C19   H8    1.082579 S    
C20   C21   1.418099 A    
O8    C4    1.287978 A    
N4    O11   1.300305 A    
C18   C19   1.388382 A    
C10   C15   1.429071 S    
C11   C13   1.555229 S    
C9    C11   1.536793 S    
C6    C14   1.536772 S    
O4    C2    1.287587 A    
O7    C4    1.287837 A    
C31   N2    1.375597 A    
C33   C34   1.416879 A    
O3    C2    1.287468 A    
C23   C24   1.398101 A    
C21   C26   1.414541 A    
C17   C22   1.421122 A    
H11   C33   1.081746 S    
N3    O9    1.300283 A    
C11   H4    1.110294 S    
C4    C8    1.398491 S    
C5    C9    1.540430 S    
C12   C16   1.428324 S    
C20   H9    1.081869 S    
C29   H14   1.082791 S    
C13   H3    1.110289 S    
Zn2   O6    2.007466 S    
C18   H7    1.082909 S    
Zn1   O5    1.997527 S    
O5    C3    1.286155 A    
C3    C26   1.436408 S    
C27   H12   1.063127 S    
O1    Zn1   2.007467 S    
C6    C10   1.526188 S    
C8    C16   1.184100 T    
Zn2   N1    2.018755 S    
C13   C14   1.555233 S    
C9    C10   1.526242 S    
O6    C3    1.295125 A    
O2    Zn2   1.997528 S    
H10   C25   1.083812 S    
C5    C6    1.540464 S    
C12   C14   1.538845 S    
C30   C31   1.409941 A    
O1    C1    1.281842 A    
C10   C13   1.541554 S    
C17   C18   1.394916 A    
