data_mof_unit_3037.cif
_audit_creation_date              2012-12-10T17:13:40-0500
_audit_creation_method            fapswitch 2.2
_symmetry_space_group_name_H-M    P1
_symmetry_Int_Tables_number       1
_space_group_crystal_system       triclinic
_cell_length_a                    27.63568
_cell_length_b                    10.724775
_cell_length_c                    10.018507
_cell_angle_alpha                 88.664788
_cell_angle_beta                  89.173939
_cell_angle_gamma                 89.12696
_cell_volume                      2967.90516366

loop_
_atom_site_label
_atom_site_type_symbol
_atom_type_description
_atom_site_fract_x
_atom_site_fract_y
_atom_site_fract_z
_atom_type_partial_charge
C1    C     C_R   0.496886 0.262771 0.501811 0.869013
C2    C     C_R   0.277558 0.542236 0.387591 -0.102792
C3    C     C_R   0.252661 0.538514 0.510018 0.315760
C4    C     C_R   0.101197 0.549208 0.502976 -0.168239
C5    C     C_R   0.126021 0.435537 0.531759 -0.125966
C6    C     C_R   0.099423 0.326011 0.557689 0.544216
C7    C     C_R   0.127102 0.660967 0.482429 0.001857
C8    C     C_R   0.353121 0.511320 0.503632 -0.041913
C9    C     C_R   0.646683 0.509599 0.495275 -0.098511
C10   C     C_R   0.976113 0.437581 0.458256 0.058837
C11   C     C_R   0.973104 0.664754 0.491223 -0.068494
C12   C     C_R   0.405949 0.501652 0.500938 0.872929
C13   C     C_R   0.949211 0.550407 0.471759 0.028050
C14   C     C_R   0.952413 0.330647 0.411044 0.080120
C15   C     C_R   0.902162 0.329796 0.407753 -0.136220
C16   C     C_R   0.874894 0.434840 0.442961 -0.042223
C17   C     C_R   0.898234 0.547373 0.469176 -0.123260
C18   C     C_R   0.870522 0.656087 0.492984 -0.190780
C19   C     C_R   0.819938 0.645647 0.505332 0.529228
C20   C     C_R   0.824444 0.431162 0.447869 0.577133
C21   C     C_R   0.723426 0.504322 0.608111 -0.187705
C22   C     C_R   0.673311 0.495523 0.612953 -0.234298
C23   C     C_R   0.502564 0.736828 0.497973 0.774106
C24   C     C_R   0.670630 0.534766 0.373261 -0.336530
C25   C     C_R   0.720789 0.547424 0.368821 0.517476
C26   C     C_R   0.747025 0.528779 0.486221 0.236884
C27   C     C_R   0.025411 0.436899 0.492658 -0.016015
C28   C     C_R   0.050275 0.550501 0.493020 0.086104
C29   C     C_R   0.024481 0.664727 0.480320 0.076627
C30   C     C_R   0.049839 0.327180 0.533547 -0.358713
C31   C     C_R   0.101372 0.772985 0.452751 0.127909
C32   C     C_R   0.944483 0.772839 0.520673 -0.008847
C33   C     C_R   0.894101 0.770524 0.508078 0.542396
C34   C     C_R   0.594002 0.501217 0.498969 0.883535
C35   C     C_R   0.050837 0.773177 0.450853 -0.309221
C36   C     C_2   0.484693 0.934114 0.402465 -0.238378
C37   C     C_2   0.511672 0.867752 0.489102 0.379112
C38   C     C_2   0.488199 0.067627 0.395499 -0.126231
C39   C     C_2   0.485803 0.132561 0.507595 0.010689
C40   C     C_2   0.538034 0.481426 0.926334 -0.031578
C41   C     C_2   0.535678 0.459529 0.074725 -0.121398
C42   C     C_R   0.176697 0.435514 0.534286 0.516870
C43   C     C_R   0.177953 0.655182 0.488324 0.515227
C44   C     C_R   0.277742 0.521427 0.629300 -0.105205
C45   C     C_R   0.327821 0.508069 0.626318 -0.211578
C46   C     C_R   0.327642 0.528592 0.384201 -0.212076
H1    H     H_    0.346328 0.532031 0.288452 0.161521
H2    H     H_    0.258300 0.517358 0.723898 0.129585
H3    H     H_    0.650601 0.545270 0.281460 0.169007
H4    H     H_    0.032872 0.858425 0.419395 0.145059
H5    H     H_    0.459599 0.890209 0.336039 0.132286
H6    H     H_    0.494956 0.111253 0.298188 0.150153
H7    H     H_    0.257950 0.554096 0.295235 0.134614
H8    H     H_    0.573496 0.478098 0.878754 0.121691
H9    H     H_    0.565875 0.411861 0.122744 0.152066
H10   H     H_    0.476733 0.564025 0.104098 0.196577
H11   H     H_    0.655527 0.476727 0.708175 0.165329
H12   H     H_    0.744020 0.491752 0.698701 0.159545
H13   H     H_    0.884426 0.247113 0.374501 0.192817
H14   H     H_    0.030479 0.241962 0.552401 0.155873
H15   H     H_    0.346628 0.495048 0.719828 0.153124
N1    N     N_R   0.201105 0.543761 0.512334 -0.369956
N2    N     N_R   0.798405 0.535019 0.481152 -0.334095
N3    N     N_2   0.500520 0.501330 0.852150 -0.076782
N4    N     N_2   0.500540 0.501360 0.147810 -0.184875
O1    O     O_R   0.499990 0.319060 0.613040 -0.622686
O2    O     O_2   0.801447 0.324526 0.421355 -0.567079
O3    O     O_2   0.204391 0.759075 0.470216 -0.519698
O4    O     O_2   0.792368 0.743740 0.543637 -0.560992
O5    O     O_R   0.500010 0.319100 0.386900 -0.612406
O6    O     O_R   0.428750 0.500000 0.613050 -0.631538
O7    O     O_R   0.428760 0.500040 0.386920 -0.613668
O8    O     O_R   0.499990 0.680900 0.613100 -0.597715
O9    O     O_R   0.500010 0.680940 0.386960 -0.639055
O10   O     O_R   0.571240 0.499960 0.613080 -0.633135
O11   O     O_R   0.571250 0.500000 0.386950 -0.617794
O12   O     O_2   0.201842 0.328138 0.555234 -0.506052
Zn1   Zn    Zn3+2 0.499990 0.499970 0.650990 0.939272
Zn2   Zn    Zn3+2 0.500010 0.500030 0.349010 0.942788
N5    N     N_3   0.125946 0.887367 0.423276 -0.362166
H16   H     H_    0.113988 0.953597 0.491780 0.208413
H17   H     H_    0.115906 0.918986 0.327957 0.186223
N6    N     N_3   0.963790 0.880177 0.583337 -0.420370
H18   H     H_    0.994034 0.856554 0.640530 0.195951
H19   H     H_    0.971653 0.949101 0.511486 0.169329
O13   O     O_3   0.868525 0.882413 0.515916 -0.585819
C47   C     C_3   0.852787 0.920663 0.386699 0.147117
H20   H     H_    0.825133 0.995794 0.400031 0.199680
H21   H     H_    0.834653 0.844794 0.333264 0.129829
C48   C     C_3   0.894444 0.972271 0.300071 -0.453339
H22   H     H_    0.913519 0.043401 0.356544 0.243646
H23   H     H_    0.920639 0.896230 0.275838 0.215125
C49   C     C_3   0.876097 0.030716 0.169712 -0.895948
H24   H     H_    0.858820 0.958878 0.109033 0.268876
H25   H     H_    0.906980 0.070375 0.111651 0.275482
H26   H     H_    0.849490 0.106834 0.190083 0.276484
O14   O     O_3   0.745086 0.569923 0.249202 -0.636882
C50   C     C_3   0.735947 0.694393 0.206428 0.036817
H27   H     H_    0.742681 0.760901 0.287980 0.152254
H28   H     H_    0.697865 0.705615 0.172867 0.142475
C51   C     C_3   0.769814 0.726330 0.089100 -0.307705
H29   H     H_    0.807984 0.718016 0.122191 0.219352
H30   H     H_    0.764454 0.659330 0.007776 0.238762
C52   C     C_3   0.760312 0.858538 0.035079 -0.949782
H31   H     H_    0.722790 0.867660 0.997340 0.268422
H32   H     H_    0.785932 0.879448 0.951419 0.283405
H33   H     H_    0.765543 0.927322 0.114638 0.264570
O15   O     O_3   0.547538 0.923840 0.563195 -0.637087
C53   C     C_3   0.589485 0.846909 0.573138 0.074080
H34   H     H_    0.598997 0.804084 0.475506 0.115748
H35   H     H_    0.583723 0.772243 0.650383 0.167877
C54   C     C_3   0.632080 0.925555 0.614864 -0.365204
H36   H     H_    0.637998 0.001692 0.539463 0.236643
H37   H     H_    0.623644 0.968282 0.712682 0.229614
C55   C     C_3   0.678329 0.846550 0.626805 -0.860850
H38   H     H_    0.673580 0.771363 0.703820 0.258957
H39   H     H_    0.708656 0.906216 0.656510 0.288951
H40   H     H_    0.687770 0.804095 0.529535 0.268392
N7    N     N_3   0.469683 0.076288 0.632171 -0.407294
H41   H     H_    0.496340 0.088757 0.703481 0.225085
H42   H     H_    0.438467 0.124079 0.663766 0.171270
N8    N     N_3   0.456392 0.463546 0.906320 -0.404562
H43   H     H_    0.431345 0.535079 0.885553 0.186936
H44   H     H_    0.445756 0.386077 0.853266 0.211919
O16   O     O_3   0.122325 0.214798 0.594705 -0.598945
C56   C     C_3   0.109664 0.180574 0.728062 0.080061
H45   H     H_    0.115609 0.078232 0.739686 0.168356
H46   H     H_    0.070765 0.198247 0.752998 0.114029
C57   C     C_3   0.141960 0.245866 0.827319 -0.317687
H47   H     H_    0.180541 0.222970 0.804966 0.263039
H48   H     H_    0.136688 0.348568 0.817375 0.205839
C58   C     C_3   0.130108 0.205155 0.970920 -0.950699
H49   H     H_    0.091894 0.229259 0.996398 0.263704
H50   H     H_    0.154067 0.253833 0.040179 0.274936
H51   H     H_    0.135940 0.102954 0.984448 0.269369
N9    N     N_3   0.977791 0.230796 0.345677 -0.475176
H52   H     H_    0.982743 0.156380 0.413251 0.163232
H53   H     H_    0.011106 0.260253 0.306788 0.207577

loop_
_geom_bond_atom_site_label_1
_geom_bond_atom_site_label_2
_ccdc_geom_bond_type
C10   C27   A    
C21   C26   A    
C56   H45   S    
N4    Zn2   S    
C20   O2    S    
O11   Zn2   S    
C47   H20   S    
C22   H11   S    
C54   H37   S    
O14   C50   S    
C31   N5    S    
C2    C46   A    
C49   H24   S    
C48   C49   S    
C36   C37   D    
O7    Zn2   S    
C53   H35   S    
C5    C6    A    
N3    N8    S    
C9    C22   A    
C38   H6    S    
C55   H38   S    
O15   C53   S    
C18   C19   A    
C8    C45   A    
C54   H36   S    
C41   H9    S    
C19   N2    A    
C16   C17   A    
C55   H39   S    
C30   H14   S    
C56   H46   S    
O8    Zn1   S    
C7    C43   A    
C42   N1    A    
C16   C20   A    
C34   O10   A    
C57   C58   S    
O16   C56   S    
C12   O7    A    
C49   H25   S    
C21   C22   A    
C27   C30   A    
C15   H13   S    
C23   O8    A    
C4    C7    A    
C52   H32   S    
C52   H31   S    
C4    C28   A    
C17   C18   A    
N7    H42   S    
O1    Zn1   S    
C3    C44   A    
C7    C31   A    
C15   C16   A    
C51   H29   S    
C24   C25   A    
C37   O15   S    
N5    H17   S    
C10   C14   A    
C53   C54   S    
O13   C47   S    
N9    H52   S    
C41   N4    D    
C56   C57   S    
C25   C26   A    
C23   C37   S    
C2    H7    S    
C33   O13   S    
C48   H23   S    
N6    H18   S    
C8    C12   S    
C55   H40   S    
C35   H4    S    
C1    O1    A    
C52   H33   S    
C36   H5    S    
C25   O14   S    
C40   C41   S    
N6    H19   S    
C12   O6    A    
C11   C32   A    
C49   H26   S    
C50   H28   S    
O9    Zn2   S    
C47   H21   S    
C9    C34   S    
C31   C35   A    
C19   O4    S    
C18   C33   A    
C23   O9    A    
N8    H44   S    
C44   C45   A    
C5    C42   A    
C57   H47   S    
C51   H30   S    
C3    N1    S    
C24   H3    S    
C32   N6    S    
C46   H1    S    
C28   C29   A    
C26   N2    S    
C6    C30   A    
O5    Zn2   S    
N3    Zn1   S    
C6    O16   S    
N5    H16   S    
C10   C13   A    
N7    H41   S    
C9    C24   A    
C51   C52   S    
C50   C51   S    
C29   C35   A    
C40   H8    S    
C1    O5    A    
C40   N3    D    
C13   C17   A    
C32   C33   A    
C20   N2    A    
C36   C38   S    
C2    C3    A    
C21   H12   S    
C53   H34   S    
C11   C13   A    
C48   H22   S    
C38   C39   D    
C14   N9    S    
C58   H51   S    
C39   N7    S    
C45   H15   S    
C58   H49   S    
C54   C55   S    
O10   Zn1   S    
C8    C46   A    
C1    C39   S    
C44   H2    S    
C4    C5    A    
C11   C29   A    
C42   O12   S    
C58   H50   S    
C50   H27   S    
C47   C48   S    
N9    H53   S    
C27   C28   A    
C14   C15   A    
N8    H43   S    
O6    Zn1   S    
H10   N4    S    
C43   N1    A    
C34   O11   A    
C57   H48   S    
C43   O3    S    
