data_mof_unit_3276.cif
_audit_creation_date              2012-12-10T18:04:34-0500
_audit_creation_method            fapswitch 2.2
_symmetry_space_group_name_H-M    P1
_symmetry_Int_Tables_number       1
_space_group_crystal_system       triclinic
_cell_length_a                    19.389203
_cell_length_b                    17.62318
_cell_length_c                    12.664148
_cell_angle_alpha                 88.906792
_cell_angle_beta                  99.215621
_cell_angle_gamma                 88.658481
_cell_volume                      4269.16396961

loop_
_atom_site_label
_atom_site_type_symbol
_atom_type_description
_atom_site_fract_x
_atom_site_fract_y
_atom_site_fract_z
_atom_type_partial_charge
C1    C     C_R   0.409233 0.102019 0.441841 0.960552
C2    C     C_R   0.412404 0.895566 0.445259 0.952996
C3    C     C_R   0.909943 0.602652 0.442065 0.960488
C4    C     C_R   0.910799 0.397598 0.444090 0.957223
C5    C     C_R   0.719273 0.257223 0.540716 0.069338
C6    C     C_R   0.719529 0.752927 0.520299 0.119603
C7    C     C_R   0.239531 0.725671 0.547891 0.113121
C8    C     C_R   0.214349 0.246879 0.517597 0.116009
C9    C     C_R   0.748852 0.258364 0.650055 0.046408
C10   C     C_R   0.699736 0.692057 0.584227 0.021491
C11   C     C_R   0.254124 0.752963 0.652736 0.016720
C12   C     C_R   0.191395 0.184790 0.575387 0.021778
C13   C     C_R   0.319422 0.785209 0.683029 -0.286200
C14   C     C_R   0.213295 0.110806 0.553551 -0.257264
C15   C     C_R   0.819672 0.275467 0.675401 -0.279334
C16   C     C_R   0.719893 0.617454 0.563019 -0.253749
C17   C     C_R   0.363402 0.794165 0.606307 0.074789
C18   C     C_R   0.262496 0.099051 0.485372 0.091822
C19   C     C_R   0.858293 0.288981 0.592861 0.073055
C20   C     C_R   0.765567 0.604028 0.490306 0.090002
C21   C     C_R   0.670399 0.201850 0.506886 0.024562
C22   C     C_R   0.698647 0.827591 0.540373 -0.046420
C23   C     C_R   0.201045 0.660327 0.532322 -0.013549
C24   C     C_R   0.195806 0.321168 0.542856 -0.042555
C25   C     C_R   0.653909 0.183522 0.692614 -0.152363
C26   C     C_R   0.626042 0.780278 0.662953 -0.064814
C27   C     C_R   0.151270 0.689012 0.690927 -0.135529
C28   C     C_R   0.115697 0.272586 0.651896 -0.081846
C29   C     C_R   0.364469 0.832404 0.414412 -0.083942
C30   C     C_R   0.355536 0.160720 0.400956 -0.093804
C31   C     C_R   0.855075 0.344171 0.408577 -0.048628
C32   C     C_R   0.857509 0.662443 0.401173 -0.095570
C33   C     C_R   0.643761 0.023583 0.138762 -0.058299
C34   C     C_R   0.143523 0.524209 0.138162 -0.059818
C35   C     C_R   0.378503 0.995465 0.763757 0.740034
C36   C     C_R   0.878496 0.495460 0.763794 0.748070
C37   C     C_R   0.352937 0.996995 0.859690 -0.323364
C38   C     C_R   0.852771 0.498589 0.859551 -0.321783
C39   C     C_R   0.591622 0.899366 0.558404 0.913645
C40   C     C_R   0.588842 0.102854 0.554760 0.913939
C41   C     C_R   0.090569 0.397848 0.557762 0.896126
C42   C     C_R   0.091945 0.598790 0.557672 0.909265
C43   C     C_R   0.399160 0.002638 0.954638 -0.246790
C44   C     C_R   0.898888 0.505352 0.954391 -0.242504
C45   C     C_R   0.471990 0.005706 0.954335 -0.025139
C46   C     C_R   0.971720 0.507721 0.954169 -0.024190
C47   C     C_R   0.495885 0.004549 0.854459 -0.017516
C48   C     C_R   0.995727 0.505567 0.854369 -0.017888
C49   C     C_R   0.521803 0.008689 0.049421 0.012457
C50   C     C_R   0.021483 0.510630 0.049285 0.015673
C51   C     C_R   0.594119 0.018282 0.044361 -0.030450
C52   C     C_R   0.093768 0.519930 0.044002 -0.030239
C53   C     C_R   0.615754 0.017249 0.945688 -0.265882
C54   C     C_R   0.115425 0.518961 0.945339 -0.274265
C55   C     C_R   0.568827 0.007361 0.853951 0.635070
C56   C     C_R   0.068610 0.508425 0.853792 0.645473
C57   C     C_R   0.502877 0.000149 0.150338 0.018907
C58   C     C_R   0.002653 0.501725 0.150376 0.013570
C59   C     C_R   0.620629 0.011290 0.235338 0.167410
C60   C     C_R   0.120652 0.510577 0.234574 0.167471
C61   C     C_R   0.711350 0.228580 0.727438 -0.012720
C62   C     C_R   0.656733 0.707534 0.662424 -0.014667
C63   C     C_R   0.207400 0.736811 0.725046 -0.010800
C64   C     C_R   0.144726 0.198990 0.649062 -0.006744
C65   C     C_R   0.637355 0.164360 0.584375 -0.168351
C66   C     C_R   0.641619 0.837241 0.592933 -0.201066
C67   C     C_R   0.148598 0.649754 0.594635 -0.191762
C68   C     C_R   0.136704 0.331610 0.590102 -0.200659
C69   C     C_R   0.339679 0.817390 0.304509 -0.146171
C70   C     C_R   0.369000 0.219284 0.328288 -0.240630
C71   C     C_R   0.819989 0.348571 0.300802 -0.149884
C72   C     C_R   0.870731 0.719217 0.325477 -0.213660
C73   C     C_R   0.276609 0.778622 0.276201 -0.187758
C74   C     C_R   0.317561 0.276882 0.295986 -0.160402
C75   C     C_R   0.746521 0.342336 0.280714 -0.200410
C76   C     C_R   0.819225 0.776814 0.292413 -0.166552
C77   C     C_R   0.241134 0.752949 0.357574 0.698058
C78   C     C_R   0.262296 0.284829 0.354692 0.728244
C79   C     C_R   0.712198 0.323924 0.366875 0.664528
C80   C     C_R   0.764311 0.786085 0.351780 0.720665
C81   C     C_R   0.271476 0.757531 0.466140 -0.066711
C82   C     C_R   0.256527 0.232925 0.438887 -0.065122
C83   C     C_R   0.750720 0.298006 0.465468 -0.163772
C84   C     C_R   0.760025 0.736951 0.439723 -0.065487
C85   C     C_R   0.334148 0.795075 0.495364 -0.018136
C86   C     C_R   0.291928 0.162853 0.441282 -0.047725
C87   C     C_R   0.822543 0.309430 0.488419 -0.020487
C88   C     C_R   0.794884 0.666639 0.443615 -0.051916
H1    H     H_    0.626107 0.157935 0.751320 0.218634
H2    H     H_    0.588005 0.791865 0.714804 0.201660
H3    H     H_    0.111777 0.679758 0.741075 0.209366
H4    H     H_    0.075955 0.283929 0.700596 0.187353
H5    H     H_    0.670442 0.018064 0.937992 0.181466
H6    H     H_    0.170129 0.519617 0.937664 0.172548
H7    H     H_    0.450036 0.992549 0.163617 0.124899
H8    H     H_    0.949719 0.494779 0.163601 0.125636
H9    H     H_    0.376081 0.005366 0.026416 0.164065
H10   H     H_    0.875822 0.509535 0.026040 0.159802
H11   H     H_    0.297289 0.994178 0.860493 0.174005
H12   H     H_    0.797094 0.496146 0.860286 0.173048
H13   H     H_    0.340279 0.792259 0.766675 0.127398
H14   H     H_    0.190641 0.061649 0.585480 0.142368
H15   H     H_    0.847380 0.265428 0.755902 0.127550
H16   H     H_    0.697859 0.569181 0.598287 0.151016
H17   H     H_    0.655998 0.013822 0.310433 0.152348
H18   H     H_    0.156426 0.510952 0.308677 0.161279
N1    N     N_R   0.552340 1.000000 0.237260 -0.129076
N2    N     N_R   0.052340 0.500000 0.237260 -0.137061
N3    N     N_R   0.448170 1.000000 0.762060 -0.166297
N4    N     N_R   0.948170 0.500000 0.762060 -0.163942
O1    O     O_R   0.448200 0.076800 0.373930 -0.603145
O2    O     O_R   0.448200 0.923200 0.373930 -0.577684
O3    O     O_R   0.948200 0.576800 0.373930 -0.598606
O4    O     O_R   0.948200 0.423200 0.373930 -0.579846
O5    O     O_R   0.414750 0.076790 0.542400 -0.584910
O6    O     O_R   0.414750 0.923210 0.542400 -0.605556
O7    O     O_R   0.914750 0.576790 0.542400 -0.590876
O8    O     O_R   0.914750 0.423210 0.542400 -0.601973
O9    O     O_R   0.585240 0.923200 0.457600 -0.602491
O10   O     O_R   0.585240 0.076800 0.457600 -0.616690
O11   O     O_R   0.085240 0.423200 0.457600 -0.597858
O12   O     O_R   0.085240 0.576800 0.457600 -0.617019
O13   O     O_R   0.551780 0.923190 0.626070 -0.552749
O14   O     O_R   0.551780 0.076810 0.626070 -0.560204
O15   O     O_R   0.051780 0.423190 0.626070 -0.553388
O16   O     O_R   0.051780 0.576810 0.626070 -0.559961
Zn1   Zn    Zn3+2 0.522330 0.000000 0.387520 1.038895
Zn2   Zn    Zn3+2 0.022330 0.500000 0.387520 1.036750
Zn3   Zn    Zn3+2 0.477660 1.000000 0.612480 1.037039
Zn4   Zn    Zn3+2 0.977660 0.500000 0.612480 1.034554
C89   C     C_2   0.717892 0.044537 0.139796 0.492145
H19   H     H_    0.734866 0.069615 0.069916 0.095479
O17   O     O_2   0.761143 0.035823 0.220834 -0.532543
C90   C     C_2   0.217648 0.545097 0.138966 0.561603
H20   H     H_    0.234104 0.571921 0.069833 0.060385
O18   O     O_2   0.261422 0.534450 0.218929 -0.481130
F1    F     F_    0.333322 0.989679 0.671639 -0.708580
F2    F     F_    0.833435 0.488314 0.671861 -0.708170
F3    F     F_    0.599720 0.995589 0.769010 -0.661766
F4    F     F_    0.099559 0.495492 0.769203 -0.661387
C91   C     C_2   0.732372 0.241958 0.843575 0.419885
H21   H     H_    0.771000 0.283803 0.870742 0.065157
O19   O     O_2   0.705931 0.207169 0.910541 -0.580756
C92   C     C_2   0.641378 0.649048 0.741093 0.450805
H22   H     H_    0.672785 0.597129 0.755799 0.059704
O20   O     O_2   0.593894 0.658903 0.792574 -0.537083
C93   C     C_2   0.213906 0.771546 0.831944 0.408728
H23   H     H_    0.251069 0.815693 0.854451 0.055167
O21   O     O_2   0.176804 0.751780 0.896257 -0.539237
C94   C     C_2   0.124130 0.138729 0.720856 0.441395
H24   H     H_    0.153647 0.085578 0.735040 0.063696
O22   O     O_2   0.074195 0.148409 0.767347 -0.551844
C95   C     C_2   0.670757 0.171088 0.397788 0.468506
H25   H     H_    0.718235 0.144311 0.379319 0.047070
O23   O     O_2   0.620149 0.179204 0.327251 -0.456626
C96   C     C_2   0.740386 0.895621 0.523438 0.534987
H26   H     H_    0.716663 0.952184 0.520102 0.045093
O24   O     O_2   0.802836 0.889597 0.519862 -0.551996
C97   C     C_2   0.228189 0.595677 0.474470 0.523382
H27   H     H_    0.203252 0.541835 0.471471 0.037166
O25   O     O_2   0.282041 0.599817 0.436428 -0.501247
C98   C     C_2   0.244348 0.385653 0.546089 0.538220
H28   H     H_    0.228050 0.440361 0.571977 0.011691
O26   O     O_2   0.304518 0.377164 0.530374 -0.534278
C99   C     C_2   0.378150 0.842290 0.218266 0.477903
H29   H     H_    0.351976 0.877273 0.151655 0.015654
O27   O     O_2   0.438762 0.821391 0.219422 -0.504899
C100  C     C_2   0.437315 0.223605 0.291076 0.526715
H30   H     H_    0.440270 0.225563 0.206254 0.051608
O28   O     O_2   0.490694 0.227896 0.356036 -0.459356
C101  C     C_2   0.859058 0.363374 0.211140 0.488841
H31   H     H_    0.838677 0.403284 0.146939 0.010887
O29   O     O_2   0.914463 0.329811 0.207837 -0.513044
C102  C     C_2   0.937274 0.719647 0.281531 0.483231
H32   H     H_    0.936591 0.722752 0.195744 0.048133
O30   O     O_2   0.993371 0.718823 0.341287 -0.496331
F5    F     F_    0.641241 0.328573 0.354997 -0.564333
F6    F     F_    0.714183 0.841095 0.322413 -0.633365
F7    F     F_    0.176518 0.723565 0.331434 -0.612999
F8    F     F_    0.214269 0.342582 0.330224 -0.633355
C103  C     C_2   0.247659 0.764445 0.161836 0.531665
H33   H     H_    0.276144 0.780102 0.098126 0.030164
O31   O     O_2   0.191508 0.734368 0.136636 -0.465578
C104  C     C_2   0.324059 0.331966 0.207656 0.543052
H34   H     H_    0.372867 0.337139 0.177094 0.045623
O32   O     O_2   0.274225 0.371484 0.165851 -0.494448
C105  C     C_2   0.705625 0.353288 0.170897 0.557713
H35   H     H_    0.731499 0.361316 0.101995 0.011040
O33   O     O_2   0.641839 0.352448 0.155080 -0.449872
C106  C     C_2   0.825006 0.830411 0.201954 0.534002
H36   H     H_    0.873491 0.834987 0.170368 0.033753
O34   O     O_2   0.775092 0.869778 0.160025 -0.485901
C107  C     C_2   0.439465 0.786829 0.643273 0.479744
H37   H     H_    0.461252 0.798955 0.725421 0.052194
O35   O     O_2   0.477920 0.763538 0.582905 -0.572671
C108  C     C_2   0.271613 0.020909 0.447030 0.450924
H38   H     H_    0.257133 0.972428 0.492068 0.116063
O36   O     O_2   0.291015 0.009997 0.361360 -0.632862
C109  C     C_2   0.934173 0.271548 0.616446 0.430698
H39   H     H_    0.960359 0.269797 0.698822 0.074571
O37   O     O_2   0.966949 0.254563 0.545273 -0.569241
C110  C     C_2   0.770640 0.526009 0.449791 0.463693
H40   H     H_    0.755116 0.477932 0.494496 0.121669
O38   O     O_2   0.787796 0.515104 0.362585 -0.640527

loop_
_geom_bond_atom_site_label_1
_geom_bond_atom_site_label_2
_ccdc_geom_bond_type
C48   N4    A    
C101  H31   S    
C106  H36   S    
O12   Zn2   S    
C14   C18   A    
C17   C107  S    
C93   H23   S    
C76   C106  S    
C57   H7    S    
C36   F2    S    
C72   C76   A    
O10   Zn1   S    
C55   F3    S    
C28   C68   A    
C32   C72   A    
O3    Zn2   S    
C22   C96   S    
C103  H33   S    
C71   C101  S    
C15   C19   A    
C101  O29   D    
C2    O2    A    
C59   H17   S    
C110  O38   D    
C2    C29   S    
C9    C61   A    
C4    O4    A    
C96   H26   S    
C93   O21   D    
C19   C87   A    
C91   O19   D    
C12   C64   A    
C105  O33   D    
C39   O9    A    
C14   H14   S    
C74   C104  S    
C34   C90   S    
C23   C67   A    
C6    C22   A    
C49   C57   A    
C104  H34   S    
C45   C47   A    
C41   O11   A    
C58   H8    S    
C102  H32   S    
C22   C66   A    
O2    Zn1   S    
C3    O7    A    
C2    O6    A    
O15   Zn4   S    
C16   H16   S    
O6    Zn3   S    
C44   C46   A    
C49   C51   A    
C23   C97   S    
C70   C74   A    
C50   C52   A    
C76   C80   A    
C97   O25   D    
C27   H3    S    
C72   C102  S    
C8    C12   A    
C30   C86   A    
C73   C103  S    
C29   C85   A    
C35   N3    A    
C80   C84   A    
C4    C31   S    
C21   C65   A    
C81   C85   A    
C33   C89   S    
C100  O28   D    
C109  H39   S    
C99   O27   D    
O13   Zn3   S    
C34   C60   A    
C4    O8    A    
C10   C62   A    
C44   H10   S    
C21   C95   S    
C25   C61   A    
C63   C93   S    
C30   C70   A    
C52   C54   A    
C38   C44   A    
C41   C68   S    
C29   C69   A    
C53   C55   A    
C40   O14   A    
C46   C48   A    
C71   C75   A    
C58   N2    A    
C6    C84   A    
C110  H40   S    
C39   O13   A    
C18   C108  S    
C26   C66   A    
C41   O15   A    
C31   C87   A    
O11   Zn2   S    
C92   O20   D    
C3    O3    A    
C103  O31   D    
C18   C86   A    
C24   C68   A    
C92   H22   S    
C90   O18   D    
C25   H1    S    
C107  O35   D    
C82   C86   A    
C53   H5    S    
C59   N1    A    
C64   C94   S    
C51   C53   A    
C80   F6    S    
C37   C43   A    
C7    C11   A    
C5    C9    A    
O8    Zn4   S    
C70   C100  S    
O4    Zn2   S    
C78   C82   A    
C97   H27   S    
C56   F4    S    
C45   C49   A    
C26   H2    S    
C16   C20   A    
C79   F5    S    
C50   C58   A    
C25   C65   A    
C28   H4    S    
C42   O12   A    
C77   F7    S    
N2    Zn2   S    
C69   C73   A    
O7    Zn4   S    
C43   C45   A    
C109  O37   D    
C27   C63   A    
C28   C64   A    
C38   H12   S    
C100  H30   S    
C7    C81   A    
C12   C14   A    
C107  H37   S    
C40   C65   S    
C36   N4    A    
C42   C67   S    
C39   C66   S    
C17   C85   A    
C95   O23   D    
C13   H13   S    
C89   H19   S    
C37   H11   S    
C60   H18   S    
C35   C37   A    
C47   C55   A    
C98   H28   S    
O5    Zn3   S    
C61   C91   S    
C48   C56   A    
C106  O34   D    
C40   O10   A    
C34   C52   A    
C75   C105  S    
C43   H9    S    
C62   C92   S    
C108  H38   S    
C89   O17   D    
C60   N2    A    
C83   C87   A    
C6    C10   A    
C5    C83   A    
C90   H20   S    
C33   C51   A    
C46   C50   A    
O1    Zn1   S    
C19   C109  S    
C13   C17   A    
C78   F8    S    
C96   O24   D    
C26   C62   A    
N1    Zn1   S    
C105  H35   S    
C98   O26   D    
C47   N3    A    
C91   H21   S    
C1    O1    A    
C36   C38   A    
N3    Zn3   S    
C11   C13   A    
C84   C88   A    
C75   C79   A    
C7    C23   A    
C20   C88   A    
C31   C71   A    
C1    C30   S    
C8    C24   A    
C102  O30   D    
C104  O32   D    
O14   Zn3   S    
N4    Zn4   S    
C94   O22   D    
C54   C56   A    
C9    C15   A    
C3    C32   S    
C69   C99   S    
C54   H6    S    
C108  O36   D    
C27   C67   A    
C42   O16   A    
C20   C110  S    
C79   C83   A    
C99   H29   S    
C8    C82   A    
C5    C21   A    
C73   C77   A    
C33   C59   A    
C77   C81   A    
C74   C78   A    
C57   N1    A    
O16   Zn4   S    
C94   H24   S    
C10   C16   A    
C1    O5    A    
C15   H15   S    
C95   H25   S    
C11   C63   A    
C24   C98   S    
C35   F1    S    
O9    Zn1   S    
C32   C88   A    
