data_mof_unit_3859.cif
_audit_creation_date              2012-12-10T17:45:35-0500
_audit_creation_method            fapswitch 2.2
_symmetry_space_group_name_H-M    P1
_symmetry_Int_Tables_number       1
_space_group_crystal_system       triclinic
_cell_length_a                    11.538279
_cell_length_b                    10.624601
_cell_length_c                    9.930082
_cell_angle_alpha                 92.388658
_cell_angle_beta                  89.728911
_cell_angle_gamma                 91.022782
_cell_volume                      1216.06368485

loop_
_atom_site_label
_atom_site_type_symbol
_atom_type_description
_atom_site_fract_x
_atom_site_fract_y
_atom_site_fract_z
_atom_type_partial_charge
C1    C     C_R   0.502312 0.260777 0.497035 0.868522
C2    C     C_R   0.490779 0.873380 0.514942 -0.113294
C3    C     C_R   0.351795 0.333195 0.133929 -0.142461
C4    C     C_R   0.282073 0.498076 0.500058 0.862683
C5    C     C_R   0.277742 0.251482 0.061166 -0.191240
C6    C     C_R   0.275687 0.252915 0.921906 -0.188296
C7    C     C_R   0.348095 0.335617 0.854577 -0.134433
C8    C     C_R   0.425727 0.418694 0.924793 0.167285
C9    C     C_R   0.426606 0.418082 0.069240 0.161665
C10   C     C_R   0.570384 0.578287 0.074542 -0.100624
C11   C     C_R   0.570512 0.578091 0.931549 -0.117216
C12   C     C_R   0.177130 0.069676 0.506940 -0.189380
C13   C     C_R   0.490105 0.739311 0.503731 0.916645
C14   C     C_R   0.717939 0.500316 0.499754 0.903063
C15   C     C_1   0.161535 0.496998 0.500206 -0.198850
C16   C     C_1   0.059337 0.497155 0.499947 -0.007385
C17   C     C_1   0.940657 0.498297 0.499462 -0.003125
C18   C     C_1   0.838454 0.499413 0.499287 -0.190738
C19   C     C_R   0.282665 0.131338 0.488204 -0.257797
C20   C     C_3   0.058023 0.888422 0.588076 -0.924861
C21   C     C_3   0.278372 0.796574 0.696451 -0.857104
C22   C     C_3   0.710129 0.865406 0.476019 -0.897447
C23   C     C_R   0.173966 0.949208 0.558147 0.267846
C24   C     C_R   0.279490 0.889020 0.585301 0.145041
C25   C     C_R   0.385824 0.940634 0.535342 -0.011182
C26   C     C_R   0.387613 0.067595 0.503474 0.066421
C27   C     C_R   0.495300 0.128470 0.489866 -0.103551
C28   C     C_R   0.598917 0.064558 0.484742 -0.205571
C29   C     C_R   0.597481 0.935306 0.491087 0.187062
H1    H     H_    0.680379 0.115927 0.474072 0.137972
H2    H     H_    0.985641 0.943010 0.547974 0.231859
H3    H     H_    0.053578 0.792196 0.540082 0.254666
H4    H     H_    0.044627 0.882821 0.698342 0.244968
H5    H     H_    0.244283 0.704427 0.658920 0.255806
H6    H     H_    0.363793 0.790091 0.745113 0.260899
H7    H     H_    0.221339 0.830436 0.780113 0.228574
H8    H     H_    0.725932 0.811732 0.567555 0.238664
H9    H     H_    0.706374 0.799223 0.386613 0.246212
H10   H     H_    0.785016 0.930697 0.462105 0.230904
H11   H     H_    0.217460 0.189683 0.865428 0.159402
H12   H     H_    0.339962 0.331499 0.747898 0.205787
H13   H     H_    0.628148 0.641989 0.880426 0.148443
H14   H     H_    0.281484 0.227699 0.457357 0.134504
H15   H     H_    0.097769 0.119188 0.488959 0.150957
H16   H     H_    0.627961 0.642348 0.130611 0.147969
H17   H     H_    0.347961 0.327157 0.240449 0.199544
H18   H     H_    0.221255 0.187055 0.113387 0.155169
N1    N     N_R   0.498930 0.498800 0.142780 -0.120603
N2    N     N_R   0.498900 0.498720 0.857170 -0.119918
O1    O     O_R   0.500000 0.316780 0.614690 -0.625985
O2    O     O_R   0.499990 0.316750 0.385360 -0.638116
O3    O     O_R   0.334450 0.500030 0.614670 -0.638399
O4    O     O_R   0.334440 0.500000 0.385330 -0.625552
O5    O     O_R   0.500010 0.683250 0.614640 -0.624207
O6    O     O_R   0.500000 0.683220 0.385310 -0.609348
O7    O     O_R   0.665560 0.500000 0.614670 -0.605419
O8    O     O_R   0.665550 0.499970 0.385330 -0.608914
Zn1   Zn    Zn3+2 0.500010 0.500020 0.653130 0.932204
Zn2   Zn    Zn3+2 0.499990 0.499980 0.346870 0.940280

loop_
_geom_bond_atom_site_label_1
_geom_bond_atom_site_label_2
_ccdc_geom_bond_type
C14   O7    A    
C23   C24   A    
C14   O8    A    
C6    C7    A    
C3    C9    A    
C22   C29   S    
O6    Zn2   S    
C4    O4    A    
C5    H18   S    
C1    O1    A    
C14   C18   S    
C3    H17   S    
C21   H5    S    
C20   C23   S    
C10   H16   S    
C28   H1    S    
C17   C18   T    
O4    Zn2   S    
C7    C8    A    
C12   H15   S    
C21   H7    S    
C20   H3    S    
C1    O2    A    
C12   C23   A    
C26   C27   A    
O3    Zn1   S    
C4    O3    A    
C2    C29   A    
C21   H6    S    
C22   H10   S    
C12   C19   A    
C28   C29   A    
C19   H14   S    
C2    C25   A    
C7    H12   S    
C4    C15   S    
C10   N1    A    
C5    C6    A    
C6    H11   S    
O8    Zn2   S    
O2    Zn2   S    
C10   C11   A    
C20   H4    S    
C15   C16   T    
O1    Zn1   S    
C9    N1    A    
C24   C25   A    
C19   C26   A    
N1    Zn2   S    
C13   O5    A    
O5    Zn1   S    
C21   C24   S    
C27   C28   A    
C1    C27   S    
C2    C13   S    
C16   C17   S    
C11   N2    A    
C11   H13   S    
C13   O6    A    
C25   C26   A    
C22   H8    S    
C8    N2    A    
N2    Zn1   S    
O7    Zn1   S    
C8    C9    A    
C3    C5    A    
C20   H2    S    
C22   H9    S    
