data_mof_unit_2436.cif
_audit_creation_date              2012-12-10T16:50:07-0500
_audit_creation_method            fapswitch 2.2
_symmetry_space_group_name_H-M    P1
_symmetry_Int_Tables_number       1
_space_group_crystal_system       triclinic
_cell_length_a                    7.770037
_cell_length_b                    8.618262
_cell_length_c                    10.601456
_cell_angle_alpha                 90.880978
_cell_angle_beta                  85.751604
_cell_angle_gamma                 93.841594
_cell_volume                      706.338091466

loop_
_atom_site_label
_atom_site_type_symbol
_atom_type_description
_atom_site_fract_x
_atom_site_fract_y
_atom_site_fract_z
_atom_type_partial_charge
C1    C     C_R   0.545104 0.794770 0.497987 0.948629
C2    C     C_R   0.453372 0.205713 0.502549 0.846137
C3    C     C_R   0.498648 0.502050 0.260619 0.849614
C4    C     C_R   0.428864 0.787688 0.875867 -0.164346
C5    C     C_R   0.390170 0.921156 0.945563 -0.111978
C6    C     C_R   0.387619 0.920277 0.076996 -0.159215
C7    C     C_R   0.422994 0.785712 0.139060 -0.186233
C8    C     C_R   0.459935 0.648864 0.069866 0.105522
C9    C     C_3   0.150456 0.977804 0.450002 -0.227887
C10   C     C_R   0.464154 0.650126 0.937634 0.081562
C11   C     C_R   0.507950 0.513680 0.871204 -0.087426
C12   C     C_R   0.551479 0.381084 0.931126 -0.199748
C13   C     C_R   0.545981 0.379495 0.060209 -0.218674
C14   C     C_R   0.497802 0.510747 0.128409 -0.082916
C15   C     C_2   0.564657 0.958263 0.492302 -0.526567
C16   C     C_2   0.424560 0.043058 0.508635 0.328756
C17   C     C_R   0.502517 0.503583 0.739251 0.862785
H1    H     H_    0.585654 0.277767 0.877802 0.149213
H2    H     H_    0.211095 0.926482 0.362122 0.138091
H3    H     H_    0.108936 0.095275 0.430731 0.153014
H4    H     H_    0.032087 0.903414 0.477813 0.185619
H5    H     H_    0.986406 0.617403 0.594362 0.203504
H6    H     H_    0.433097 0.793984 0.773893 0.155020
H7    H     H_    0.363628 0.025849 0.897402 0.148009
H8    H     H_    0.359288 0.024328 0.130976 0.124350
H9    H     H_    0.423496 0.790356 0.240854 0.134629
H10   H     H_    0.577831 0.275459 0.107362 0.143631
H11   H     H_    0.694698 0.009107 0.468540 0.153382
H12   H     H_    0.013647 0.382793 0.405505 0.184405
N1    N     N_2   0.950330 0.457950 0.466250 -0.172722
N2    N     N_2   0.049670 0.542050 0.533750 -0.165621
O1    O     O_R   0.389250 0.738570 0.508280 -0.557941
O2    O     O_R   0.678390 0.711630 0.486650 -0.638930
O3    O     O_R   0.355400 0.513470 0.694050 -0.607589
O4    O     O_R   0.644540 0.486530 0.672420 -0.617373
O5    O     O_R   0.321610 0.288370 0.513350 -0.607250
O6    O     O_R   0.610750 0.261430 0.491720 -0.643853
O7    O     O_R   0.355460 0.513470 0.327580 -0.636787
O8    O     O_R   0.644600 0.486530 0.305950 -0.608668
O9    O     O_3   0.260259 0.981467 0.550676 -0.578356
Zn1   Zn    Zn3+2 0.306930 0.517990 0.514440 0.965742
Zn2   Zn    Zn3+2 0.693070 0.482010 0.485560 0.938469

loop_
_geom_bond_atom_site_label_1
_geom_bond_atom_site_label_2
_ccdc_geom_bond_type
C17   O3    A    
O1    Zn1   S    
C6    C7    A    
C1    C15   S    
C3    C14   S    
C2    C16   S    
C9    H3    S    
C11   C12   A    
C5    H7    S    
C15   H11   S    
C3    O8    A    
C7    C8    A    
N2    Zn1   S    
C13   C14   A    
C7    H9    S    
C2    O6    A    
C9    H4    S    
O5    Zn1   S    
H12   N1    S    
O3    Zn1   S    
C16   O9    S    
C5    C6    A    
O2    Zn2   S    
O8    Zn2   S    
C9    O9    S    
N1    N2    D    
C6    H8    S    
H5    N2    S    
C1    O2    A    
C15   C16   D    
C2    O5    A    
C12   C13   A    
O7    Zn1   S    
C8    C10   A    
C10   C11   A    
C12   H1    S    
O6    Zn2   S    
C4    H6    S    
O4    Zn2   S    
N1    Zn2   S    
C8    C14   A    
C17   O4    A    
C4    C10   A    
C9    H2    S    
C1    O1    A    
C13   H10   S    
C3    O7    A    
C4    C5    A    
C11   C17   S    
