data_mof_unit_4007.cif
_audit_creation_date              2013-03-05T16:17:07-0500
_audit_creation_method            fapswitch 2.2
_symmetry_space_group_name_H-M    P1
_symmetry_Int_Tables_number       1
_space_group_crystal_system       triclinic
_cell_length_a                    8.389911
_cell_length_b                    18.866172
_cell_length_c                    19.105274
_cell_angle_alpha                 101.638803
_cell_angle_beta                  94.77677
_cell_angle_gamma                 91.031282
_cell_volume                      2949.7451107

loop_
_atom_site_label
_atom_site_type_symbol
_atom_site_description
_atom_site_fract_x
_atom_site_fract_y
_atom_site_fract_z
_atom_type_partial_charge
P1    P     P_3+3 0.945300 0.665790 0.568510 0.501161
O1    O     O_2   0.117290 0.676350 0.548250 -0.366679
O2    O     O_3   0.869060 0.586940 0.542720 -0.388515
O3    O     O_3   0.356990 0.628630 0.417250 -0.310916
O4    O     O_2   0.245492 0.753875 0.472580 -0.372990
O5    O     O_3   0.972415 0.685885 0.662323 -0.564559
O6    O     O_3   0.292318 0.744065 0.340374 -0.527580
C1    C     C_3   0.387840 0.812040 0.255876 -0.746456
H1    H     H_    0.371247 0.860562 0.297378 0.174348
P2    P     P_3+3 0.360080 0.438780 0.334620 0.493631
P3    P     P_3+3 0.903484 0.586364 0.285851 0.558595
O7    O     O_2   0.186600 0.460070 0.325400 -0.344578
O8    O     O_3   0.942970 0.591450 0.378940 -0.396599
O9    O     O_2   0.017048 0.531155 0.246631 -0.318897
O10   O     O_3   0.322825 0.345269 0.310168 -0.616219
O11   O     O_3   0.967722 0.670862 0.271771 -0.424691
C2    C     C_3   0.904528 0.724115 0.324212 0.488937
H2    H     H_    0.970696 0.725597 0.377393 0.114691
H3    H     H_    0.776076 0.712698 0.328710 -0.048771
C3    C     C_3   0.921431 0.799732 0.307295 -0.711066
H4    H     H_    0.049624 0.815672 0.309202 0.211764
C4    C     C_3   0.970786 0.311257 0.304566 0.004817
H5    H     H_    0.067320 0.343178 0.340284 0.132158
C5    C     C_3   0.019370 0.231470 0.287536 0.076333
H6    H     H_    0.123341 0.225691 0.255104 0.170997
H7    H     H_    0.057756 0.213159 0.337500 0.124180
Ba1   Ba    Ba6+2 0.153490 0.533960 0.468530 1.679837
C6    C     C_3   0.012176 0.623598 0.688049 0.352142
H8    H     H_    0.120724 0.600577 0.664611 0.100448
H9    H     H_    0.912101 0.582583 0.675092 0.128140
C7    C     C_3   0.044825 0.644669 0.769216 -0.858159
H10   H     H_    0.145752 0.685128 0.783336 0.315667
H11   H     H_    0.074933 0.596716 0.792157 0.209759
H12   H     H_    0.937680 0.668831 0.793438 0.238529
C8    C     C_3   0.463386 0.307469 0.306424 0.736437
H13   H     H_    0.563137 0.340638 0.337992 0.141981
C9    C     C_3   0.504606 0.283995 0.228130 -0.920376
H14   H     H_    0.624758 0.261354 0.227266 0.246692
H15   H     H_    0.512029 0.332526 0.204146 0.204338
P4    P     P_3+3 0.865000 0.334200 0.431430 0.513578
O12   O     O_2   0.693010 0.323600 0.451730 -0.308285
O13   O     O_3   0.941240 0.413050 0.457220 -0.396417
O14   O     O_3   0.453310 0.371360 0.582690 -0.360656
O15   O     O_3   0.827714 0.317818 0.337923 -0.589229
P5    P     P_3+3 0.893908 0.406958 0.711933 0.572880
O16   O     O_3   0.371310 0.539060 0.587050 -0.325943
O17   O     O_3   0.867330 0.408540 0.621000 -0.377221
O18   O     O_2   0.762858 0.454611 0.746254 -0.272612
O19   O     O_3   0.840790 0.319800 0.722856 -0.431987
Ba2   Ba    Ba6+2 0.656680 0.466030 0.531410 1.667211
P6    P     P_3+3 0.372806 0.723372 0.422063 0.501859
C10   C     C_3   0.409318 0.745276 0.291450 0.316254
H16   H     H_    0.532024 0.750584 0.318442 -0.028758
H17   H     H_    0.499991 0.822077 0.231878 0.195598
O20   O     O_3   0.438990 0.460930 0.412890 -0.364002
C11   C     C_3   0.558337 0.682475 0.764429 0.754360
H18   H     H_    0.655000 0.644595 0.770925 0.018334
C12   C     C_3   0.639177 0.750717 0.749685 0.080777
H19   H     H_    0.734240 0.771787 0.793330 0.122119
H20   H     H_    0.696296 0.737289 0.698644 0.076938
P7    P     P_3+3 0.442990 0.559846 0.679548 0.512596
O21   O     O_2   0.623700 0.539890 0.674570 -0.340661
O22   O     O_3   0.440538 0.654636 0.707898 -0.609174
H21   H     H_    0.868642 0.838907 0.349739 0.129457
C13   C     C_3   0.977113 0.277415 0.717735 0.687803
H22   H     H_    0.010954 0.266643 0.661559 0.017104
H23   H     H_    0.078922 0.304925 0.754661 -0.583809
C14   C     C_3   0.945222 0.205006 0.739736 -0.022958
H24   H     H_    0.054641 0.173206 0.734383 0.077068
P8    P     P_3+3 0.440287 0.277592 0.571477 0.589996
C15   C     C_3   0.408301 0.273113 0.705211 1.031396
H25   H     H_    0.291774 0.291798 0.685252 -0.141768
O23   O     O_2   0.569264 0.249324 0.521180 -0.268897
O24   O     O_3   0.516619 0.256164 0.652536 -0.447644
H26   H     H_    0.316309 0.163172 0.695963 0.192507
C16   C     C_3   0.380116 0.206635 0.736976 -0.811994
H27   H     H_    0.307852 0.220589 0.783615 0.244480
H28   H     H_    0.495798 0.185987 0.755545 0.311929
C17   C     C_R   0.005985 0.949741 0.526590 0.049557
C18   C     C_R   0.097163 0.903207 0.561885 0.088467
C19   C     C_R   0.249741 0.926136 0.594135 -0.146841
C20   C     C_R   0.312832 0.993800 0.590392 -0.093702
C21   C     C_R   0.223793 0.041486 0.555287 -0.014256
C22   C     C_R   0.067644 0.020147 0.525135 -0.008296
C23   C     C_R   0.290389 0.108657 0.548368 0.361092
C24   C     C_R   0.192076 0.162075 0.524389 -0.160828
C25   C     C_R   0.033700 0.139959 0.493457 0.016676
C26   C     C_R   0.975357 0.067908 0.491729 0.017640
C27   C     C_R   0.242207 0.236205 0.529792 0.197076
C28   C     C_R   0.136999 0.284479 0.503995 -0.417620
C29   C     C_R   0.985181 0.262901 0.469294 0.184167
C30   C     C_R   0.934588 0.188545 0.462054 -0.021159
C31   C     C_R   0.853264 0.926073 0.493432 -0.008072
C32   C     C_R   0.792390 0.855353 0.494553 0.010384
C33   C     C_R   0.886885 0.807768 0.529117 -0.076573
C34   C     C_R   0.035676 0.834408 0.564941 -0.066759
H29   H     H_    0.321737 0.891247 0.621620 0.202235
H30   H     H_    0.431335 0.008590 0.616727 0.212847
H31   H     H_    0.176539 0.340341 0.509068 0.165629
H32   H     H_    0.104878 0.802786 0.596852 0.191238
C35   C     C_R   0.789226 0.160556 0.423212 -0.071203
C36   C     C_R   0.732038 0.089561 0.421643 0.140920
C37   C     C_R   0.823237 0.043612 0.457520 0.065078
C38   C     C_R   0.761902 0.973079 0.458779 0.045761
C39   C     C_R   0.581551 0.064391 0.386755 -0.050334
C40   C     C_R   0.518031 0.996517 0.390976 -0.169288
C41   C     C_R   0.607263 0.950324 0.426755 0.140192
C42   C     C_R   0.636011 0.833080 0.462258 -0.037858
C43   C     C_R   0.543565 0.882198 0.431375 -0.245210
C44   C     C_R   0.572890 0.764342 0.466837 0.118373
C45   C     C_R   0.659043 0.724696 0.511441 -0.292302
C46   C     C_R   0.824116 0.737505 0.531559 0.125209
H33   H     H_    0.719132 0.193960 0.394094 0.208493
H34   H     H_    0.509911 0.097819 0.357933 0.190454
H35   H     H_    0.398685 0.980332 0.366136 0.140067
H36   H     H_    0.419496 0.868779 0.413194 0.164907
N1    N     N_R   0.427047 0.542825 0.971550 0.005224
N2    N     N_R   0.481954 0.544778 0.039210 -0.021073
C47   C     C_2   0.582731 0.531689 0.297926 -0.401148
C48   C     C_3   0.684379 0.565735 0.251013 0.078882
C49   C     C_2   0.650418 0.534548 0.172345 -0.011892
C50   C     C_2   0.514161 0.494237 0.148100 0.014299
C51   C     C_2   0.419736 0.466035 0.201028 -0.259285
C52   C     C_1   0.464182 0.483216 0.271211 0.196123
N3    N     N_R   0.353286 0.433127 0.035090 -0.032077
N4    N     N_R   0.299464 0.430853 0.966641 -0.037345
C53   C     C_R   0.337795 0.485292 0.933015 0.259662
C54   C     C_R   0.448913 0.489627 0.072241 0.149344
C55   C     C_R   0.389384 0.511257 0.810845 0.441657
C56   C     C_R   0.338814 0.508429 0.737503 0.163649
C57   C     C_R   0.092803 0.444819 0.751936 0.250183
C58   C     C_R   0.139974 0.449270 0.824859 -0.218744
C59   C     C_R   0.288852 0.481747 0.855231 -0.067823
C60   C     C_R   0.194102 0.472307 0.708588 -0.528740
H37   H     H_    0.720146 0.556359 0.135624 0.159273
H38   H     H_    0.307774 0.435852 0.182049 0.202739
H39   H     H_    0.060045 0.427903 0.857874 0.187491
H40   H     H_    0.155399 0.469469 0.652587 0.158297
C61   C     C_2   0.396170 0.676693 0.235262 1.033284
O25   O     O_2   0.479291 0.669918 0.184952 -0.660851
O26   O     O_R   0.280103 0.623581 0.237456 -0.684460
H41   H     H_    0.263886 0.586636 0.190807 0.331745
Cl1   Cl    Cl    0.863099 0.171076 0.239946 -0.576391
Cl2   Cl    Cl    0.431989 0.232521 0.347335 -0.736344
C62   C     C_2   0.251180 0.808190 0.198198 1.161736
O27   O     O_2   0.229594 0.860556 0.170347 -0.557313
O28   O     O_R   0.151045 0.746359 0.175702 -0.752697
H42   H     H_    0.069796 0.750704 0.134581 0.344294
C63   C     C_2   0.388249 0.229268 0.180870 1.306335
O29   O     O_2   0.295655 0.248530 0.136218 -0.524577
O30   O     O_R   0.390065 0.155889 0.184038 -0.704392
H43   H     H_    0.481271 0.144045 0.217445 0.346627
Cl3   Cl    Cl    0.466279 0.705513 0.846798 -0.541314
Cl4   Cl    Cl    0.501013 0.820784 0.743817 -0.497488
Cl5   Cl    Cl    0.793960 0.151620 0.680885 -0.525442
C64   C     C_2   0.904162 0.215351 0.816200 1.131860
O31   O     O_2   0.781803 0.245377 0.834277 -0.540798
O32   O     O_R   0.007081 0.190330 0.866540 -0.766166
H44   H     H_    0.967582 0.200427 0.916199 0.359468
Cl6   Cl    Cl    0.496150 0.343063 0.774849 -0.521348
Cl7   Cl    Cl    0.500882 0.114277 0.555931 -0.576632
C65   C     C_2   0.562140 0.690415 0.555948 1.060208
O33   O     O_2   0.583270 0.628583 0.562590 -0.543911
O34   O     O_R   0.441590 0.730625 0.589230 -0.767995
H45   H     H_    0.366781 0.700863 0.610845 0.381524
Cl8   Cl    Cl    0.584316 0.543914 0.845367 -0.567286
C66   C     C_2   0.649254 0.540522 0.370832 1.095061
O35   O     O_2   0.647324 0.598825 0.411596 -0.665189
O36   O     O_R   0.738889 0.485492 0.389219 -0.771374
H46   H     H_    0.808609 0.506083 0.433962 0.398707
C67   C     C_2   0.838988 0.806309 0.236080 1.139736
O37   O     O_2   0.834107 0.865794 0.220001 -0.588408
O38   O     O_R   0.770644 0.745446 0.188028 -0.747490
H47   H     H_    0.720764 0.757621 0.141913 0.349383
C68   C     C_2   0.952747 0.342438 0.236961 1.158482
O39   O     O_2   0.055333 0.332084 0.194775 -0.571163
O40   O     O_R   0.825461 0.385599 0.222281 -0.768252
H48   H     H_    0.754827 0.398942 0.262832 0.293216

loop_
_geom_bond_atom_site_label_1
_geom_bond_atom_site_label_2
_geom_bond_distance
_ccdc_geom_bond_type
P2    Ba1   3.430891 S    
C1    H1    1.102813 S    
C25   C26   1.429591 A    
N4    C53   1.363718 A    
C20   H30   1.081459 S    
O36   H46   0.999174 S    
O12   Ba2   2.843794 S    
C33   C34   1.405602 A    
C67   O37   1.222367 D    
C57   C60   1.397066 A    
C26   C37   1.409000 A    
C4    C68   1.521343 S    
C40   H35   1.082795 S    
C63   O29   1.219914 D    
C51   C52   1.333797 D    
C66   O36   1.377708 S    
O38   H47   1.013801 S    
C11   H18   1.106227 S    
C15   Cl6   1.774306 S    
C67   O38   1.397623 S    
C32   C42   1.421032 A    
C35   C36   1.408328 A    
O19   C13   1.406109 S    
C55   Cl8   1.763365 S    
C21   C22   1.404270 A    
O34   H45   1.001878 S    
C8    C9    1.541958 S    
C16   H28   1.109785 S    
O6    C10   1.413647 S    
C55   C56   1.419972 A    
P2    C52   1.868930 S    
C33   C46   1.428501 A    
C63   O30   1.398153 S    
P1    C46   1.917830 S    
C23   C24   1.434975 A    
C17   C22   1.423132 A    
P3    O9    1.547227 D    
Ba1   O20   2.952596 S    
C40   C41   1.402079 A    
C5    Cl1   1.781458 S    
C12   H20   1.107822 S    
P3    O8    1.764610 S    
C2    C3    1.531713 S    
C23   Cl7   1.759407 S    
C42   C43   1.406659 A    
C36   C39   1.405139 A    
P1    O1    1.544508 D    
P7    O22   1.761888 S    
C44   C45   1.407907 A    
C12   Cl4   1.788014 S    
C43   H36   1.078469 S    
C64   O32   1.397496 S    
C4    O15   1.401162 S    
O28   H42   1.013610 S    
C42   C44   1.413726 A    
O11   C2    1.412725 S    
C13   H23   1.110234 S    
P8    O24   1.751744 S    
N3    C54   1.361174 A    
C11   Cl3   1.788977 S    
O30   H43   1.012524 S    
C7    H11   1.106410 S    
O1    Ba1   2.843244 S    
C18   C34   1.402052 A    
C1    C10   1.553735 S    
P7    O21   1.574668 D    
Ba1   Ba2   4.660726 S    
C8    Cl2   1.773825 S    
C14   Cl5   1.774421 S    
P4    O13   1.575559 S    
N3    N4    1.339487 A    
C25   C30   1.434534 A    
C41   C43   1.405082 A    
C56   C60   1.396524 A    
C45   C65   1.456149 S    
N2    C54   1.356989 A    
P3    C48   1.907801 S    
C31   C38   1.410376 A    
O10   C8    1.388582 S    
C62   O28   1.397709 S    
O2    Ba2   2.831222 S    
C62   O27   1.222484 D    
O17   Ba2   2.746600 S    
C65   O34   1.393859 S    
C16   H27   1.109926 S    
P5    O17   1.739389 S    
O5    C6    1.397715 S    
C7    H12   1.108587 S    
C50   C51   1.506189 S    
O16   P7    1.781396 S    
P1    O5    1.750061 S    
C53   C59   1.496263 S    
C39   H34   1.077430 S    
C5    H6    1.105852 S    
C68   O40   1.398466 S    
C1    H17   1.109903 S    
C29   C30   1.434454 A    
C24   C25   1.427831 A    
C14   H24   1.106267 S    
O7    Ba1   2.846145 S    
C12   H19   1.110638 S    
C47   C52   1.334338 D    
C19   C20   1.390584 A    
P1    O2    1.575557 S    
C8    H13   1.095696 S    
C64   O31   1.222735 D    
C3    H21   1.108941 S    
H26   C16   1.108168 S    
C9    H14   1.101971 S    
P3    O11   1.752241 S    
C68   O39   1.219259 D    
P5    O19   1.753172 S    
C47   C48   1.510987 S    
C13   C14   1.533520 S    
C9    C63   1.508332 S    
P8    O23   1.538170 D    
C2    H2    1.111443 S    
C11   O22   1.412010 S    
C32   C33   1.431143 A    
C31   C32   1.424875 A    
C49   H37   1.086243 S    
P2    O20   1.556305 S    
N1    C53   1.355505 A    
C49   C50   1.355792 D    
P2    O7    1.522393 D    
P7    C56   1.869458 S    
O13   Ba2   2.964092 S    
C55   C59   1.425900 A    
C30   C35   1.408860 A    
Ba1   O16   2.773602 S    
P4    O12   1.544902 D    
C21   C23   1.410672 A    
P5    C57   1.844809 S    
O14   P8    1.738850 S    
C6    C7    1.521314 S    
O32   H44   1.013868 S    
Ba2   O21   2.846269 S    
C4    C5    1.544161 S    
P8    C27   1.867545 S    
C57   C58   1.401609 A    
C47   C66   1.432808 S    
C28   H31   1.082126 S    
C66   O35   1.213987 D    
O3    Ba1   2.817755 S    
C10   H16   1.105823 S    
C65   O33   1.213162 D    
P5    O18   1.537827 D    
C1    C62   1.512778 S    
C6    H8    1.105545 S    
C45   C46   1.409267 A    
P2    O10   1.746893 S    
C4    H5    1.099492 S    
C7    H10   1.108167 S    
O4    P6    1.540561 D    
C22   C26   1.411940 A    
C5    H7    1.104595 S    
C18   C19   1.395212 A    
C14   C64   1.504025 S    
C24   C27   1.434167 A    
C60   H40   1.082324 S    
C15   O24   1.404931 S    
C61   O25   1.221394 D    
O14   Ba2   2.817074 S    
C17   C31   1.404470 A    
P6    C44   1.895922 S    
C39   C40   1.398035 A    
O16   Ba2   2.951667 S    
Ba2   O20   2.772959 S    
C51   H38   1.085738 S    
O3    P6    1.773136 S    
O2    Ba1   2.963163 S    
C58   H39   1.083214 S    
O6    P6    1.767481 S    
C10   C61   1.501144 S    
C9    H15   1.106410 S    
N1    N2    1.328749 A    
C61   O26   1.393806 S    
Ba1   O13   2.830558 S    
C28   C29   1.399816 A    
C15   C16   1.522350 S    
C19   H29   1.083871 S    
P4    Ba2   3.418312 S    
C34   H32   1.079347 S    
C6    H9    1.108913 S    
C2    H3    1.108939 S    
C11   C12   1.530900 S    
C58   C59   1.407338 A    
C13   H22   1.112938 S    
P4    C29   1.915560 S    
C50   C54   1.490967 S    
C36   C37   1.408209 A    
C35   H33   1.073663 S    
O40   H48   1.008927 S    
C17   C18   1.409893 A    
P4    O15   1.750873 S    
C3    C67   1.503167 S    
C15   H25   1.109068 S    
C3    H4    1.107222 S    
C20   C21   1.414734 A    
C37   C38   1.423529 A    
P1    Ba1   3.417689 S    
C48   C49   1.500715 S    
O8    Ba1   2.745949 S    
C27   C28   1.410357 A    
O26   H41   1.012113 S    
C38   C41   1.408426 A    
