data_mof_unit_3718.cif
_audit_creation_date              2012-12-10T20:41:51-0500
_audit_creation_method            fapswitch 2.2
_symmetry_space_group_name_H-M    P1
_symmetry_Int_Tables_number       1
_space_group_crystal_system       triclinic
_cell_length_a                    14.954079
_cell_length_b                    15.478655
_cell_length_c                    9.88105
_cell_angle_alpha                 89.19962
_cell_angle_beta                  87.90297
_cell_angle_gamma                 89.66747
_cell_volume                      2285.370265

loop_
_atom_site_label
_atom_site_type_symbol
_atom_type_description
_atom_site_fract_x
_atom_site_fract_y
_atom_site_fract_z
_atom_type_partial_charge
C1    C     C_R   0.378446 0.881082 0.501812 0.902235
C2    C     C_R   0.381320 0.121328 0.500566 0.900136
C3    C     C_R   0.880830 0.378793 0.501644 0.896255
C4    C     C_R   0.881195 0.621210 0.500575 0.893405
C5    C     C_3   0.227243 0.170623 0.727196 -0.177391
C6    C     C_3   0.243276 0.803195 0.756123 -0.170152
C7    C     C_3   0.725901 0.670033 0.727202 -0.179237
C8    C     C_3   0.752709 0.296775 0.753820 -0.157988
C9    C     C_R   0.426919 0.028256 0.075599 0.211168
C10   C     C_R   0.926551 0.527700 0.075508 0.199071
C11   C     C_R   0.575598 0.981639 0.068194 -0.171225
C12   C     C_R   0.075801 0.482530 0.068155 -0.175043
C13   C     C_R   0.575781 0.981908 0.924335 0.621931
C14   C     C_R   0.076002 0.482897 0.924309 0.630633
C15   C     C_R   0.426869 0.028142 0.932867 0.124002
C16   C     C_R   0.926154 0.526822 0.932886 0.124020
C17   C     C_3   0.338011 0.986418 0.938258 -0.555728
C18   C     C_3   0.837112 0.484259 0.939376 -0.548342
C19   C     C_3   0.336871 0.989474 0.090741 -0.465993
C20   C     C_3   0.836229 0.489423 0.091776 -0.452065
C21   C     C_R   0.622542 0.117240 0.497912 0.926703
C22   C     C_R   0.623033 0.883302 0.498933 0.940405
C23   C     C_R   0.121810 0.617682 0.497446 0.935660
C24   C     C_R   0.123049 0.383296 0.498855 0.945028
C25   C     C_R   0.280429 0.220448 0.621127 0.080552
C26   C     C_R   0.242759 0.809118 0.603572 0.073200
C27   C     C_R   0.779418 0.719653 0.621011 0.072444
C28   C     C_R   0.792183 0.264857 0.621569 0.072341
C29   C     C_R   0.323339 0.194722 0.501055 -0.172148
C30   C     C_R   0.309111 0.817385 0.500331 -0.202499
C31   C     C_R   0.822717 0.694222 0.501058 -0.175587
C32   C     C_R   0.822826 0.305096 0.501670 -0.167156
C33   C     C_R   0.313506 0.244328 0.382324 -0.302677
C34   C     C_R   0.302471 0.767779 0.382260 -0.302934
C35   C     C_R   0.813237 0.744138 0.382582 -0.299067
C36   C     C_R   0.802061 0.267972 0.377213 -0.304771
C37   C     C_R   0.750270 0.810294 0.381096 0.611732
C38   C     C_R   0.739224 0.202556 0.373657 0.620443
C39   C     C_R   0.250368 0.310356 0.380728 0.616681
C40   C     C_R   0.239259 0.702906 0.377109 0.623865
C41   C     C_R   0.697962 0.826400 0.499230 -0.250185
C42   C     C_R   0.697862 0.173432 0.495578 -0.241802
C43   C     C_R   0.198060 0.326439 0.498865 -0.251063
C44   C     C_R   0.184397 0.685983 0.492108 -0.261890
C45   C     C_R   0.719697 0.786609 0.621018 0.066020
C46   C     C_R   0.731808 0.199064 0.618075 0.015501
C47   C     C_R   0.219857 0.286753 0.620582 0.063833
C48   C     C_R   0.185738 0.740611 0.600993 0.007185
C49   C     C_3   0.661586 0.747054 0.732210 -0.038110
C50   C     C_3   0.687465 0.221411 0.751661 -0.026601
C51   C     C_3   0.161411 0.246477 0.730524 -0.046144
C52   C     C_3   0.187351 0.721423 0.748732 -0.015741
H1    H     H_    0.350940 0.229441 0.289531 0.199482
H2    H     H_    0.348724 0.776157 0.296135 0.193668
H3    H     H_    0.850890 0.729468 0.289892 0.197270
H4    H     H_    0.830281 0.292283 0.281793 0.190450
H5    H     H_    0.286701 0.035587 0.134245 0.206881
H6    H     H_    0.337244 0.924359 0.139608 0.219758
H7    H     H_    0.786305 0.536302 0.133805 0.204989
H8    H     H_    0.836286 0.425037 0.142710 0.216635
H9    H     H_    0.663215 0.783774 0.828002 0.198146
H10   H     H_    0.698649 0.171352 0.831199 0.186878
H11   H     H_    0.161333 0.283464 0.826203 0.198111
H12   H     H_    0.224741 0.661151 0.773033 0.182408
H13   H     H_    0.263167 0.161625 0.822723 0.154470
H14   H     H_    0.310651 0.793266 0.797959 0.156031
H15   H     H_    0.762364 0.659510 0.821957 0.155050
H16   H     H_    0.799576 0.291587 0.838122 0.149085
H17   H     H_    0.636250 0.965567 0.119445 0.240127
H18   H     H_    0.136631 0.467094 0.119385 0.244157
H19   H     H_    0.285783 0.027818 0.894956 0.200451
H20   H     H_    0.344579 0.919959 0.899518 0.218251
H21   H     H_    0.783842 0.523613 0.894079 0.197614
H22   H     H_    0.843312 0.417137 0.904471 0.214087
N1    N     N_R   0.499140 0.000000 0.142800 -0.148006
N2    N     N_R   0.999140 0.500000 0.142800 -0.149818
N3    N     N_R   0.499160 0.000000 0.857150 -0.160753
N4    N     N_R   0.999160 0.500000 0.857150 -0.159385
O1    O     O_R   0.408400 0.908380 0.614690 -0.627965
O2    O     O_R   0.408400 0.091620 0.614690 -0.623456
O3    O     O_R   0.908400 0.408380 0.614690 -0.630313
O4    O     O_R   0.908400 0.591620 0.614690 -0.623947
O5    O     O_R   0.408370 0.908370 0.385350 -0.631540
O6    O     O_R   0.408370 0.091630 0.385350 -0.627150
O7    O     O_R   0.908370 0.408370 0.385350 -0.633666
O8    O     O_R   0.908370 0.591630 0.385350 -0.627387
O9    O     O_R   0.591610 0.091610 0.614650 -0.585998
O10   O     O_R   0.591610 0.908390 0.614650 -0.557553
O11   O     O_R   0.091610 0.591610 0.614650 -0.590226
O12   O     O_R   0.091610 0.408390 0.614650 -0.559289
O13   O     O_R   0.591590 0.091600 0.385310 -0.558758
O14   O     O_R   0.591590 0.908400 0.385310 -0.579592
O15   O     O_R   0.091590 0.591600 0.385310 -0.565748
O16   O     O_R   0.091590 0.408400 0.385310 -0.576973
Zn1   Zn    Zn3+2 0.500010 0.000000 0.653130 1.002108
Zn2   Zn    Zn3+2 0.000010 0.500000 0.653130 1.001399
Zn3   Zn    Zn3+2 0.499980 0.000000 0.346870 1.000135
Zn4   Zn    Zn3+2 0.999980 0.500000 0.346870 0.997342
F1    F     F_    0.737528 0.854344 0.263567 -0.660046
F2    F     F_    0.715233 0.172901 0.251541 -0.652082
F3    F     F_    0.237363 0.354179 0.263074 -0.654721
F4    F     F_    0.237174 0.653020 0.265285 -0.648465
N5    N     N_3   0.569978 0.729397 0.691680 -0.426449
H23   H     H_    0.570176 0.699651 0.597211 0.214668
H24   H     H_    0.540304 0.687120 0.763255 0.198610
N6    N     N_3   0.592720 0.245807 0.742317 -0.409141
H25   H     H_    0.583366 0.288769 0.661272 0.216819
H26   H     H_    0.572195 0.276386 0.831944 0.201289
N7    N     N_3   0.070680 0.227332 0.687558 -0.428689
H27   H     H_    0.072529 0.196223 0.594142 0.214909
H28   H     H_    0.040253 0.185939 0.759697 0.196771
N8    N     N_3   0.097792 0.724350 0.814754 -0.401865
H29   H     H_    0.060439 0.776673 0.778782 0.224344
H30   H     H_    0.104974 0.731542 0.918832 0.206468
N9    N     N_3   0.189485 0.091766 0.673705 -0.452561
H31   H     H_    0.148655 0.064141 0.750519 0.190358
H32   H     H_    0.241773 0.048556 0.652735 0.196454
N10   N     N_3   0.190680 0.873149 0.817137 -0.457094
H33   H     H_    0.214587 0.931081 0.777036 0.191650
H34   H     H_    0.198698 0.871489 0.921769 0.208660
N11   N     N_3   0.685375 0.592528 0.673511 -0.448527
H35   H     H_    0.654386 0.558892 0.754609 0.189728
H36   H     H_    0.735986 0.553250 0.632919 0.196190
N12   N     N_3   0.708426 0.380487 0.739894 -0.462691
H37   H     H_    0.757478 0.425573 0.714702 0.203319
H38   H     H_    0.681252 0.397078 0.835052 0.193844
F5    F     F_    0.652573 0.963253 0.853558 -0.656577
F6    F     F_    0.152995 0.465088 0.853462 -0.655543

loop_
_geom_bond_atom_site_label_1
_geom_bond_atom_site_label_2
_ccdc_geom_bond_type
C21   O9    A    
C3    O7    A    
C2    O6    A    
C52   N8    S    
N8    H30   S    
C7    C27   S    
C6    C26   S    
C19   H5    S    
C28   C46   A    
C33   C39   A    
C6    H14   S    
C2    C29   S    
C34   C40   A    
O6    Zn3   S    
C32   C36   A    
C35   C37   A    
O4    Zn2   S    
C38   C42   A    
C48   C52   S    
N7    H28   S    
C22   C41   S    
C4    O8    A    
N6    H25   S    
O16   Zn4   S    
N2    Zn4   S    
N9    H31   S    
C29   C33   A    
N1    Zn3   S    
C14   F6    S    
C42   C46   A    
N10   H33   S    
O7    Zn4   S    
C10   N2    A    
C9    C19   S    
C10   C20   S    
N9    H32   S    
O9    Zn1   S    
C3    O3    A    
C23   O11   A    
C22   O10   A    
C20   H8    S    
C25   C47   A    
C18   C20   S    
C26   C48   A    
C27   C45   A    
O10   Zn1   S    
C51   N7    S    
C5    N9    S    
C33   H1    S    
C7    N11   S    
N8    H29   S    
O14   Zn3   S    
C39   F3    S    
C19   H6    S    
C25   C29   A    
C13   N3    A    
C49   H9    S    
C30   C34   A    
C27   C31   A    
C28   C32   A    
C51   H11   S    
C7    C49   S    
C5    H13   S    
C52   H12   S    
N4    Zn2   S    
O3    Zn2   S    
C8    N12   S    
C39   C43   A    
C40   F4    S    
C35   H3    S    
N3    Zn1   S    
C23   C44   S    
C23   O15   A    
C20   H7    S    
O1    Zn1   S    
C36   H4    S    
C24   O16   A    
C45   C49   S    
N5    H24   S    
C16   C18   S    
O13   Zn3   S    
O2    Zn1   S    
O12   Zn2   S    
N11   H35   S    
C17   H20   S    
C5    C25   S    
C38   F2    S    
C12   C14   A    
C17   H19   S    
C18   H21   S    
C12   N2    A    
C50   H10   S    
C31   C35   A    
C8    C50   S    
C37   F1    S    
N12   H38   S    
C21   O13   A    
C15   C17   S    
C12   H18   S    
C41   C45   A    
C24   O12   A    
C49   N5    S    
C47   C51   S    
C11   H17   S    
C8    H16   S    
C1    O5    A    
C46   C50   S    
O11   Zn2   S    
C36   C38   A    
C9    C15   A    
C11   N1    A    
N7    H27   S    
C11   C13   A    
C34   H2    S    
C15   N3    A    
N6    H26   S    
C1    O1    A    
C1    C30   S    
C17   C19   S    
C16   N4    A    
C14   N4    A    
C37   C41   A    
C3    C32   S    
O8    Zn4   S    
N10   H34   S    
N11   H36   S    
C4    C31   S    
C2    O2    A    
C7    H15   S    
C21   C42   S    
C13   F5    S    
C40   C44   A    
C4    O4    A    
C8    C28   S    
C18   H22   S    
O5    Zn3   S    
N5    H23   S    
C50   N6    S    
C24   C43   S    
C22   O14   A    
C5    C51   S    
C10   C16   A    
C9    N1    A    
C6    C52   S    
C43   C47   A    
O15   Zn4   S    
C6    N10   S    
C44   C48   A    
N12   H37   S    
C26   C30   A    
