data_mof_unit_4736.cif
_audit_creation_date              2012-12-11T14:29:29-0500
_audit_creation_method            fapswitch 2.2
_symmetry_space_group_name_H-M    P1
_symmetry_Int_Tables_number       1
_space_group_crystal_system       triclinic
_cell_length_a                    6.93709
_cell_length_b                    14.746174
_cell_length_c                    16.253966
_cell_angle_alpha                 90.573031
_cell_angle_beta                  89.258476
_cell_angle_gamma                 90.309022
_cell_volume                      1662.46273172

loop_
_atom_site_label
_atom_site_type_symbol
_atom_type_description
_atom_site_fract_x
_atom_site_fract_y
_atom_site_fract_z
_atom_type_partial_charge
O1    O     O_R   0.494400 0.416610 0.413880 -0.544176
O2    O     O_R   0.823920 0.406790 0.585520 -0.542866
O3    O     O_R   0.994250 0.583390 0.586120 -0.536621
C1    C     C_R   0.653862 0.385643 0.613984 0.738622
O4    O     O_R   0.824110 0.405730 0.414490 -0.512050
O5    O     O_R   0.994440 0.582310 0.413870 -0.553997
C2    C     C_R   0.656060 0.383844 0.385988 0.772893
O6    O     O_R   0.494210 0.417690 0.586130 -0.546826
O7    O     O_3   0.660810 0.557940 0.500000 -0.376754
V1    V     V_3+5 0.935650 0.489250 0.500000 1.432811
O8    O     O_R   0.324160 0.593210 0.414480 -0.529640
C3    C     C_R   0.157855 0.614491 0.385709 0.616300
O9    O     O_R   0.323970 0.594270 0.585510 -0.540759
C4    C     C_R   0.154702 0.615442 0.614425 0.695030
V2    V     V_3+5 0.435660 0.510750 0.500000 1.425335
O10   O     O_3   0.160630 0.442060 0.500000 -0.365070
H1    H     H_    0.065194 0.914671 0.497981 0.129298
C5    C     C_R   0.182976 0.564207 0.784794 -0.183326
C6    C     C_R   0.195578 0.536525 0.866217 -0.147899
C7    C     C_R   0.183665 0.600039 0.930480 0.261037
C8    C     C_R   0.158673 0.691643 0.912374 -0.138318
C9    C     C_R   0.145947 0.721772 0.830121 -0.000341
C10   C     C_R   0.157934 0.656578 0.765144 0.070415
C11   C     C_R   0.121276 0.815160 0.812486 -0.174014
C12   C     C_R   0.108507 0.843747 0.728777 0.070512
C13   C     C_R   0.117381 0.777016 0.664189 0.032053
C14   C     C_R   0.143418 0.684074 0.682289 -0.155777
C15   C     C_R   0.087331 0.936834 0.706195 0.185737
C16   C     C_R   0.072095 0.960582 0.623274 -0.157446
C17   C     C_R   0.077858 0.895088 0.561703 -0.166991
C18   C     C_R   0.100505 0.804554 0.581535 -0.145977
H2    H     H_    0.192633 0.512201 0.737475 0.107961
H3    H     H_    0.214416 0.465209 0.879029 0.111257
H4    H     H_    0.149227 0.738669 0.963809 0.091383
H5    H     H_    0.055299 0.031009 0.606558 0.117066
H6    H     H_    0.104323 0.756262 0.531038 0.092331
C19   C     C_2   0.024993 0.685690 0.258597 0.160406
C20   C     C_2   0.164931 0.680836 0.316572 0.275311
C21   C     C_2   0.050072 0.744296 0.185007 -0.101508
C22   C     C_2   0.104902 0.832105 0.188979 0.349481
H7    H     H_    0.010898 0.714954 0.125862 0.098058
C23   C     C_2   0.779836 0.216802 0.787272 -0.149556
C24   C     C_2   0.615457 0.179126 0.816345 -0.312521
H8    H     H_    0.916041 0.197922 0.814298 0.139229
H9    H     H_    0.477515 0.197052 0.790909 0.126447
C25   C     C_2   0.790596 0.283248 0.718680 -0.129252
C26   C     C_2   0.636606 0.319378 0.681456 -0.304381
H10   H     H_    0.934420 0.303604 0.698856 0.131641
H11   H     H_    0.491451 0.301894 0.700978 0.124832
C27   C     C_2   0.779266 0.208650 0.212177 -0.189423
C28   C     C_2   0.613200 0.182437 0.176714 -0.344403
H12   H     H_    0.913265 0.178240 0.190616 0.140397
H13   H     H_    0.476710 0.212254 0.194924 0.125739
C29   C     C_2   0.797888 0.279246 0.278274 0.224107
C30   C     C_2   0.643789 0.314476 0.319525 -0.288851
H14   H     H_    0.499313 0.291809 0.305171 0.093902
O11   O     O_R   0.770210 0.079270 0.910680 -0.534318
O12   O     O_R   0.440150 0.091160 0.082270 -0.551670
O13   O     O_R   0.269970 0.914530 0.082860 -0.542273
C31   C     C_R   0.608227 0.113224 0.110457 0.749407
O14   O     O_R   0.440480 0.090100 0.911240 -0.541372
O15   O     O_R   0.270310 0.913460 0.910610 -0.533253
C32   C     C_R   0.610022 0.112061 0.883424 0.747344
O16   O     O_R   0.769870 0.080340 0.082930 -0.539814
O17   O     O_3   0.603660 0.938980 0.996790 -0.368212
V3    V     V_3+5 0.328750 0.007610 0.996740 1.423616
O18   O     O_R   0.940600 0.902510 0.911180 -0.533915
C33   C     C_R   0.109925 0.881500 0.882124 0.794627
O19   O     O_R   0.940270 0.903570 0.082200 -0.546703
C34   C     C_R   0.106708 0.884728 0.111793 0.592032
V4    V     V_3+5 0.828770 0.986010 0.996670 1.446604
O20   O     O_3   0.103730 0.054750 0.996710 -0.370628
O21   O     O_3   0.338597 0.725876 0.300220 -0.538987
C35   C     C_3   0.398803 0.777729 0.369041 -0.121463
H15   H     H_    0.494969 0.737658 0.408570 0.129545
H16   H     H_    0.276369 0.806021 0.405877 0.110582
H17   H     H_    0.485107 0.836122 0.346393 0.156744
O22   O     O_3   0.119947 0.873324 0.266551 -0.549290
C36   C     C_3   0.188595 0.963491 0.263294 -0.247095
H18   H     H_    0.085293 0.008103 0.231363 0.122944
H19   H     H_    0.334461 0.966725 0.234235 0.144997
H20   H     H_    0.202087 0.989680 0.327191 0.142442
N1    N     N_3   0.989367 0.308962 0.298040 -0.638844
H21   H     H_    0.053683 0.334614 0.244539 0.216716
H22   H     H_    0.068237 0.252344 0.315762 0.209568
N2    N     N_3   0.194341 0.572729 0.014806 -0.674300
H23   H     H_    0.209431 0.502363 0.018386 0.225466
H24   H     H_    0.319709 0.601295 0.039251 0.231458
N3    N     N_3   0.080752 0.008662 0.766042 -0.672215
H25   H     H_    0.949540 0.042144 0.759816 0.227644
H26   H     H_    0.191876 0.054663 0.752793 0.213510
N4    N     N_3   0.855545 0.629302 0.260836 -0.661083
H27   H     H_    0.772576 0.646427 0.312769 0.252443
H28   H     H_    0.896368 0.561242 0.263466 0.226896

loop_
_geom_bond_atom_site_label_1
_geom_bond_atom_site_label_2
_ccdc_geom_bond_type
C30   H14   S    
O21   C35   S    
C6    C7    A    
C2    C30   S    
C1    O6    A    
C24   C32   S    
C26   H11   S    
C12   C15   A    
C13   C14   A    
C16   C17   A    
C35   H16   S    
C15   C16   A    
O13   V3    S    
O5    C3    A    
C17   C18   A    
N2    H24   S    
O12   C31   A    
V2    O10   S    
O14   C32   A    
C5    C6    A    
C23   C25   S    
O16   V4    S    
O19   V4    S    
C25   C26   D    
O8    V2    S    
O14   V3    S    
O12   V3    S    
V3    O20   S    
C35   H17   S    
C7    N2    S    
C27   H12   S    
C15   N3    S    
O1    V2    S    
C10   C14   A    
C4    C14   S    
N3    H26   S    
O7    V1    S    
O18   V4    S    
C13   C18   A    
O1    C2    A    
O9    C4    A    
H1    C17   S    
C23   H8    S    
C29   N1    S    
O11   C32   A    
C9    C10   A    
C25   H10   S    
C35   H15   S    
O15   V3    S    
C5    C10   A    
C11   C12   A    
C21   H7    S    
C6    H3    S    
C21   C22   D    
C36   H19   S    
O22   C36   S    
C8    H4    S    
C12   C13   A    
O17   V4    S    
O18   C33   A    
C28   H13   S    
O2    C1    A    
C19   C20   D    
N1    H21   S    
N4    H28   S    
C27   C28   D    
C27   C29   S    
O11   V4    S    
C24   H9    S    
O3    C4    A    
C22   C34   S    
N1    H22   S    
O6    V2    S    
O9    V2    S    
C9    C11   A    
C5    H2    S    
C23   C24   D    
O2    V1    S    
O4    C2    A    
C29   C30   D    
C19   N4    S    
N2    H23   S    
O5    V1    S    
C36   H20   S    
O8    C3    A    
C16   H5    S    
O15   C33   A    
C31   O16   A    
O7    V2    S    
O4    V1    S    
C19   C21   S    
O3    V1    S    
V1    O10   S    
N4    H27   S    
C22   O22   S    
C3    C20   S    
O19   C34   A    
C11   C33   S    
O13   C34   A    
C36   H18   S    
V4    O20   S    
C7    C8    A    
O17   V3    S    
C18   H6    S    
C28   C31   S    
N3    H25   S    
C8    C9    A    
C20   O21   S    
C1    C26   S    
