data_mof_unit_2421.cif
_audit_creation_date              2012-12-10T16:53:07-0500
_audit_creation_method            fapswitch 2.2
_symmetry_space_group_name_H-M    P1
_symmetry_Int_Tables_number       1
_space_group_crystal_system       triclinic
_cell_length_a                    10.850824
_cell_length_b                    10.931407
_cell_length_c                    9.664835
_cell_angle_alpha                 89.284145
_cell_angle_beta                  89.047946
_cell_angle_gamma                 90.093385
_cell_volume                      1146.14255527

loop_
_atom_site_label
_atom_site_type_symbol
_atom_type_description
_atom_site_fract_x
_atom_site_fract_y
_atom_site_fract_z
_atom_type_partial_charge
C1    C     C_R   0.503160 0.265252 0.500895 0.880467
C2    C     C_R   0.058319 0.500362 0.632082 -0.014072
C3    C     C_R   0.126705 0.475450 0.508139 -0.137217
C4    C     C_R   0.063440 0.455242 0.384020 0.402857
C5    C     C_R   0.935858 0.470258 0.382190 -0.285767
C6    C     C_R   0.872123 0.513978 0.498239 -0.126718
C7    C     C_2   0.543106 0.936191 0.389802 0.303365
C8    C     C_2   0.498717 0.867247 0.496254 -0.361274
C9    C     C_2   0.528469 0.069366 0.388739 -0.170534
C10   C     C_2   0.514770 0.133481 0.505005 -0.360927
C11   C     C_2   0.460100 0.408680 0.924429 -0.054768
C12   C     C_R   0.262083 0.488789 0.502183 0.863360
C13   C     C_2   0.449278 0.413934 0.079826 -0.057177
C14   C     C_R   0.502743 0.734886 0.498758 0.870705
C15   C     C_R   0.737641 0.508452 0.499023 0.823096
C16   C     C_R   0.103435 0.482844 0.768320 0.476781
C17   C     C_R   0.045535 0.543394 0.879465 -0.240347
C18   C     C_R   0.939006 0.610877 0.858154 -0.184149
C19   C     C_R   0.882560 0.607838 0.730058 -0.126794
C20   C     C_R   0.936646 0.542485 0.619369 0.019248
Cu1   Cu    Cu3+1 0.500020 0.500020 0.638630 0.977769
Cu2   Cu    Cu3+1 0.499980 0.499980 0.361370 1.005307
H1    H     H_    0.518644 0.090540 0.606539 0.158121
H2    H     H_    0.430016 0.325349 0.875544 0.179447
H3    H     H_    0.519214 0.580225 0.892774 0.204163
H4    H     H_    0.399668 0.340397 0.132668 0.174793
H5    H     H_    0.553415 0.562885 0.103845 0.214826
H6    H     H_    0.081636 0.536265 0.982954 0.149493
H7    H     H_    0.896008 0.659343 0.943148 0.175067
H8    H     H_    0.797109 0.657450 0.718291 0.161283
H9    H     H_    0.886300 0.447085 0.289654 0.165615
H10   H     H_    0.452639 0.908081 0.584551 0.131530
H11   H     H_    0.533541 0.115987 0.288839 0.194464
N1    N     N_2   0.498640 0.498660 0.846910 -0.275101
N2    N     N_2   0.498610 0.498630 0.153040 -0.271856
O1    O     O_R   0.500020 0.321960 0.617040 -0.576092
O2    O     O_R   0.499980 0.321920 0.382900 -0.585836
O3    O     O_R   0.319670 0.500020 0.617100 -0.540623
O4    O     O_R   0.319630 0.499980 0.382950 -0.524835
O5    O     O_R   0.500020 0.678080 0.617100 -0.597734
O6    O     O_R   0.499980 0.678040 0.382960 -0.529825
O7    O     O_R   0.680370 0.500020 0.617050 -0.584252
O8    O     O_R   0.680330 0.499980 0.382900 -0.575690
O9    O     O_3   0.127017 0.416072 0.267560 -0.723971
H12   H     H_    0.068376 0.403109 0.191507 0.312508
O10   O     O_3   0.190794 0.393947 0.793500 -0.721857
H13   H     H_    0.202640 0.385966 0.894735 0.312965
Br1   Br    Br    0.628961 0.870451 0.231078 -0.529814

loop_
_geom_bond_atom_site_label_1
_geom_bond_atom_site_label_2
_ccdc_geom_bond_type
Cu2   O2    S    
C10   H1    S    
C6    C20   A    
C9    C10   D    
Cu2   O8    S    
Cu1   N1    S    
C1    O2    A    
H3    N1    S    
C7    Br1   S    
C17   H6    S    
C12   O4    A    
C17   C18   A    
C15   O8    A    
C7    C8    D    
Cu1   O1    S    
Cu1   Cu2   S    
C18   H7    S    
C9    H11   S    
Cu2   N2    S    
C11   C13   S    
Cu1   O7    S    
Cu1   O5    S    
C14   O6    A    
Cu2   O4    S    
C13   N2    D    
C2    C3    A    
C12   O3    A    
C5    C6    A    
C13   H4    S    
Cu2   O6    S    
C1    C10   S    
C14   O5    A    
C3    C4    A    
C8    H10   S    
C11   H2    S    
C2    C16   A    
O9    H12   S    
C15   O7    A    
C18   C19   A    
C16   O10   S    
C7    C9    S    
O10   H13   S    
C16   C17   A    
C8    C14   S    
C3    C12   S    
C4    O9    S    
H5    N2    S    
C6    C15   S    
C19   H8    S    
C2    C20   A    
C11   N1    D    
Cu1   O3    S    
C19   C20   A    
C1    O1    A    
C4    C5    A    
C5    H9    S    
