data_mof_unit_3522.cif
_audit_creation_date              2012-12-10T17:33:59-0500
_audit_creation_method            fapswitch 2.2
_symmetry_space_group_name_H-M    P1
_symmetry_Int_Tables_number       1
_space_group_crystal_system       triclinic
_cell_length_a                    10.657759
_cell_length_b                    12.054352
_cell_length_c                    12.872284
_cell_angle_alpha                 94.136696
_cell_angle_beta                  90.753899
_cell_angle_gamma                 86.448321
_cell_volume                      1646.19390214

loop_
_atom_site_label
_atom_site_type_symbol
_atom_type_description
_atom_site_fract_x
_atom_site_fract_y
_atom_site_fract_z
_atom_type_partial_charge
C1    C     C_R   0.499293 0.522776 0.700214 0.956491
C2    C     C_R   0.462679 0.461401 0.975450 0.124487
C3    C     C_R   0.536862 0.543106 0.026482 0.046555
C4    C     C_R   0.741974 0.500684 0.500588 0.876670
C5    C     C_R   0.551962 0.544038 0.133748 -0.208563
C6    C     C_R   0.436508 0.377646 0.137907 -0.134242
C7    C     C_R   0.415423 0.377638 0.032018 -0.133066
C8    C     C_R   0.381583 0.951513 0.402997 -0.274869
C9    C     C_R   0.392633 0.836554 0.412578 0.025853
C10   C     C_R   0.551668 0.858215 0.541142 0.005970
C11   C     C_R   0.543829 0.975476 0.535274 -0.035882
C12   C     C_3   0.121131 0.500929 0.498046 0.057373
C13   C     C_R   0.457472 0.022980 0.464608 0.042897
C14   C     C_R   0.449621 0.140395 0.457599 -0.005154
C15   C     C_R   0.606845 0.162255 0.588874 0.470660
C16   C     C_R   0.502348 0.477402 0.299889 0.916212
C17   C     C_R   0.619260 0.046046 0.597724 -0.196621
C18   C     C_R   0.257839 0.500134 0.500398 0.903004
C19   C     C_3   0.932990 0.452344 0.598124 -0.373943
C20   C     C_3   0.076646 0.453352 0.598866 -0.497106
C21   C     C_3   0.930225 0.429170 0.400467 -0.237040
C22   C     C_3   0.919862 0.622770 0.495295 -0.383775
C23   C     C_3   0.076203 0.427894 0.401617 0.199072
C24   C     C_3   0.878340 0.501563 0.497831 0.039857
C25   C     C_1   0.873129 0.466137 0.302353 0.279098
C26   C     C_1   0.670796 0.705223 0.020741 0.284439
C27   C     C_1   0.348572 0.391560 0.818437 0.209316
C28   C     C_1   0.363715 0.189433 0.384394 0.230921
C29   C     C_1   0.709431 0.000644 0.671077 0.278828
C30   C     C_3   0.062488 0.622176 0.493784 -0.361459
C31   C     C_R   0.500301 0.463237 0.188669 -0.042101
C32   C     C_R   0.502728 0.537911 0.812156 -0.195483
C33   C     C_R   0.593691 0.621965 0.969770 -0.093351
C34   C     C_R   0.580356 0.616581 0.861720 0.330546
C35   C     C_R   0.438908 0.464077 0.869147 -0.113599
Cl1   Cl    Cl    0.144226 0.466875 0.282411 -0.634981
Cl2   Cl    Cl    0.669424 0.703245 0.789135 -0.642177
Cl3   Cl    Cl    0.700660 0.248571 0.669413 -0.610966
H1    H     H_    0.906491 0.365008 0.601942 0.235208
H2    H     H_    0.108342 0.504832 0.668493 0.201552
H3    H     H_    0.117737 0.366878 0.605059 0.208827
H4    H     H_    0.903318 0.341973 0.406004 0.130871
H5    H     H_    0.111503 0.340514 0.410635 0.132241
H6    H     H_    0.880696 0.662381 0.425371 0.193608
H7    H     H_    0.884218 0.674550 0.565188 0.210537
H8    H     H_    0.094931 0.675679 0.561855 0.186916
H9    H     H_    0.092185 0.659561 0.422125 0.219941
H10   H     H_    0.602737 0.608402 0.176022 0.158825
H11   H     H_    0.397571 0.314237 0.180382 0.186465
H12   H     H_    0.361996 0.311829 0.995292 0.158980
H13   H     H_    0.894565 0.501309 0.668552 0.220388
H14   H     H_    0.313596 0.983395 0.347682 0.155718
H15   H     H_    0.333985 0.782336 0.365349 0.147625
H16   H     H_    0.617315 0.818599 0.593692 0.173124
N1    N     N_R   0.523380 0.207800 0.519350 -0.154161
N2    N     N_R   0.476620 0.792180 0.480650 -0.111977
N3    N     N_1   0.829064 0.494925 0.225448 -0.186644
N4    N     N_1   0.732301 0.771606 0.061408 -0.163301
N5    N     N_1   0.276969 0.333678 0.778336 -0.197810
N6    N     N_1   0.293801 0.226144 0.324701 -0.202247
N7    N     N_1   0.781533 0.964445 0.729623 -0.120642
O1    O     O_R   0.506240 0.421700 0.658830 -0.567873
O2    O     O_R   0.491240 0.609310 0.646410 -0.587549
O3    O     O_R   0.692710 0.406190 0.506230 -0.591407
O4    O     O_R   0.677700 0.593810 0.493810 -0.629487
O5    O     O_R   0.508760 0.390690 0.353590 -0.623924
O6    O     O_R   0.493760 0.578300 0.341170 -0.621236
O7    O     O_R   0.322300 0.406190 0.506190 -0.628039
O8    O     O_R   0.307290 0.593810 0.493770 -0.628069
Zn1   Zn    Zn3+2 0.510020 0.374730 0.508290 1.010261
Zn2   Zn    Zn3+2 0.489980 0.625270 0.491710 0.979407

loop_
_geom_bond_atom_site_label_1
_geom_bond_atom_site_label_2
_ccdc_geom_bond_type
C2    C35   A    
C15   Cl3   S    
C14   C28   S    
C6    C7    A    
O3    Zn1   S    
C34   Cl2   S    
C10   N2    A    
C4    O3    A    
C26   C33   S    
C2    C7    A    
C20   H2    S    
C3    C5    A    
N2    Zn2   S    
C27   C35   S    
C1    O1    A    
C12   C20   S    
C18   O8    A    
C21   C23   S    
C20   H3    S    
C23   H5    S    
C9    N2    A    
C27   N5    T    
C13   C14   A    
C16   C31   S    
C11   C13   A    
C12   C23   S    
C21   C25   S    
C8    C13   A    
C9    H15   S    
C19   H1    S    
C10   H16   S    
C1    O2    A    
C22   C24   S    
O7    Zn1   S    
C33   C34   A    
C14   N1    A    
O6    Zn2   S    
C28   N6    T    
C6    H11   S    
C4    O4    A    
C4    C24   S    
C5    H10   S    
C29   N7    T    
N1    Zn1   S    
C16   O5    A    
C10   C11   A    
C3    C33   A    
C18   O7    A    
C21   H4    S    
C25   N3    T    
C32   C35   A    
C19   H13   S    
C30   H9    S    
C22   H7    S    
C17   C29   S    
O5    Zn1   S    
O1    Zn1   S    
O8    Zn2   S    
C23   Cl1   S    
C21   C24   S    
C12   C18   S    
C26   N4    T    
C15   C17   A    
C6    C31   A    
C8    H14   S    
C11   C17   A    
C2    C3    A    
C22   C30   S    
C12   C30   S    
C32   C34   A    
O4    Zn2   S    
C16   O6    A    
C19   C24   S    
C30   H8    S    
C1    C32   S    
C22   H6    S    
C19   C20   S    
C7    H12   S    
O2    Zn2   S    
C8    C9    A    
C5    C31   A    
C15   N1    A    
