data_mof_unit_1863.cif
_audit_creation_date              2012-12-10T20:31:00-0500
_audit_creation_method            fapswitch 2.2
_symmetry_space_group_name_H-M    P1
_symmetry_Int_Tables_number       1
_space_group_crystal_system       triclinic
_cell_length_a                    14.896055
_cell_length_b                    10.724811
_cell_length_c                    9.978488
_cell_angle_alpha                 88.841408
_cell_angle_beta                  90.089081
_cell_angle_gamma                 92.201744
_cell_volume                      1592.63401742

loop_
_atom_site_label
_atom_site_type_symbol
_atom_type_description
_atom_site_fract_x
_atom_site_fract_y
_atom_site_fract_z
_atom_type_partial_charge
C1    C     C_R   0.502826 0.260273 0.500784 0.865229
C2    C     C_R   0.911773 0.622793 0.502730 0.075611
C3    C     C_R   0.945322 0.278760 0.494352 -0.178939
C4    C     C_R   0.038532 0.276339 0.493207 -0.188816
C5    C     C_R   0.089861 0.388211 0.496061 0.131337
C6    C     C_R   0.047672 0.503939 0.500333 0.071797
C7    C     C_R   0.099350 0.616911 0.504274 0.131392
C8    C     C_R   0.057778 0.731023 0.507742 -0.211811
C9    C     C_R   0.964822 0.734171 0.506655 -0.155713
C10   C     C_R   0.182905 0.386911 0.494805 -0.223349
C11   C     C_R   0.232494 0.499330 0.499625 -0.024777
C12   C     C_R   0.327465 0.498006 0.499937 0.877451
C13   C     C_R   0.192107 0.613680 0.504580 -0.242006
C14   C     C_R   0.525766 0.061047 0.619191 0.141305
C15   C     C_R   0.516326 0.129018 0.499968 -0.114515
C16   C     C_R   0.522741 0.068086 0.376959 -0.209173
C17   C     C_R   0.520677 0.939116 0.375325 -0.177399
C18   C     C_R   0.513288 0.871837 0.496743 -0.103832
C19   C     C_R   0.523315 0.933578 0.617206 0.199542
C20   C     C_3   0.468739 0.919953 0.742120 -0.456997
C21   C     C_3   0.472635 0.060660 0.745861 -0.508459
C22   C     C_R   0.429667 0.447563 0.071924 0.138917
C23   C     C_R   0.501285 0.739680 0.498746 0.896977
C24   C     C_R   0.561141 0.571599 0.070458 0.157461
C25   C     C_R   0.561842 0.570556 0.927003 0.151037
C26   C     C_R   0.428781 0.449143 0.930649 0.151646
C27   C     C_3   0.392071 0.318249 0.929460 -0.035253
C28   C     C_3   0.393659 0.316886 0.081932 -0.499035
C29   C     C_R   0.672852 0.505005 0.499926 0.938116
C30   C     C_R   0.817793 0.623977 0.500856 0.114972
C31   C     C_R   0.768686 0.509295 0.499853 -0.084064
C32   C     C_R   0.810368 0.395565 0.498179 -0.272206
C33   C     C_R   0.903039 0.393090 0.497652 0.126816
C34   C     C_R   0.954069 0.506683 0.500412 0.025713
H1    H     H_    0.518987 0.893229 0.279684 0.193502
H2    H     H_    0.399978 0.879556 0.724104 0.202765
H3    H     H_    0.505769 0.875946 0.826173 0.234136
H4    H     H_    0.405742 0.101788 0.732474 0.226150
H5    H     H_    0.514473 0.095023 0.830663 0.210821
H6    H     H_    0.326129 0.310536 0.129255 0.230059
H7    H     H_    0.770134 0.308967 0.496766 0.148522
H8    H     H_    0.216906 0.299327 0.491202 0.138400
H9    H     H_    0.522995 0.118593 0.281971 0.172749
N1    N     N_R   0.499390 0.499140 0.142800 -0.143437
N2    N     N_R   0.499390 0.499180 0.857150 -0.160310
O1    O     O_R   0.500010 0.316790 0.614690 -0.616911
O2    O     O_R   0.500000 0.316760 0.385350 -0.628360
O3    O     O_R   0.367850 0.499990 0.614680 -0.590240
O4    O     O_R   0.367840 0.499950 0.385340 -0.616607
O5    O     O_R   0.500000 0.683240 0.614650 -0.602303
O6    O     O_R   0.499990 0.683210 0.385310 -0.605173
O7    O     O_R   0.632160 0.500050 0.614660 -0.586709
O8    O     O_R   0.632150 0.500010 0.385320 -0.586302
Zn1   Zn    Zn3+2 0.500010 0.500020 0.653130 0.997130
Zn2   Zn    Zn3+2 0.499990 0.499980 0.346870 0.987826
I1    I     I_    0.750415 0.797283 0.496024 -0.334012
I2    I     I_    0.653174 0.695022 0.169596 -0.258053
I3    I     I_    0.659106 0.687384 0.824979 -0.258294
I4    I     I_    0.259120 0.304459 0.847981 -0.372783
H10   H     H_    0.441019 0.256782 0.886269 0.145981
H11   H     H_    0.443017 0.252314 0.125267 0.187660
H12   H     H_    0.906285 0.191414 0.492259 0.162398
H13   H     H_    0.070436 0.187296 0.490257 0.152615
H14   H     H_    0.233099 0.699488 0.508105 0.127002
H15   H     H_    0.097199 0.818021 0.510935 0.150787
H16   H     H_    0.935984 0.824843 0.509430 0.182016

loop_
_geom_bond_atom_site_label_1
_geom_bond_atom_site_label_2
_ccdc_geom_bond_type
C8    C9    A    
C7    C13   A    
C11   C12   S    
C6    C7    A    
C1    C15   S    
C10   H8    S    
C23   O6    A    
C19   C20   S    
C4    H13   S    
C12   O3    A    
C30   C31   A    
C32   H7    S    
O4    Zn2   S    
C32   C33   A    
O1    Zn1   S    
C12   O4    A    
C8    H15   S    
C29   C31   S    
C22   C28   S    
C28   H11   S    
O3    Zn1   S    
C20   H3    S    
C11   C13   A    
C16   H9    S    
C2    C34   A    
C26   C27   S    
O5    Zn1   S    
C13   H14   S    
C29   O8    A    
N1    Zn2   S    
C4    C5    A    
C14   C21   S    
C21   H4    S    
O7    Zn1   S    
N2    Zn1   S    
C17   C18   A    
O6    Zn2   S    
C27   H10   S    
O8    Zn2   S    
C22   C26   A    
C5    C6    A    
C24   N1    A    
C1    O1    A    
C16   C17   A    
C10   C11   A    
C3    C33   A    
C18   C23   S    
C20   H2    S    
C25   N2    A    
C5    C10   A    
C33   C34   A    
C24   C25   A    
C6    C34   A    
O2    Zn2   S    
C18   C19   A    
C25   I3    S    
C3    H12   S    
C27   C28   S    
C7    C8    A    
C28   H6    S    
C9    H16   S    
C1    O2    A    
C2    C30   A    
C27   I4    S    
C17   H1    S    
C26   N2    A    
C20   C21   S    
C14   C15   A    
C2    C9    A    
C30   I1    S    
C14   C19   A    
C31   C32   A    
C22   N1    A    
C3    C4    A    
C15   C16   A    
C24   I2    S    
C23   O5    A    
C29   O7    A    
C21   H5    S    
