data_mof_unit_2748.cif
_audit_creation_date              2013-03-05T16:10:19-0500
_audit_creation_method            fapswitch 2.2
_symmetry_space_group_name_H-M    P1
_symmetry_Int_Tables_number       1
_space_group_crystal_system       triclinic
_cell_length_a                    8.435489
_cell_length_b                    15.405576
_cell_length_c                    18.75302
_cell_angle_alpha                 102.788593
_cell_angle_beta                  90.244351
_cell_angle_gamma                 99.916248
_cell_volume                      2338.78330761

loop_
_atom_site_label
_atom_site_type_symbol
_atom_site_description
_atom_site_fract_x
_atom_site_fract_y
_atom_site_fract_z
_atom_type_partial_charge
P1    P     P_3+3 0.039430 0.410940 0.333230 0.535850
O1    O     O_2   0.871960 0.437280 0.322960 -0.312909
O2    O     O_3   0.121410 0.444460 0.412450 -0.372977
O3    O     O_3   0.661450 0.607570 0.372550 -0.357063
O4    O     O_2   0.769362 0.538146 0.244236 -0.366859
O5    O     O_3   0.984681 0.293299 0.314646 -0.521564
O6    O     O_3   0.705266 0.699688 0.257934 -0.538577
H1    H     H_    0.751073 0.770896 0.365613 0.144921
C1    C     C_3   0.705667 0.858315 0.296360 -0.867211
H2    H     H_    0.833743 0.874060 0.282483 0.288388
H3    H     H_    0.626789 0.857259 0.248489 0.271997
P2    P     P_3+3 0.676770 0.715000 0.563590 0.581321
P3    P     P_3+3 0.139769 0.772531 0.416224 0.507463
O7    O     O_2   0.852310 0.726980 0.542430 -0.317700
O8    O     O_3   0.084010 0.657370 0.410280 -0.318001
O9    O     O_2   0.014924 0.819449 0.462944 -0.368364
O10   O     O_3   0.693315 0.746180 0.659366 -0.482967
O11   O     O_3   0.105079 0.790434 0.328879 -0.533194
C2    C     C_3   0.153890 0.720787 0.276474 0.405829
H4    H     H_    0.069523 0.655961 0.273329 0.131642
H5    H     H_    0.278257 0.712288 0.289247 0.029493
C3    C     C_3   0.150996 0.744345 0.201985 -0.851726
H6    H     H_    0.190268 0.690397 0.159936 0.212586
H7    H     H_    0.026990 0.750953 0.186690 0.277658
C4    C     C_3   0.325115 0.756050 0.684499 0.679181
H8    H     H_    0.392927 0.720979 0.640261 0.037666
C5    C     C_3   0.308863 0.849529 0.671360 -0.062482
H9    H     H_    0.194028 0.867181 0.693639 0.218928
H10   H     H_    0.302890 0.847219 0.611864 0.075216
Ba1   Ba    Ba6+2 0.853520 0.540910 0.466490 1.713487
C6    C     C_3   0.933490 0.262838 0.376753 0.396157
H11   H     H_    0.836905 0.297869 0.401238 0.119348
H12   H     H_    0.035397 0.274873 0.417458 0.122862
C7    C     C_3   0.870541 0.161241 0.352643 -0.818574
H13   H     H_    0.749331 0.148031 0.325428 0.285325
H14   H     H_    0.864907 0.128960 0.399909 0.199490
H15   H     H_    0.950751 0.128514 0.312573 0.300449
C8    C     C_3   0.755337 0.682029 0.688174 0.391381
H16   H     H_    0.850387 0.654696 0.654257 0.091953
H17   H     H_    0.655864 0.626064 0.692275 0.069785
C9    C     C_3   0.829006 0.728075 0.764501 -0.680389
H18   H     H_    0.937387 0.778789 0.760513 0.275451
H19   H     H_    0.863176 0.678043 0.793090 0.156659
H20   H     H_    0.741984 0.763349 0.798320 0.316253
P4    P     P_3+3 0.150290 0.589140 0.666780 0.530659
O12   O     O_2   0.317750 0.562750 0.677090 -0.373194
O13   O     O_3   0.068300 0.555620 0.587560 -0.328133
O14   O     O_3   0.528270 0.392500 0.627460 -0.365043
O15   O     O_3   0.168472 0.707732 0.684733 -0.642387
P5    P     P_3+3 0.050307 0.226540 0.589496 0.574620
O16   O     O_3   0.609290 0.386840 0.459690 -0.326714
O17   O     O_3   0.105700 0.342700 0.589730 -0.254136
O18   O     O_2   0.162741 0.180627 0.534281 -0.350814
O19   O     O_3   0.105439 0.196516 0.671721 -0.607704
Ba2   Ba    Ba6+2 0.336320 0.459170 0.533520 1.726712
P6    P     P_3+3 0.640525 0.593528 0.277799 0.482809
C10   C     C_3   0.672080 0.767058 0.317022 0.417521
H21   H     H_    0.543852 0.753876 0.331131 0.027141
H22   H     H_    0.681269 0.912042 0.343052 0.209445
O20   O     O_3   0.580430 0.613240 0.540320 -0.338907
C11   C     C_3   0.452503 0.286162 0.300581 0.772338
H23   H     H_    0.449579 0.355506 0.333261 -0.025753
C12   C     C_3   0.283205 0.237830 0.275137 -0.755239
H24   H     H_    0.215560 0.228596 0.323483 0.253675
H25   H     H_    0.226444 0.277591 0.243107 0.213281
H26   H     H_    0.283094 0.170157 0.239160 0.296008
P7    P     P_3+3 0.517708 0.271129 0.435550 0.507410
O21   O     O_2   0.337390 0.273050 0.457610 -0.359873
O22   O     O_3   0.523650 0.234135 0.339959 -0.579707
H27   H     H_    0.233911 0.809170 0.203543 0.278938
C13   C     C_3   0.042014 0.236329 0.739242 0.760075
C14   C     C_3   0.065706 0.177585 0.794949 -0.112079
H28   H     H_    0.195812 0.186457 0.809799 0.156361
H29   H     H_    0.007622 0.201125 0.847100 0.188861
P8    P     P_3+3 0.553593 0.407210 0.721933 0.608293
C15   C     C_3   0.471689 0.233668 0.674320 0.301541
H30   H     H_    0.578574 0.240413 0.641403 0.092249
O23   O     O_2   0.430296 0.466079 0.755285 -0.293469
O24   O     O_3   0.487696 0.300064 0.740491 -0.481464
H31   H     H_    0.371600 0.241864 0.640216 0.175410
H32   H     H_    0.563747 0.115757 0.690908 0.191910
C16   C     C_3   0.446635 0.138820 0.689286 0.081333
H33   H     H_    0.391078 0.138184 0.742406 0.209543
C17   C     C_R   0.001401 0.456657 0.046410 0.018928
C18   C     C_R   0.903973 0.415088 0.094221 -0.180468
C19   C     C_R   0.805174 0.394350 0.940577 0.315296
C20   C     C_R   0.946573 0.452747 0.973514 -0.076541
C21   C     C_R   0.725946 0.413184 0.881732 0.295122
C22   C     C_R   0.814634 0.463216 0.835259 -0.200987
C23   C     C_R   0.974750 0.507377 0.859271 0.019599
C24   C     C_R   0.036813 0.507153 0.930951 0.033675
C25   C     C_R   0.757046 0.464142 0.763364 0.311211
C26   C     C_R   0.862676 0.501294 0.716084 -0.408199
C27   C     C_R   0.021212 0.542783 0.737360 0.269433
C28   C     C_R   0.074523 0.550077 0.811570 -0.020053
C29   C     C_R   0.158318 0.501396 0.072130 0.047278
C30   C     C_R   0.216750 0.498244 0.143583 -0.034373
C31   C     C_R   0.116667 0.450772 0.188886 -0.201539
C32   C     C_R   0.968187 0.400324 0.157704 0.568471
H34   H     H_    0.819430 0.498792 0.661319 0.169454
C33   C     C_R   0.225373 0.598276 0.839530 -0.108679
C34   C     C_R   0.277288 0.610210 0.912559 0.335036
C35   C     C_R   0.192279 0.556670 0.957697 -0.020164
C36   C     C_R   0.257694 0.547638 0.026481 0.099277
C37   C     C_R   0.421711 0.577570 0.049612 -0.058091
C38   C     C_R   0.377514 0.538547 0.167845 0.009140
C39   C     C_R   0.479137 0.574727 0.118749 -0.172035
C40   C     C_R   0.433382 0.538384 0.239279 0.236929
C41   C     C_R   0.327881 0.498353 0.285214 -0.419579
C42   C     C_R   0.169853 0.455348 0.262465 0.196778
H35   H     H_    0.303604 0.629995 0.805333 0.208651
H36   H     H_    0.605850 0.599486 0.132282 0.182026
H37   H     H_    0.371318 0.498618 0.339448 0.200768
H38   H     H_    0.778760 0.386743 0.080660 0.221383
H39   H     H_    0.511607 0.600271 0.014120 0.181553
C43   C     C_R   0.842455 0.174858 0.550159 0.181011
C44   C     C_R   0.781457 0.081488 0.540986 -0.164692
C45   C     C_R   0.655184 0.892661 0.530586 -0.212192
C46   C     C_R   0.803968 0.936849 0.569338 0.613322
C47   C     C_R   0.865512 0.026686 0.570624 -0.166989
C48   C     C_R   0.588104 0.797311 0.520783 0.141096
H40   H     H_    0.980033 0.054156 0.598995 0.244198
C49   C     C_R   0.441435 0.762849 0.479308 0.047186
C50   C     C_R   0.606929 0.192846 0.481680 0.087615
C51   C     C_R   0.546480 0.097398 0.470372 -0.208611
C52   C     C_R   0.631511 0.042785 0.503965 0.059921
C53   C     C_R   0.402505 0.053197 0.429253 0.435443
C54   C     C_R   0.335540 0.965565 0.431257 -0.146682
C55   C     C_R   0.416022 0.911412 0.463309 -0.073074
C56   C     C_R   0.568766 0.948410 0.498630 0.022651
C57   C     C_R   0.349292 0.819805 0.456192 0.107913
C58   C     C_R   0.748690 0.229998 0.525425 0.071713
H41   H     H_    0.222106 0.939130 0.401276 0.200906
N1    N     N_R   0.439857 0.920948 0.707351 0.291613
O25   O     O_R   0.414597 0.977788 0.766879 -0.241391
O26   O     O_R   0.586339 0.919644 0.687123 -0.309477
N2    N     N_R   0.542665 0.291535 0.235171 0.245391
O27   O     O_R   0.579006 0.368215 0.215909 -0.406745
O28   O     O_R   0.558790 0.217372 0.188757 -0.258009
N3    N     N_R   0.133703 0.327180 0.767506 0.216718
O29   O     O_R   0.145483 0.385124 0.726626 -0.329932
O30   O     O_R   0.179892 0.355656 0.836262 -0.373206
N4    N     N_R   0.871485 0.242685 0.731958 0.174086
O31   O     O_R   0.834103 0.298842 0.695476 -0.458352
O32   O     O_R   0.769869 0.218388 0.778950 -0.383440
N5    N     N_R   0.003087 0.081737 0.766324 0.285808
O33   O     O_R   0.098199 0.023334 0.764347 -0.278460
O34   O     O_R   0.848758 0.053050 0.756215 -0.242703
Cl1   Cl    Cl    0.322337 0.058972 0.619321 -0.621125
N6    N     N_R   0.553740 0.397413 0.880481 0.275519
O35   O     O_R   0.482888 0.467327 0.894212 -0.399971
O36   O     O_R   0.473610 0.320166 0.888165 -0.250771
Cl2   Cl    Cl    0.894575 0.293034 0.172701 -0.442715
Cl3   Cl    Cl    0.751534 0.283563 0.955738 -0.438613
N7    N     N_R   0.408106 0.682891 0.940608 0.234928
O37   O     O_R   0.391384 0.743416 0.999327 -0.352176
O38   O     O_R   0.537463 0.694142 0.903733 -0.351915
Cl4   Cl    Cl    0.920618 0.895278 0.627429 -0.493464
N8    N     N_R   0.329645 0.088029 0.375915 0.236821
O39   O     O_R   0.182613 0.101336 0.385677 -0.423546
O40   O     O_R   0.373432 0.064067 0.309013 -0.384657
Cl5   Cl    Cl    0.375637 0.645815 0.449956 -0.594138
Cl6   Cl    Cl    0.808197 0.348015 0.551874 -0.573007
Cl7   Cl    Cl    0.424678 0.772196 0.771924 -0.540804

loop_
_geom_bond_atom_site_label_1
_geom_bond_atom_site_label_2
_geom_bond_distance
_ccdc_geom_bond_type
O14   Ba2   2.851250 S    
Ba1   O16   2.841467 S    
C12   H25   1.107562 S    
C9    H18   1.110082 S    
C26   C27   1.394391 A    
C31   C42   1.432112 A    
C20   C24   1.414440 A    
C5    H10   1.109056 S    
C7    H15   1.109393 S    
C39   H36   1.080197 S    
O4    P6    1.546835 D    
C2    H4    1.111804 S    
C17   C20   1.426490 A    
P7    C50   1.880999 S    
H32   C16   1.108388 S    
C23   C24   1.441427 A    
C23   C28   1.420391 A    
P4    O12   1.558330 D    
C43   C44   1.413569 A    
N2    O28   1.302203 A    
P5    O19   1.786499 S    
P8    O24   1.759187 S    
P3    O11   1.751694 S    
C45   C56   1.438022 A    
C3    H7    1.110803 S    
C13   N4    1.466378 S    
C18   H38   1.077350 S    
C2    H5    1.110931 S    
N3    O30   1.301228 A    
C7    H13   1.106887 S    
P1    Ba1   3.407828 S    
C8    H16   1.107607 S    
P1    C42   1.895959 S    
C19   C21   1.396745 A    
N7    O38   1.301261 A    
C38   C39   1.400912 A    
C52   C56   1.440168 A    
C4    Cl7   1.786312 S    
N4    O31   1.292311 A    
C40   C41   1.402525 A    
C50   C58   1.406618 A    
P1    O1    1.557934 D    
C17   C29   1.411718 A    
C54   C55   1.389873 A    
C11   C12   1.514018 S    
C45   C46   1.430261 A    
P6    C40   1.871640 S    
C35   C36   1.444832 A    
O2    Ba2   2.843996 S    
O19   C13   1.428537 S    
N8    O39   1.298748 A    
Ba1   O20   2.948504 S    
O12   Ba2   2.829735 S    
P5    O17   1.768966 S    
C15   O24   1.411885 S    
C1    H2    1.110805 S    
P5    C43   1.870940 S    
C11   H23   1.112112 S    
O17   Ba2   2.787071 S    
C41   H37   1.078492 S    
C49   C57   1.400852 A    
O5    C6    1.392717 S    
C12   H26   1.109206 S    
Ba2   O20   2.840880 S    
O3    P6    1.746193 S    
C9    H19   1.105787 S    
O14   P8    1.743010 S    
C27   C28   1.435136 A    
O6    P6    1.753734 S    
O7    Ba1   2.906555 S    
P4    C27   1.900110 S    
C36   C37   1.414795 A    
C47   H40   1.072629 S    
C30   C31   1.427550 A    
N5    O34   1.299491 A    
C15   H30   1.098023 S    
P4    O13   1.575008 S    
P5    O18   1.545056 D    
P2    C48   1.893128 S    
P7    O21   1.581497 D    
C33   C34   1.398873 A    
Ba1   O13   2.843317 S    
C2    C3    1.520134 S    
N3    O29   1.291319 A    
C8    C9    1.526182 S    
C14   H29   1.111904 S    
C44   C47   1.391042 A    
C15   C16   1.527796 S    
C49   Cl5   1.753610 S    
Ba2   O21   2.906869 S    
C19   C20   1.411273 A    
O11   C2    1.405484 S    
N1    O26   1.296264 A    
O16   Ba2   2.947641 S    
C4    H8    1.104271 S    
P1    O5    1.746431 S    
P1    O2    1.574980 S    
C45   C48   1.450874 A    
P2    O10   1.751845 S    
O2    Ba1   2.975027 S    
C18   C32   1.385366 A    
H1    C10   1.111416 S    
C37   C39   1.394502 A    
C6    H11   1.100379 S    
C43   C58   1.401812 A    
P4    O15   1.762237 S    
C29   C30   1.439509 A    
C6    H12   1.110361 S    
P3    C57   1.876086 S    
C6    C7    1.527912 S    
O16   P7    1.773378 S    
C17   C18   1.403083 A    
C22   C25   1.435015 A    
C1    H3    1.110681 S    
C26   H34   1.078779 S    
C13   N3    1.460581 S    
P8    C25   1.867316 S    
C30   C38   1.418198 A    
P2    O7    1.525614 D    
C31   C32   1.404279 A    
C29   C36   1.418971 A    
C51   C52   1.434523 A    
C9    H20   1.106881 S    
N6    O36   1.301358 A    
C33   H35   1.056790 S    
C53   C54   1.379515 A    
C53   N8    1.418506 S    
C5    H9    1.109392 S    
O8    Ba1   2.786331 S    
O13   Ba2   2.975959 S    
N5    O33   1.299502 A    
C44   C52   1.409568 A    
C11   O22   1.404226 S    
N4    O32   1.301311 A    
P2    Ba1   3.459770 S    
N6    O35   1.297620 A    
C5    N1    1.460578 S    
C21   N6    1.430168 S    
Ba1   Ba2   4.709114 S    
C37   H39   1.075349 S    
C15   H31   1.098041 S    
C24   C35   1.426106 A    
C14   H28   1.108889 S    
C46   C47   1.386791 A    
N1    O25   1.300720 A    
C4    C5    1.542128 S    
N2    O27   1.298095 A    
O1    Ba1   2.829220 S    
P3    O8    1.733705 S    
N8    O40   1.301011 A    
C55   C56   1.412951 A    
C58   Cl6   1.757221 S    
C13   C14   1.558639 S    
C41   C42   1.401354 A    
C8    H17   1.110889 S    
C11   N2    1.456418 S    
C10   H21   1.109870 S    
C38   C40   1.418849 A    
C46   Cl4   1.755547 S    
C14   N5    1.457927 S    
C32   Cl2   1.746548 S    
C25   C26   1.401214 A    
C7    H14   1.105727 S    
C3    H27   1.110732 S    
C1    C10   1.520457 S    
O10   C8    1.397968 S    
C19   Cl3   1.774385 S    
C34   C35   1.421840 A    
P8    O23   1.541007 D    
C4    O15   1.401005 S    
C48   C49   1.414322 A    
C16   Cl1   1.778642 S    
C12   H24   1.096064 S    
P2    O20   1.601184 S    
C21   C22   1.420444 A    
P4    Ba2   3.408401 S    
C16   H33   1.103993 S    
P3    O9    1.545573 D    
N7    O37   1.301513 A    
C51   C53   1.417039 A    
C3    H6    1.108696 S    
P7    O22   1.760432 S    
C22   C23   1.425686 A    
C54   H41   1.075825 S    
C1    H22   1.110614 S    
C34   N7    1.434173 S    
O6    C10   1.406049 S    
O3    Ba1   2.851792 S    
C28   C33   1.393573 A    
C50   C51   1.438730 A    
C55   C57   1.403100 A    
