data_mof_unit_4061.cif
_audit_creation_date              2012-10-26T17:34:57-0400
_audit_creation_method            fapswitch 2.2
_symmetry_space_group_name_H-M    P1
_symmetry_Int_Tables_number       1
_space_group_crystal_system       triclinic
_cell_length_a                    18.444489
_cell_length_b                    18.781284
_cell_length_c                    18.971665
_cell_angle_alpha                 109.893083
_cell_angle_beta                  109.048582
_cell_angle_gamma                 108.421671
_cell_volume                      5123.01327263

loop_
_atom_site_label
_atom_site_type_symbol
_atom_type_description
_atom_site_fract_x
_atom_site_fract_y
_atom_site_fract_z
_atom_type_partial_charge
C1    C     C_R   0.619460 0.618305 0.500208 0.581969
C2    C     C_R   0.217163 0.382838 0.481315 -0.129318
C3    C     C_R   0.848439 0.602372 0.505527 0.023120
C4    C     C_R   0.144573 0.390316 0.483798 0.032158
C5    C     C_R   0.902049 0.657314 0.488327 -0.141711
C6    C     C_R   0.093258 0.337684 0.504611 -0.079983
C7    C     C_R   0.889162 0.724679 0.482403 -0.093822
C8    C     C_R   0.109524 0.273758 0.515509 -0.127056
C9    C     C_R   0.821895 0.739130 0.493794 0.017135
C10   C     C_R   0.177748 0.260373 0.505598 -0.000065
C11   C     C_R   0.761550 0.678208 0.501530 -0.028020
C12   C     C_R   0.379344 0.381441 0.498358 0.551685
C13   C     C_R   0.236942 0.320373 0.496124 -0.009638
C14   C     C_R   0.686271 0.684423 0.499027 0.002037
C15   C     C_R   0.312103 0.314229 0.498067 -0.018038
C16   C     C_R   0.378379 0.499375 0.382853 0.585221
C17   C     C_R   0.614640 0.495575 0.618465 0.571849
C18   C     C_R   0.675139 0.754946 0.496582 0.012346
C19   C     C_R   0.323510 0.243487 0.500063 -0.010090
C20   C     C_R   0.743648 0.823743 0.505542 -0.046117
C21   C     C_R   0.262739 0.181856 0.506481 -0.036456
C22   C     C_R   0.814175 0.813207 0.498657 0.026441
C23   C     C_R   0.248528 0.424059 0.243141 -0.190019
C24   C     C_R   0.188317 0.189125 0.506020 0.023491
C25   C     C_R   0.995581 0.618041 0.115347 0.539821
C26   C     C_R   0.004213 0.381787 0.884280 0.566590
C27   C     C_R   0.119252 0.499665 0.118075 0.569096
C28   C     C_R   0.881532 0.491687 0.873503 0.524870
C29   C     C_R   0.991262 0.111320 0.617810 0.525711
C30   C     C_R   0.008067 0.887804 0.382080 0.565311
C31   C     C_R   0.881139 0.880716 0.499242 0.536657
C32   C     C_R   0.119361 0.119754 0.501667 0.571269
C33   C     C_R   0.890322 0.707639 0.079992 -0.016869
C34   C     C_R   0.766592 0.535215 0.700702 -0.140716
C35   C     C_R   0.138346 0.319345 0.908631 0.025546
C36   C     C_R   0.877557 0.770313 0.059882 0.060072
C37   C     C_R   0.170759 0.267933 0.933922 0.070752
C38   C     C_R   0.922015 0.857571 0.125460 -0.043278
C39   C     C_R   0.122680 0.176708 0.882534 0.000671
C40   C     C_R   0.332380 0.648712 0.418351 0.036440
C41   C     C_R   0.578388 0.410628 0.723153 0.017185
C42   C     C_R   0.975359 0.880295 0.211064 0.048351
C43   C     C_R   0.051678 0.139209 0.799045 0.046408
C44   C     C_R   0.983384 0.815626 0.231031 0.013510
C45   C     C_R   0.184769 0.421379 0.176704 -0.016847
C46   C     C_R   0.028799 0.194001 0.770967 -0.047378
C47   C     C_R   0.955053 0.734317 0.163368 -0.024978
C48   C     C_R   0.057508 0.278254 0.832349 0.001069
C49   C     C_R   0.991986 0.682860 0.182062 0.012425
C50   C     C_R   0.003716 0.316489 0.814032 0.021207
C51   C     C_R   0.039511 0.702462 0.267351 -0.015516
C52   C     C_R   0.936590 0.280088 0.729152 -0.013806
C53   C     C_R   0.059835 0.779906 0.335195 -0.015002
C54   C     C_R   0.923900 0.205576 0.662846 -0.008906
C55   C     C_R   0.021154 0.830214 0.316500 0.026260
C56   C     C_R   0.833492 0.530334 0.756629 -0.004456
C57   C     C_R   0.977616 0.167759 0.683642 -0.034541
C58   C     C_R   0.351193 0.730769 0.425667 0.055866
C59   C     C_R   0.551256 0.336889 0.733263 0.074974
C60   C     C_R   0.319351 0.736068 0.351172 -0.099741
C61   C     C_R   0.609367 0.304813 0.753601 -0.083671
C62   C     C_R   0.264988 0.661495 0.271817 -0.154789
C63   C     C_R   0.695193 0.349670 0.772196 -0.121217
C64   C     C_R   0.249844 0.579319 0.262915 -0.018518
C65   C     C_R   0.723546 0.424592 0.764919 -0.004910
C66   C     C_R   0.296816 0.575782 0.335880 0.054185
C67   C     C_R   0.187251 0.500373 0.185035 0.009396
C68   C     C_R   0.660003 0.444323 0.724310 0.048536
C69   C     C_R   0.305764 0.499933 0.321488 -0.001486
C70   C     C_R   0.681056 0.494531 0.685361 0.021909
C71   C     C_3   0.740721 0.907810 0.523577 -0.394627
C72   C     C_3   0.279153 0.110871 0.518455 -0.337676
C73   C     C_3   0.063140 0.637150 0.284156 -0.374064
C74   C     C_3   0.881966 0.323159 0.708007 -0.359159
C75   C     C_3   0.825894 0.613208 0.016519 -0.331729
C76   C     C_3   0.195471 0.416279 0.956276 -0.339662
C77   C     C_2   0.823965 0.746116 0.969179 0.218460
C78   C     C_R   0.812990 0.479474 0.795195 -0.017030
C79   C     C_2   0.252956 0.309336 0.015417 0.230079
C80   C     C_3   0.911626 0.927155 0.106322 -0.415156
C81   C     C_3   0.147900 0.119886 0.914834 -0.344259
C82   C     C_2   0.033841 0.973304 0.275837 0.250351
C83   C     C_2   0.992528 0.043795 0.744421 0.261674
C84   C     C_3   0.130538 0.813430 0.425061 -0.354108
C85   C     C_3   0.850903 0.164565 0.571821 -0.361781
C86   C     C_3   0.324026 0.636914 0.490910 -0.374314
C87   C     C_3   0.530216 0.462026 0.730461 -0.370034
C88   C     C_2   0.400176 0.810563 0.510667 0.213686
C89   C     C_R   0.778311 0.612653 0.511693 -0.072934
C90   C     C_2   0.462577 0.292743 0.722310 0.232653
C91   C     C_2   0.120476 0.334230 0.100206 0.203197
C92   C     C_2   0.921432 0.574492 0.766586 0.277158
C93   C     C_2   0.590924 0.756117 0.481475 0.244042
C94   C     C_2   0.396701 0.230927 0.491670 0.244233
C95   C     C_2   0.865986 0.533934 0.515906 0.231970
C96   C     C_2   0.121746 0.452034 0.463035 0.220429
Cu1   Cu    Cu3+1 0.500020 0.438200 0.438210 1.034325
Cu2   Cu    Cu3+1 0.499980 0.561800 0.561790 0.934220
Cu3   Cu    Cu3+1 0.938190 0.438210 0.000010 0.973996
Cu4   Cu    Cu3+1 0.061810 0.561790 0.999990 0.980438
Cu5   Cu    Cu3+1 0.938200 0.000020 0.438210 0.916127
Cu6   Cu    Cu3+1 0.061800 0.999980 0.561790 0.994983
H1    H     H_    0.252598 0.365526 0.234433 0.111234
H2    H     H_    0.737919 0.322845 0.788611 0.143353
H3    H     H_    0.738044 0.569651 0.525559 0.161681
H4    H     H_    0.256341 0.424624 0.465560 0.102812
H5    H     H_    0.727286 0.928989 0.577911 0.108422
H6    H     H_    0.688809 0.898705 0.465761 0.148849
H7    H     H_    0.803438 0.962291 0.544292 0.140275
H8    H     H_    0.291241 0.121442 0.583307 0.188574
H9    H     H_    0.222376 0.046260 0.469710 0.190289
H10   H     H_    0.336910 0.108406 0.514697 0.125351
H11   H     H_    0.088371 0.652034 0.351815 0.126678
H12   H     H_    0.781176 0.571171 0.668407 0.113861
H13   H     H_    0.003717 0.573047 0.246848 0.160415
H14   H     H_    0.111945 0.631706 0.264169 0.136194
H15   H     H_    0.881264 0.331723 0.652725 0.167482
H16   H     H_    0.814159 0.283630 0.692916 0.119553
H17   H     H_    0.908475 0.388479 0.760734 0.177867
H18   H     H_    0.758162 0.602713 0.997189 0.182508
H19   H     H_    0.834136 0.593230 0.959021 0.153928
H20   H     H_    0.830194 0.570578 0.044010 0.145453
H21   H     H_    0.263916 0.433503 0.971020 0.177844
H22   H     H_    0.176164 0.445074 0.916166 0.147396
H23   H     H_    0.955105 0.649037 0.480807 0.108858
H24   H     H_    0.194261 0.445749 0.016961 0.168324
H25   H     H_    0.851609 0.782167 0.941923 0.105546
H26   H     H_    0.251078 0.301607 0.068998 0.095533
H27   H     H_    0.864438 0.902974 0.039056 0.137980
H28   H     H_    0.887055 0.959553 0.146194 0.128903
H29   H     H_    0.975774 0.975614 0.121279 0.132940
H30   H     H_    0.201393 0.155678 0.981902 0.103455
H31   H     H_    0.090895 0.073662 0.912716 0.160139
H32   H     H_    0.170078 0.084207 0.874441 0.192832
H33   H     H_    0.010820 0.020106 0.278459 0.118645
H34   H     H_    0.038651 0.344071 0.509944 0.164523
H35   H     H_    0.925423 0.019328 0.697546 0.086051
H36   H     H_    0.169999 0.884825 0.459050 0.165229
H37   H     H_    0.101059 0.792441 0.461735 0.140002
H38   H     H_    0.179532 0.791361 0.423941 0.140622
H39   H     H_    0.818054 0.093210 0.541631 0.142620
H40   H     H_    0.797623 0.180792 0.568567 0.127311
H41   H     H_    0.877592 0.185396 0.533418 0.157389
H42   H     H_    0.289899 0.567923 0.471680 0.126559
H43   H     H_    0.283943 0.665137 0.508993 0.108664
H44   H     H_    0.389294 0.669416 0.548162 0.147816
H45   H     H_    0.932564 0.764799 0.468577 0.141551
H46   H     H_    0.470775 0.432227 0.668761 0.163659
H47   H     H_    0.510537 0.463459 0.780150 0.116526
H48   H     H_    0.572716 0.530699 0.753360 0.192172
H49   H     H_    0.429667 0.808716 0.569214 0.107998
H50   H     H_    0.413220 0.310329 0.697437 0.112540
H51   H     H_    0.117821 0.277198 0.104173 0.091964
H52   H     H_    0.941367 0.633749 0.763413 0.103306
H53   H     H_    0.589987 0.815696 0.513081 0.104928
H54   H     H_    0.382980 0.169425 0.443608 0.120753
H55   H     H_    0.920379 0.526964 0.510258 0.147626
H56   H     H_    0.067847 0.235241 0.531894 0.143361
H57   H     H_    0.153154 0.483303 0.434801 0.088831
H58   H     H_    0.331107 0.797729 0.354556 0.165360
H59   H     H_    0.589706 0.246961 0.758985 0.164995
H60   H     H_    0.236848 0.671282 0.219024 0.162232
O1    O     O_R   0.590200 0.537990 0.447830 -0.504886
O2    O     O_R   0.409830 0.357640 0.447810 -0.481874
O3    O     O_R   0.409850 0.447820 0.357640 -0.502350
O4    O     O_R   0.590150 0.552180 0.642360 -0.529670
O5    O     O_R   0.409820 0.552200 0.462010 -0.511420
O6    O     O_R   0.590180 0.447800 0.537990 -0.463472
O7    O     O_R   0.947790 0.538000 0.090170 -0.529539
O8    O     O_R   0.052210 0.462000 0.909830 -0.510748
O9    O     O_R   0.052190 0.642370 0.090170 -0.504432
O10   O     O_R   0.947810 0.357630 0.909830 -0.475686
O11   O     O_R   0.037970 0.447810 0.090190 -0.455801
O12   O     O_R   0.409800 0.462010 0.552170 -0.539029
O13   O     O_R   0.962030 0.552190 0.909810 -0.463370
O14   O     O_R   0.142360 0.552180 0.090180 -0.544297
O15   O     O_R   0.857640 0.447820 0.909820 -0.537041
O16   O     O_R   0.947800 0.090190 0.538000 -0.533472
O17   O     O_R   0.052200 0.909810 0.462000 -0.531928
O18   O     O_2   0.748545 0.687625 0.924866 -0.526719
O19   O     O_2   0.323490 0.349673 0.021976 -0.488036
O20   O     O_2   0.110083 0.998897 0.324599 -0.549358
O21   O     O_2   0.017700 0.991815 0.748461 -0.509336
O22   O     O_2   0.408894 0.879875 0.516423 -0.514659
O23   O     O_R   0.052170 0.090160 0.642370 -0.480231
O24   O     O_2   0.443251 0.235564 0.740551 -0.508942
O25   O     O_2   0.071486 0.323831 0.031955 -0.501706
O26   O     O_2   0.969779 0.542441 0.772119 -0.482281
O27   O     O_2   0.521039 0.690438 0.430132 -0.490439
O28   O     O_2   0.472421 0.288032 0.538736 -0.504893
O29   O     O_2   0.820313 0.484694 0.530983 -0.503255
O30   O     O_2   0.066361 0.467650 0.475855 -0.514376
O31   O     O_R   0.947830 0.909840 0.357630 -0.509622
O32   O     O_R   0.857630 0.909850 0.447810 -0.510740
O33   O     O_R   0.142370 0.090150 0.552190 -0.513655
O34   O     O_R   0.962000 0.909820 0.552180 -0.487465
O35   O     O_R   0.038000 0.090180 0.447820 -0.520340
O36   O     O_R   0.590170 0.642360 0.552190 -0.492766

loop_
_geom_bond_atom_site_label_1
_geom_bond_atom_site_label_2
_ccdc_geom_bond_type
C79   H26   S    
C63   C65   A    
C34   C56   A    
Cu5   Cu6   S    
C23   C45   A    
C71   H5    S    
C75   H20   S    
C43   C83   S    
C14   C18   A    
C30   C55   S    
C1    O36   A    
C42   C82   S    
C8    H56   S    
Cu6   O33   S    
C85   H41   S    
C72   H10   S    
Cu1   Cu2   S    
C73   H11   S    
C81   H32   S    
C47   C49   A    
C15   C19   A    
C74   H17   S    
C37   C79   S    
C75   H18   S    
C73   H14   S    
C53   C84   S    
C61   H59   S    
C35   C37   A    
C92   H52   S    
Cu3   O15   S    
C52   C74   S    
C36   C77   S    
C26   C50   S    
C31   O34   A    
Cu2   O12   S    
C11   C14   A    
Cu5   O35   S    
C9    C22   A    
C88   O22   D    
C66   C69   A    
C16   O5    A    
C58   C60   A    
C33   C36   A    
C56   C78   A    
C60   C62   A    
C40   C86   S    
C82   H33   S    
C61   C63   A    
C2    C13   A    
C23   C69   A    
C62   C64   A    
Cu5   O16   S    
C4    C96   S    
C33   C75   S    
C23   H1    S    
C84   H37   S    
Cu5   O31   S    
C49   C51   A    
C87   H48   S    
C45   C67   A    
C50   C52   A    
C30   O17   A    
C20   C71   S    
C65   C78   A    
C28   C78   S    
C28   O15   A    
C34   C70   A    
C7    H45   S    
Cu2   O5    S    
C77   H25   S    
C44   C47   A    
C95   O29   D    
C68   C70   A    
Cu1   O2    S    
C48   C50   A    
C72   H9    S    
C26   O10   A    
C17   C70   S    
C80   H29   S    
C40   C66   A    
C71   H6    S    
Cu4   O9    S    
Cu6   O17   S    
C27   O11   A    
C42   C44   A    
C32   O33   A    
C74   H16   S    
C35   C48   A    
C86   H44   S    
C52   C54   A    
C41   C68   A    
C6    H34   S    
C53   C55   A    
C41   C87   S    
C46   C48   A    
C35   C76   S    
C59   C61   A    
C77   O18   D    
C40   C58   A    
C22   C31   S    
Cu2   O36   S    
C21   C72   S    
Cu4   O8    S    
C76   H22   S    
C64   C67   A    
C51   C73   S    
C93   H53   S    
C80   H28   S    
C41   C59   A    
C90   H50   S    
C87   H46   S    
C85   H39   S    
C5    C7    A    
C76   H24   S    
C81   H30   S    
C39   C43   A    
Cu3   O10   S    
C90   O24   D    
C10   C24   A    
C10   C13   A    
C2    H4    S    
C79   O19   D    
C58   C88   S    
C51   C53   A    
C59   C90   S    
C64   C66   A    
C85   H40   S    
C2    C4    A    
C24   C32   S    
Cu4   O14   S    
C32   O35   A    
C12   O2    A    
Cu1   O1    S    
C11   C89   A    
Cu3   Cu4   S    
Cu3   O11   S    
C12   C15   S    
C16   O3    A    
C65   C68   A    
Cu4   O13   S    
C83   O21   D    
C81   H31   S    
C9    C11   A    
C39   C81   S    
Cu2   O4    S    
C19   C94   S    
C26   O8    A    
C4    C6    A    
C54   C85   S    
C29   C57   S    
C29   O16   A    
C13   C15   A    
C46   C57   A    
C33   C47   A    
C88   H49   S    
C5    H23   S    
C86   H43   S    
C83   H35   S    
Cu5   O32   S    
C12   O12   A    
C94   O28   D    
C25   O7    A    
C7    C9    A    
C74   H15   S    
C91   O25   D    
C80   H27   S    
C19   C21   A    
C75   H19   S    
C76   H21   S    
C8    C10   A    
C16   C69   S    
C60   H58   S    
C20   C22   A    
C63   H2    S    
C3    C5    A    
C17   O6    A    
Cu6   O34   S    
C27   O14   A    
C31   O32   A    
C6    C8    A    
C92   O26   D    
C28   O13   A    
C91   H51   S    
Cu3   O7    S    
C93   O27   D    
C34   H12   S    
Cu1   O6    S    
Cu6   O23   S    
C82   O20   D    
C73   H13   S    
C3    C89   A    
C17   O4    A    
C96   O30   D    
C36   C38   A    
C37   C39   A    
C44   C55   A    
C25   O9    A    
C62   H60   S    
C38   C80   S    
C72   H8    S    
Cu1   O3    S    
C71   H7    S    
C29   O23   A    
C86   H42   S    
C18   C20   A    
C1    O1    A    
C45   C91   S    
C43   C46   A    
C25   C49   S    
C95   H55   S    
C27   C67   S    
C84   H36   S    
C30   O31   A    
C38   C42   A    
C56   C92   S    
C96   H57   S    
C84   H38   S    
C94   H54   S    
C87   H47   S    
C21   C24   A    
C89   H3    S    
C18   C93   S    
C3    C95   S    
C1    C14   S    
C54   C57   A    
