data_mof_unit_3689.cif
_audit_creation_date              2012-12-10T17:22:10-0500
_audit_creation_method            fapswitch 2.2
_symmetry_space_group_name_H-M    P1
_symmetry_Int_Tables_number       1
_space_group_crystal_system       triclinic
_cell_length_a                    15.880237
_cell_length_b                    10.866953
_cell_length_c                    9.580805
_cell_angle_alpha                 90.370437
_cell_angle_beta                  90.065079
_cell_angle_gamma                 92.505189
_cell_volume                      1651.74114268

loop_
_atom_site_label
_atom_site_type_symbol
_atom_type_description
_atom_site_fract_x
_atom_site_fract_y
_atom_site_fract_z
_atom_type_partial_charge
C1    C     C_R   0.506654 0.263066 0.500365 0.798435
C2    C     C_3   0.952683 0.566426 0.629175 -0.441869
C3    C     C_3   0.917082 0.502821 0.494690 0.277162
C4    C     C_3   0.954162 0.575993 0.366504 0.133380
C5    C     C_3   0.052075 0.572722 0.367863 -0.399521
C6    C     C_1   0.824906 0.502223 0.497531 -0.086586
C7    C     C_1   0.174966 0.501355 0.498669 -0.098529
C8    C     C_1   0.250534 0.500560 0.499573 -0.186897
C9    C     C_R   0.554700 0.122446 0.754958 -0.162054
C10   C     C_R   0.544856 0.064587 0.883554 -0.160657
C11   C     C_R   0.503244 0.949864 0.890714 -0.140767
C12   C     C_R   0.340250 0.499764 0.499958 0.834177
C13   C     C_R   0.479397 0.887745 0.768215 -0.164513
C14   C     C_R   0.497728 0.939603 0.635384 0.092975
C15   C     C_R   0.522962 0.065390 0.630924 0.096079
C16   C     C_R   0.514257 0.129264 0.503150 -0.120797
C17   C     C_R   0.501330 0.063002 0.378707 -0.216455
C18   C     C_R   0.494231 0.935842 0.380179 -0.218075
C19   C     C_R   0.492227 0.872329 0.507000 -0.114420
C20   C     C_R   0.611700 0.664550 0.145404 -0.157828
C21   C     C_R   0.665966 0.745140 0.073659 -0.233307
C22   C     C_R   0.666198 0.744675 0.929918 -0.195393
C23   C     C_R   0.495462 0.737625 0.501538 0.776987
C24   C     C_R   0.611869 0.664011 0.857044 -0.138133
C25   C     C_R   0.554866 0.580848 0.925778 0.191351
C26   C     C_R   0.554818 0.580938 0.075471 0.210033
C27   C     C_R   0.448173 0.422588 0.073277 -0.070833
C28   C     C_R   0.448182 0.422634 0.925273 -0.067442
C29   C     C_R   0.659705 0.500470 0.500000 0.803842
C30   C     C_3   0.050254 0.565747 0.630561 -0.382487
C31   C     C_3   0.044591 0.368638 0.490267 -0.387138
C32   C     C_3   0.947136 0.368744 0.493392 -0.387948
C33   C     C_1   0.749348 0.501349 0.499679 -0.195176
C34   C     C_3   0.082770 0.502178 0.497044 0.286387
Cu1   Cu    Cu3+1 0.499990 0.499990 0.640660 0.919028
Cu2   Cu    Cu3+1 0.500010 0.500010 0.359340 0.927317
H1    H     H_    0.927356 0.518095 0.723340 0.181485
H2    H     H_    0.076828 0.662093 0.637366 0.163524
H3    H     H_    0.932462 0.663116 0.635280 0.157513
H4    H     H_    0.496634 0.109385 0.279411 0.161791
H5    H     H_    0.588875 0.210616 0.754117 0.162575
H6    H     H_    0.567315 0.110425 0.978015 0.135593
H7    H     H_    0.491005 0.907595 0.991125 0.138085
H8    H     H_    0.443989 0.801631 0.780858 0.168826
H9    H     H_    0.488833 0.887327 0.281201 0.164954
H10   H     H_    0.405738 0.359133 0.128076 0.136383
H11   H     H_    0.071575 0.516462 0.724856 0.173728
H12   H     H_    0.617646 0.672022 0.255392 0.200642
H13   H     H_    0.708491 0.808071 0.130374 0.148169
H14   H     H_    0.708681 0.807532 0.874105 0.148274
H15   H     H_    0.617214 0.671751 0.747131 0.200466
H16   H     H_    0.405779 0.359165 0.869339 0.144082
H17   H     H_    0.065354 0.322310 0.393041 0.160927
H18   H     H_    0.067431 0.314661 0.580004 0.165652
H19   H     H_    0.923892 0.319965 0.588631 0.166755
H20   H     H_    0.920448 0.315638 0.403037 0.154743
H21   H     H_    0.079728 0.668663 0.369389 0.140275
H22   H     H_    0.075358 0.528222 0.271093 0.176838
H23   H     H_    0.937941 0.674301 0.378764 0.123184
N1    N     N_R   0.500800 0.501210 0.147910 -0.197092
N2    N     N_R   0.500820 0.501290 0.852040 -0.203368
O1    O     O_R   0.499990 0.319640 0.618810 -0.587927
O2    O     O_R   0.500000 0.319660 0.381240 -0.581017
O3    O     O_R   0.379430 0.499990 0.618840 -0.575015
O4    O     O_R   0.379440 0.500020 0.381260 -0.571562
O5    O     O_R   0.500000 0.680340 0.618760 -0.613499
O6    O     O_R   0.500010 0.680360 0.381190 -0.599101
O7    O     O_R   0.620560 0.499980 0.618740 -0.596087
O8    O     O_R   0.620570 0.500010 0.381160 -0.593834
N3    N     N_2   0.921891 0.529084 0.232755 -0.432087
H24   H     H_    0.923764 0.435786 0.214315 0.255231
C35   C     C_3   0.851860 0.589378 0.169876 -0.694353
H25   H     H_    0.844940 0.559092 0.059407 0.230726
H26   H     H_    0.863170 0.690966 0.171199 0.220091
H27   H     H_    0.792404 0.564566 0.225330 0.244104

loop_
_geom_bond_atom_site_label_1
_geom_bond_atom_site_label_2
_ccdc_geom_bond_type
C10   H6    S    
C28   H16   S    
Cu1   Cu2   S    
C3    C6    S    
C1    O1    A    
C21   H13   S    
Cu2   O6    S    
C7    C8    T    
C5    H22   S    
C23   O5    A    
C27   N1    A    
C12   O3    A    
C15   C16   A    
C29   C33   S    
C30   H2    S    
C18   C19   A    
C23   O6    A    
C2    H3    S    
C16   C17   A    
C11   H7    S    
N3    H24   S    
Cu2   O2    S    
C9    C10   A    
C32   H19   S    
C22   H14   S    
C28   N2    A    
C24   H15   S    
C13   C14   A    
C35   H27   S    
C1    O2    A    
C4    N3    S    
C29   O8    A    
C30   C34   S    
C30   H11   S    
C24   C25   A    
C35   H26   S    
Cu2   O4    S    
C35   H25   S    
Cu1   O5    S    
C25   C26   A    
C17   H4    S    
C19   C23   S    
C29   O7    A    
C31   C32   S    
C8    C12   S    
C5    C34   S    
C17   C18   A    
C31   C34   S    
Cu1   N2    S    
C1    C16   S    
C25   N2    A    
C31   H17   S    
Cu1   O3    S    
C27   H10   S    
C7    C34   S    
C22   C24   A    
C3    C4    S    
C18   H9    S    
Cu2   O8    S    
C20   H12   S    
C14   C19   A    
C4    C5    S    
Cu2   N1    S    
C12   O4    A    
C9    H5    S    
C6    C33   T    
C5    H21   S    
C2    C30   S    
C2    C3    S    
C9    C15   A    
C11   C13   A    
C2    H1    S    
C20   C26   A    
Cu1   O7    S    
C4    H23   S    
Cu1   O1    S    
C31   H18   S    
C3    C32   S    
C10   C11   A    
C20   C21   A    
C27   C28   A    
C14   C15   A    
N3    C35   S    
C21   C22   A    
C26   N1    A    
C32   H20   S    
C13   H8    S    
