data_mof_unit_4829.cif
_audit_creation_date              2012-12-10T18:03:34-0500
_audit_creation_method            fapswitch 2.2
_symmetry_space_group_name_H-M    P1
_symmetry_Int_Tables_number       1
_space_group_crystal_system       triclinic
_cell_length_a                    10.766698
_cell_length_b                    9.72929
_cell_length_c                    19.289718
_cell_angle_alpha                 87.736488
_cell_angle_beta                  93.539384
_cell_angle_gamma                 91.473211
_cell_volume                      2014.66638353

loop_
_atom_site_label
_atom_site_type_symbol
_atom_type_description
_atom_site_fract_x
_atom_site_fract_y
_atom_site_fract_z
_atom_type_partial_charge
C1    C     C_R   0.871544 0.502793 0.501304 -0.011909
C2    C     C_R   0.128580 0.499063 0.499373 -0.002642
C3    C     C_R   0.465938 0.634117 0.958061 0.212282
C4    C     C_R   0.458804 0.386659 0.039611 0.208190
C5    C     C_R   0.467952 0.638888 0.030815 0.204284
C6    C     C_R   0.459860 0.381778 0.967007 0.208063
C7    C     C_R   0.465649 0.515119 0.071479 -0.140373
C8    C     C_R   0.464319 0.505553 0.926402 -0.142371
C9    C     C_R   0.262711 0.499083 0.499342 0.784064
C10   C     C_R   0.737285 0.501228 0.500473 0.747195
C11   C     C_R   0.498071 0.502325 0.368274 0.827036
C12   C     C_R   0.500526 0.497708 0.631868 0.774925
C13   C     C_R   0.065085 0.390628 0.532282 -0.197154
C14   C     C_R   0.935228 0.613509 0.470147 -0.199858
C15   C     C_R   0.936743 0.391290 0.532256 -0.181146
C16   C     C_R   0.063605 0.611239 0.468764 -0.185250
C17   C     C_R   0.602519 0.491767 0.752186 0.216489
C18   C     C_R   0.600123 0.497491 0.256131 0.202389
C19   C     C_R   0.374873 0.526721 0.256313 0.202067
C20   C     C_R   0.374378 0.497691 0.735072 0.218588
C21   C     C_R   0.590345 0.494091 0.824138 -0.183659
C22   C     C_R   0.590482 0.503011 0.183517 -0.191234
C23   C     C_R   0.367605 0.533068 0.183653 -0.232874
C24   C     C_R   0.366028 0.502124 0.806839 -0.187617
C25   C     C_R   0.473376 0.500569 0.851011 0.024962
C26   C     C_R   0.474749 0.519213 0.147519 0.054116
C27   C     C_R   0.420650 0.075314 0.454264 0.209303
C28   C     C_R   0.583004 0.927832 0.541497 0.178754
C29   C     C_R   0.564041 0.069422 0.550903 0.181951
C30   C     C_R   0.423895 0.927122 0.452609 0.207509
C31   C     C_R   0.492882 0.492646 0.707355 -0.164157
C32   C     C_R   0.491231 0.507937 0.292629 -0.122754
Cu1   Cu    Cu3+1 0.500000 0.640660 0.500000 0.924585
Cu2   Cu    Cu3+1 0.500000 0.359340 0.500000 0.919740
H1    H     H_    0.114543 0.307176 0.559235 0.139172
H2    H     H_    0.885769 0.699623 0.445440 0.135538
H3    H     H_    0.888990 0.305420 0.557107 0.141481
H4    H     H_    0.111886 0.696398 0.443393 0.132303
H5    H     H_    0.671544 0.490706 0.860039 0.147044
H6    H     H_    0.672967 0.491796 0.154932 0.147843
H7    H     H_    0.278446 0.546781 0.155314 0.142968
H8    H     H_    0.275539 0.505163 0.828355 0.149779
N1    N     N_R   0.500000 0.852070 0.500000 -0.210758
N2    N     N_R   0.500000 0.147930 0.500000 -0.214141
O1    O     O_R   0.319640 0.618740 0.500000 -0.597429
O2    O     O_R   0.680360 0.381260 0.500000 -0.579144
O3    O     O_R   0.680360 0.618740 0.500000 -0.584218
O4    O     O_R   0.319640 0.381260 0.500000 -0.588217
O5    O     O_R   0.500020 0.618830 0.400190 -0.575231
O6    O     O_R   0.499980 0.381170 0.599810 -0.582580
O7    O     O_R   0.499980 0.618830 0.599810 -0.556395
O8    O     O_R   0.500020 0.381170 0.400190 -0.601143
C33   C     C_3   0.312708 0.146001 0.413480 -0.341537
C34   C     C_3   0.190947 0.120886 0.449663 -0.862355
H9    H     H_    0.206451 0.137690 0.506046 0.259196
H10   H     H_    0.119234 0.192298 0.426882 0.251173
H11   H     H_    0.154024 0.014405 0.444070 0.227429
H12   H     H_    0.326242 0.255837 0.405786 0.266000
H13   H     H_    0.301169 0.114023 0.359081 0.163529
C35   C     C_3   0.713532 0.880563 0.562530 -0.320311
C36   C     C_3   0.725361 0.794821 0.630566 -0.744268
H14   H     H_    0.640823 0.797643 0.660458 0.247744
H15   H     H_    0.744586 0.687341 0.619578 0.252892
H16   H     H_    0.805408 0.833824 0.663886 0.206062
H17   H     H_    0.755340 0.832392 0.519143 0.204129
H18   H     H_    0.776893 0.971710 0.568404 0.158965
C37   C     C_3   0.569317 0.107062 0.626719 -0.327356
C38   C     C_3   0.688801 0.182159 0.651604 -0.793247
H19   H     H_    0.769076 0.112842 0.655168 0.223283
H20   H     H_    0.709449 0.270998 0.616742 0.267061
H21   H     H_    0.677685 0.218271 0.704622 0.250398
H22   H     H_    0.484399 0.160803 0.638275 0.213618
H23   H     H_    0.561421 0.013001 0.660827 0.165965
C39   C     C_3   0.357753 0.858333 0.390366 -0.339653
C40   C     C_3   0.434193 0.877475 0.325939 -0.834086
H24   H     H_    0.441044 0.987383 0.308820 0.228088
H25   H     H_    0.389176 0.819686 0.282390 0.233673
H26   H     H_    0.530408 0.840771 0.336831 0.269653
H27   H     H_    0.334313 0.750320 0.400358 0.253169
H28   H     H_    0.263667 0.897204 0.377212 0.158615
N3    N     N_2   0.723213 0.482736 0.725432 -0.436865
H29   H     H_    0.727471 0.479307 0.672439 0.231709
C41   C     C_3   0.827192 0.555404 0.759901 -0.717816
H30   H     H_    0.802153 0.662872 0.769274 0.227692
H31   H     H_    0.908166 0.557945 0.726801 0.231048
H32   H     H_    0.856068 0.501265 0.809759 0.231474
N4    N     N_2   0.719243 0.478923 0.291320 -0.428771
H33   H     H_    0.718620 0.431617 0.340055 0.255595
C42   C     C_3   0.800968 0.599138 0.289448 -0.712476
H34   H     H_    0.761345 0.683434 0.317797 0.221802
H35   H     H_    0.814656 0.634544 0.234935 0.230803
H36   H     H_    0.893281 0.573210 0.314743 0.231417
N5    N     N_2   0.265772 0.541482 0.293142 -0.449445
H37   H     H_    0.223892 0.634638 0.282225 0.244850
C43   C     C_3   0.177141 0.427624 0.287710 -0.718006
H38   H     H_    0.106988 0.436512 0.327039 0.235505
H39   H     H_    0.224562 0.328226 0.297313 0.231291
H40   H     H_    0.128615 0.428808 0.235157 0.223086
N6    N     N_2   0.262353 0.494650 0.691736 -0.433346
H41   H     H_    0.266784 0.442281 0.646629 0.244378
C44   C     C_3   0.202498 0.625794 0.681008 -0.686619
H42   H     H_    0.263215 0.699754 0.652553 0.240208
H43   H     H_    0.181869 0.668232 0.731571 0.222119
H44   H     H_    0.113240 0.611996 0.649745 0.231328
N7    N     N_2   0.468487 0.759854 0.917398 -0.407052
H45   H     H_    0.516948 0.757818 0.873023 0.250751
C45   C     C_3   0.349004 0.824057 0.905400 -0.652924
H46   H     H_    0.361007 0.924281 0.876739 0.218469
H47   H     H_    0.308146 0.843558 0.955466 0.248711
H48   H     H_    0.284137 0.757317 0.873889 0.205435
N8    N     N_2   0.451911 0.260919 0.080038 -0.403344
H49   H     H_    0.502633 0.259694 0.127120 0.252393
C46   C     C_3   0.327348 0.203905 0.085250 -0.648128
H50   H     H_    0.270560 0.273559 0.114061 0.211004
H51   H     H_    0.331754 0.102450 0.113657 0.217682
H52   H     H_    0.282006 0.188427 0.032746 0.243447
N9    N     N_2   0.472948 0.769233 0.062449 -0.397644
H53   H     H_    0.424990 0.773508 0.106899 0.248615
C47   C     C_3   0.595936 0.832264 0.069774 -0.648356
H54   H     H_    0.657070 0.769132 0.106237 0.207690
H55   H     H_    0.589385 0.936364 0.090714 0.225794
H56   H     H_    0.637834 0.843480 0.018608 0.239924
N10   N     N_2   0.455521 0.251303 0.935411 -0.400334
H57   H     H_    0.409574 0.249206 0.886961 0.250565
C48   C     C_3   0.572769 0.181194 0.938640 -0.644036
H58   H     H_    0.641237 0.240247 0.907785 0.206754
H59   H     H_    0.558279 0.077637 0.916893 0.231913
H60   H     H_    0.610862 0.167757 0.993227 0.243515

loop_
_geom_bond_atom_site_label_1
_geom_bond_atom_site_label_2
_ccdc_geom_bond_type
N4    H33   S    
C9    O1    A    
N5    H37   S    
Cu1   O1    S    
C43   H38   S    
N3    H29   S    
C33   H13   S    
C43   H40   S    
N10   H57   S    
C33   C34   S    
C3    N7    S    
N7    C45   S    
C44   H42   S    
C7    C26   S    
C41   H30   S    
C28   C29   A    
C13   H1    S    
N9    C47   S    
C14   H2    S    
C30   C39   S    
N10   C48   S    
Cu1   O5    S    
C24   H8    S    
C37   H22   S    
C23   C26   A    
C36   H15   S    
C2    C13   A    
C15   H3    S    
C11   O8    A    
C29   C37   S    
C27   N2    A    
C20   C24   A    
C38   H19   S    
C10   O2    A    
C48   H60   S    
C45   H46   S    
Cu2   O2    S    
C42   H35   S    
C2    C16   A    
C19   N5    S    
C46   H52   S    
C28   C35   S    
C35   H18   S    
N5    C43   S    
C39   H28   S    
C27   C30   A    
C8    C25   S    
C45   H47   S    
C6    N10   S    
C4    C7    A    
C19   C32   A    
N3    C41   S    
C47   H55   S    
C34   H10   S    
Cu2   O6    S    
C39   C40   S    
C37   C38   S    
Cu1   N1    S    
Cu2   N2    S    
C24   C25   A    
C4    C6    A    
C3    C8    A    
C5    C7    A    
C6    C8    A    
C17   C21   A    
C5    N9    S    
C35   C36   S    
C36   H16   S    
C19   C23   A    
C40   H24   S    
C11   O5    A    
N6    H41   S    
C21   H5    S    
C47   H54   S    
C22   H6    S    
C27   C33   S    
Cu1   Cu2   S    
N8    C46   S    
C42   H36   S    
C40   H25   S    
C1    C15   A    
C37   H23   S    
C38   H20   S    
C41   H31   S    
C4    N8    S    
C35   H17   S    
C44   H44   S    
C39   H27   S    
C13   C15   A    
C29   N2    A    
C48   H58   S    
C17   C31   A    
C45   H48   S    
C14   C16   A    
C30   N1    A    
Cu2   O4    S    
C12   O7    A    
C46   H50   S    
C47   H56   S    
C21   C25   A    
C34   H9    S    
N8    H49   S    
N6    C44   S    
C18   C22   A    
C1    C10   S    
C3    C5    A    
C11   C32   S    
C12   O6    A    
C33   H12   S    
C43   H39   S    
Cu1   O7    S    
N7    H45   S    
C28   N1    A    
Cu2   O8    S    
C18   N4    S    
C23   H7    S    
N4    C42   S    
C12   C31   S    
N9    H53   S    
C20   N6    S    
C38   H21   S    
Cu1   O3    S    
C17   N3    S    
C36   H14   S    
C40   H26   S    
C41   H32   S    
C18   C32   A    
C9    O4    A    
C44   H43   S    
C22   C26   A    
C10   O3    A    
C48   H59   S    
C1    C14   A    
C42   H34   S    
C2    C9    S    
C20   C31   A    
C16   H4    S    
C46   H51   S    
C34   H11   S    
