data_mof_unit_2334.cif
_audit_creation_date              2012-12-10T17:22:10-0500
_audit_creation_method            fapswitch 2.2
_symmetry_space_group_name_H-M    P1
_symmetry_Int_Tables_number       1
_space_group_crystal_system       triclinic
_cell_length_a                    10.161107
_cell_length_b                    10.714314
_cell_length_c                    15.741451
_cell_angle_alpha                 90.286449
_cell_angle_beta                  81.442256
_cell_angle_gamma                 95.765886
_cell_volume                      1686.02015308

loop_
_atom_site_label
_atom_site_type_symbol
_atom_type_description
_atom_site_fract_x
_atom_site_fract_y
_atom_site_fract_z
_atom_type_partial_charge
C1    C     C_R   0.556644 0.733214 0.498232 0.828044
C2    C     C_2   0.492937 0.932389 0.547500 -0.278754
C3    C     C_2   0.410583 0.133185 0.524836 -0.186793
C4    C     C_R   0.500416 0.499961 0.661506 0.882903
C5    C     C_2   0.508553 0.067485 0.543206 -0.150112
C6    C     C_2   0.922426 0.501217 0.515782 0.666195
C7    C     C_2   0.066899 0.473845 0.507834 -0.211687
C8    C     C_R   0.443458 0.266588 0.508606 0.862079
C9    C     C_R   0.499709 0.499903 0.338537 0.898396
C10   C     C_3   0.367412 0.529256 0.964535 -0.334001
C11   C     C_3   0.620712 0.605052 0.939194 0.426546
C12   C     C_3   0.363909 0.515991 0.063167 0.230357
C13   C     C_3   0.603805 0.613557 0.040486 -0.333076
C14   C     C_1   0.499635 0.499790 0.249874 -0.198810
C15   C     C_3   0.508671 0.500109 0.916730 -0.039143
C16   C     C_3   0.144480 0.444642 0.120640 -0.259419
C17   C     C_3   0.706829 0.282246 0.118045 -0.316943
C18   C     C_1   0.276997 0.075830 0.518680 0.200725
C19   C     C_3   0.802943 0.924885 0.531820 -0.253786
C20   C     C_3   0.877408 0.553972 0.657296 -0.292722
C21   C     C_1   0.328734 0.653105 0.942241 0.258609
C22   C     C_3   0.834382 0.337645 0.345659 -0.115925
C23   C     C_3   0.507655 0.499336 0.082222 -0.001509
C24   C     C_1   0.755780 0.570996 0.900897 0.290387
C25   C     C_3   0.684762 0.826022 0.922028 -0.335711
C26   C     C_1   0.732786 0.630702 0.075024 0.252796
C27   C     C_1   0.418945 0.271962 0.935546 0.100574
C28   C     C_3   0.674027 0.200219 0.900393 -0.197380
C29   C     C_3   0.554218 0.372384 0.044202 0.315230
C30   C     C_3   0.536078 0.364311 0.946511 0.349800
C31   C     C_1   0.502463 0.499286 0.174419 0.025165
C32   C     C_1   0.505113 0.499917 0.825015 0.077315
C33   C     C_1   0.502174 0.499945 0.750088 -0.174264
C34   C     C_2   0.590247 0.866463 0.509477 0.346523
H1    H     H_    0.333824 0.604099 0.096054 0.107886
H2    H     H_    0.140819 0.505409 0.178256 0.166270
H3    H     H_    0.075962 0.358448 0.138257 0.185257
H4    H     H_    0.666002 0.185029 0.105188 0.145126
H5    H     H_    0.659381 0.312634 0.181785 0.158143
H6    H     H_    0.815177 0.281091 0.120650 0.186327
H7    H     H_    0.823022 0.828055 0.546955 0.212403
H8    H     H_    0.766274 0.973937 0.591934 0.141789
H9    H     H_    0.899172 0.976496 0.503142 0.216214
H10   H     H_    0.979477 0.568727 0.674903 0.161363
H11   H     H_    0.836055 0.454276 0.669628 0.181333
H12   H     H_    0.288302 0.461433 0.944029 0.187503
H13   H     H_    0.813487 0.612658 0.700755 0.204577
H14   H     H_    0.842971 0.429489 0.311479 0.150114
H15   H     H_    0.730174 0.292811 0.357089 0.193675
H16   H     H_    0.893331 0.274710 0.302498 0.134666
H17   H     H_    0.635665 0.873629 0.979171 0.169171
H18   H     H_    0.700288 0.894188 0.867788 0.187869
H19   H     H_    0.785230 0.803496 0.933121 0.155587
H20   H     H_    0.630126 0.147329 0.848772 0.152678
H21   H     H_    0.630800 0.156426 0.963462 0.138072
H22   H     H_    0.783076 0.191486 0.890432 0.186557
H23   H     H_    0.607804 0.113350 0.547231 0.214354
H24   H     H_    0.395499 0.886607 0.574719 0.168118
H25   H     H_    0.098105 0.388934 0.476652 0.205637
H26   H     H_    0.128986 0.636092 0.557337 0.199809
H27   H     H_    0.553915 0.698911 0.060551 0.146220
H28   H     H_    0.488172 0.293741 0.079911 0.096834
H29   H     H_    0.107510 0.492326 0.067506 0.173936
N1    N     N_2   0.842720 0.448890 0.465540 0.045687
N2    N     N_2   0.157250 0.551040 0.534500 -0.213837
N3    N     N_1   0.170383 0.029988 0.513757 -0.223135
N4    N     N_1   0.298014 0.749836 0.924878 -0.174129
N5    N     N_1   0.860903 0.545346 0.871601 -0.206921
N6    N     N_1   0.833139 0.644014 0.102007 -0.213248
N7    N     N_1   0.328659 0.200499 0.927086 -0.183787
O1    O     O_R   0.431050 0.692470 0.506940 -0.637934
O2    O     O_3   0.691387 0.366119 0.052080 -0.560535
O3    O     O_3   0.712929 0.924429 0.471772 -0.598342
O4    O     O_3   0.875601 0.592492 0.571775 -0.645463
O5    O     O_3   0.888069 0.348317 0.422707 -0.602589
O6    O     O_3   0.599743 0.720858 0.900833 -0.607929
O7    O     O_3   0.654071 0.328821 0.894221 -0.586658
O8    O     O_R   0.651130 0.659650 0.484820 -0.563294
O9    O     O_R   0.389910 0.516410 0.633920 -0.604262
O10   O     O_R   0.609990 0.483590 0.611800 -0.592192
O11   O     O_R   0.348870 0.340350 0.515180 -0.602722
O12   O     O_R   0.568950 0.307530 0.493060 -0.613286
O13   O     O_R   0.390010 0.516410 0.388200 -0.589715
O14   O     O_R   0.610090 0.483590 0.366080 -0.641416
O15   O     O_3   0.274991 0.410153 0.095412 -0.605256
Zn1   Zn    Zn3+2 0.353060 0.521920 0.514770 0.956209
Zn2   Zn    Zn3+2 0.646940 0.478080 0.485230 1.005655

loop_
_geom_bond_atom_site_label_1
_geom_bond_atom_site_label_2
_ccdc_geom_bond_type
O8    Zn2   S    
C22   H14   S    
O14   Zn2   S    
C14   C31   T    
C28   H22   S    
C15   C32   S    
C12   C23   S    
C1    O1    A    
C12   O15   S    
C8    O12   A    
C23   C29   S    
C25   H19   S    
C4    O10   A    
O10   Zn2   S    
C11   O6    S    
O12   Zn2   S    
C11   C24   S    
C13   C23   S    
C3    C18   S    
C17   H5    S    
C6    N1    D    
C4    C33   S    
C30   O7    S    
C11   C15   S    
C10   H12   S    
C16   H29   S    
N1    Zn2   S    
C20   H11   S    
C19   H8    S    
C16   H3    S    
C22   H16   S    
C29   O2    S    
C2    C34   D    
N2    Zn1   S    
C21   N4    T    
C27   C30   S    
C1    O8    A    
C22   O5    S    
C7    H25   S    
C20   H10   S    
C28   H21   S    
C19   H9    S    
C1    C34   S    
C6    O4    S    
C10   C21   S    
C8    O11   A    
C19   O3    S    
C4    O9    A    
C3    C8    S    
C28   H20   S    
C34   O3    S    
C17   H6    S    
C23   C31   S    
C9    C14   S    
C25   H17   S    
C29   C30   S    
C7    N2    D    
O1    Zn1   S    
C20   O4    S    
C12   H1    S    
C28   O7    S    
C27   N7    T    
C10   C12   S    
C9    O13   A    
C22   H15   S    
H26   N2    S    
C16   O15   S    
C13   C26   S    
C2    C5    S    
C15   C30   S    
C29   H28   S    
O11   Zn1   S    
C3    C5    D    
C2    H24   S    
C6    C7    S    
C18   N3    T    
C5    H23   S    
C10   C15   S    
C25   O6    S    
C32   C33   T    
C25   H18   S    
C16   H2    S    
C11   C13   S    
N1    O5    S    
C17   H4    S    
C20   H13   S    
C24   N5    T    
C9    O14   A    
O13   Zn1   S    
C13   H27   S    
C17   O2    S    
C26   N6    T    
O9    Zn1   S    
C19   H7    S    
