data_mof_unit_671.cif
_audit_creation_date              2012-12-10T19:44:33-0500
_audit_creation_method            fapswitch 2.2
_symmetry_space_group_name_H-M    P1
_symmetry_Int_Tables_number       1
_space_group_crystal_system       triclinic
_cell_length_a                    8.579041
_cell_length_b                    14.895999
_cell_length_c                    14.280411
_cell_angle_alpha                 91.095645
_cell_angle_beta                  99.344369
_cell_angle_gamma                 90.781017
_cell_volume                      1800.13730363

loop_
_atom_site_label
_atom_site_type_symbol
_atom_type_description
_atom_site_fract_x
_atom_site_fract_y
_atom_site_fract_z
_atom_type_partial_charge
C1    C     C_R   0.501079 0.327910 0.499280 0.882636
C2    C     C_R   0.502106 0.672699 0.501028 0.892597
C3    C     C_R   0.367288 0.472702 0.091367 -0.284572
C4    C     C_R   0.620897 0.541434 0.907778 -0.273109
C5    C     C_R   0.370405 0.469272 0.189917 0.111388
C6    C     C_R   0.621028 0.540760 0.809461 0.110996
C7    C     C_R   0.630539 0.529128 0.218215 -0.003133
C8    C     C_R   0.381740 0.456740 0.782566 0.003536
C9    C     C_R   0.635063 0.527639 0.120088 -0.238103
C10   C     C_R   0.380383 0.454241 0.881026 -0.230956
C11   C     C_R   0.501182 0.499856 0.053503 0.123537
C12   C     C_R   0.500316 0.498359 0.946588 0.124692
C13   C     C_R   0.201064 0.499787 0.474880 0.978970
C14   C     C_R   0.798941 0.500026 0.525128 0.978940
C15   C     C_2   0.035362 0.499456 0.461662 -0.361372
C16   C     C_2   0.964654 0.500012 0.538386 -0.362945
C17   C     C_R   0.455213 0.089564 0.557313 -0.122597
C18   C     C_R   0.523922 0.909125 0.423847 -0.120138
C19   C     C_R   0.431400 0.180719 0.552771 -0.154563
C20   C     C_R   0.498537 0.817390 0.420552 -0.169862
C21   C     C_R   0.519226 0.232547 0.499559 -0.034050
C22   C     C_R   0.520881 0.769516 0.504699 -0.067322
C23   C     C_R   0.633957 0.194450 0.452636 -0.221903
C24   C     C_R   0.572025 0.813679 0.592025 -0.193103
C25   C     C_R   0.664195 0.102936 0.459562 -0.005230
C26   C     C_R   0.604641 0.905524 0.596200 -0.028170
C27   C     C_R   0.570957 0.050453 0.511597 0.055465
C28   C     C_R   0.575927 0.953367 0.510834 0.074041
H1    H     H_    0.972178 0.498781 0.389182 0.179555
H2    H     H_    0.027871 0.500610 0.610895 0.183068
H3    H     H_    0.382005 0.048946 0.595713 0.148720
H4    H     H_    0.498800 0.946292 0.358741 0.141927
H5    H     H_    0.343167 0.210666 0.589425 0.149767
H6    H     H_    0.458854 0.784274 0.352488 0.166208
H7    H     H_    0.703980 0.237152 0.414242 0.189859
H8    H     H_    0.589992 0.776288 0.656840 0.239429
H9    H     H_    0.259880 0.451484 0.045600 0.165328
H10   H     H_    0.715539 0.577642 0.952482 0.156602
H11   H     H_    0.733526 0.552292 0.267043 0.146150
H12   H     H_    0.288528 0.422757 0.734122 0.140696
H13   H     H_    0.744995 0.547557 0.098545 0.166393
H14   H     H_    0.285678 0.416545 0.903886 0.152686
N1    N     N_R   0.500000 0.499980 0.252470 -0.133384
N2    N     N_R   0.500000 0.500020 0.747530 -0.134631
O1    O     O_R   0.500010 0.369070 0.579480 -0.628302
O2    O     O_R   0.499990 0.630930 0.420520 -0.630933
O3    O     O_R   0.500010 0.369060 0.420520 -0.576242
O4    O     O_R   0.499990 0.630940 0.579480 -0.584608
O5    O     O_R   0.271750 0.500000 0.560890 -0.632961
O6    O     O_R   0.728250 0.500000 0.439110 -0.636540
O7    O     O_R   0.271750 0.499990 0.401930 -0.610213
O8    O     O_R   0.728250 0.500010 0.598070 -0.606798
Zn1   Zn    Zn3+2 0.500000 0.500010 0.606140 0.985375
Zn2   Zn    Zn3+2 0.500000 0.499990 0.393860 0.985495
C29   C     C_2   0.794875 0.065615 0.414392 0.898476
O9    O     O_2   0.854566 0.994186 0.439839 -0.608541
O10   O     O_R   0.852925 0.113763 0.343876 -0.799294
H15   H     H_    0.942642 0.082212 0.319271 0.356184
C30   C     C_2   0.668904 0.948741 0.689742 0.913870
O11   O     O_2   0.741049 0.020471 0.693885 -0.602756
O12   O     O_R   0.650240 0.905968 0.773682 -0.795985
H16   H     H_    0.699917 0.941396 0.832578 0.356953
C31   C     C_2   0.233367 0.426976 0.222372 0.935512
O13   O     O_2   0.251675 0.362490 0.274365 -0.594063
O14   O     O_R   0.081489 0.457465 0.188879 -0.829960
H17   H     H_    0.996537 0.422397 0.214972 0.339276
C32   C     C_2   0.758772 0.582606 0.777147 0.939166
O15   O     O_2   0.741552 0.643049 0.720264 -0.620505
O16   O     O_R   0.910629 0.555721 0.816162 -0.818894
H18   H     H_    0.996325 0.589550 0.789452 0.342245

loop_
_geom_bond_atom_site_label_1
_geom_bond_atom_site_label_2
_ccdc_geom_bond_type
C2    O4    A    
C2    C22   S    
C11   C12   S    
C31   O14   S    
C1    C21   S    
C14   C16   S    
C7    N1    A    
O4    Zn1   S    
C10   H14   S    
C26   C30   S    
N1    Zn2   S    
C9    H13   S    
C3    C11   A    
C20   C22   A    
C29   O9    D    
O7    Zn2   S    
C20   H6    S    
O2    Zn2   S    
C13   C15   S    
C5    N1    A    
C3    C5    A    
O1    Zn1   S    
C30   O11   D    
O6    Zn2   S    
C6    N2    A    
C25   C29   S    
C2    O2    A    
C9    C11   A    
C1    O1    A    
O10   H15   S    
C24   H8    S    
C10   C12   A    
O3    Zn2   S    
C13   O5    A    
C4    C6    A    
C6    C32   S    
C19   C21   A    
C24   C26   A    
C15   H1    S    
C23   H7    S    
O16   H18   S    
C29   O10   S    
C21   C23   A    
O12   H16   S    
C17   H3    S    
C22   C24   A    
C4    C12   A    
C30   O12   S    
O5    Zn1   S    
C18   H4    S    
C14   O6    A    
C16   H2    S    
C15   C16   D    
C17   C27   A    
C8    N2    A    
C23   C25   A    
C18   C28   A    
O8    Zn1   S    
C5    C31   S    
C18   C20   A    
C8    C10   A    
O14   H17   S    
C19   H5    S    
C27   C28   S    
C7    C9    A    
C7    H11   S    
C1    O3    A    
C8    H12   S    
C17   C19   A    
C13   O7    A    
C26   C28   A    
N2    Zn1   S    
C14   O8    A    
C32   O15   D    
C3    H9    S    
C4    H10   S    
C31   O13   D    
C32   O16   S    
C25   C27   A    
