data_mof_unit_3560.cif
_audit_creation_date              2012-10-26T20:15:01-0400
_audit_creation_method            fapswitch 2.2
_symmetry_space_group_name_H-M    P1
_symmetry_Int_Tables_number       1
_space_group_crystal_system       triclinic
_cell_length_a                    17.79166
_cell_length_b                    9.103122
_cell_length_c                    7.778191
_cell_angle_alpha                 89.733104
_cell_angle_beta                  89.813515
_cell_angle_gamma                 90.075634
_cell_volume                      1259.73164096

loop_
_atom_site_label
_atom_site_type_symbol
_atom_type_description
_atom_site_fract_x
_atom_site_fract_y
_atom_site_fract_z
_atom_type_partial_charge
C1    C     C_R   0.499912 0.219975 0.500247 0.543791
C2    C     C_R   0.845713 0.629418 0.451745 0.055965
C3    C     C_R   0.765252 0.375909 0.555144 -0.015298
C4    C     C_R   0.231972 0.574366 0.366704 -0.007167
C5    C     C_R   0.230890 0.425981 0.631238 0.008722
C6    C     C_R   0.766714 0.631100 0.449469 0.002171
C7    C     C_R   0.726674 0.502900 0.498490 -0.037198
C8    C     C_R   0.271556 0.502057 0.501004 -0.075479
C9    C     C_R   0.884140 0.502061 0.503808 0.013304
C10   C     C_R   0.113318 0.497379 0.496078 0.003811
C11   C     C_1   0.964944 0.500387 0.500402 0.092001
C12   C     C_R   0.499890 0.780028 0.499762 0.572743
C13   C     C_1   0.032537 0.498936 0.497710 0.088518
C14   C     C_2   0.721535 0.243457 0.607566 0.276864
C15   C     C_2   0.273454 0.661832 0.235510 0.302752
C16   C     C_2   0.270090 0.341461 0.767090 0.305052
C17   C     C_2   0.727421 0.770020 0.403190 0.265602
C18   C     C_1   0.499968 0.065343 0.500343 -0.013947
C19   C     C_1   0.499959 0.934658 0.499669 -0.003043
C20   C     C_R   0.355039 0.500486 0.500407 0.516133
C21   C     C_R   0.644302 0.503254 0.499627 0.556899
C22   C     C_R   0.844512 0.375862 0.556926 0.118952
C23   C     C_R   0.152780 0.569336 0.363260 0.115485
C24   C     C_R   0.151928 0.426685 0.630006 0.114460
Cu1   Cu    Cu3+1 0.500000 0.500000 0.669080 1.081654
Cu2   Cu    Cu3+1 0.500000 0.500000 0.330920 1.101373
H1    H     H_    0.670669 0.214488 0.538938 0.095359
H2    H     H_    0.317511 0.736787 0.275398 0.118008
H3    H     H_    0.305577 0.397073 0.859389 0.163164
H4    H     H_    0.750242 0.874797 0.443640 0.153729
I1    I     I_    0.906067 0.182767 0.626843 -0.136068
I2    I     I_    0.091499 0.679017 0.163445 -0.137471
I3    I     I_    0.090681 0.327099 0.838102 -0.135426
I4    I     I_    0.907781 0.817450 0.365343 -0.201123
N1    N     N_1   0.500000 0.500000 0.076820 -0.060550
N2    N     N_1   0.500000 0.500000 0.923180 -0.065908
O1    O     O_R   0.500000 0.288390 0.642760 -0.495798
O2    O     O_2   0.261501 0.645879 0.082279 -0.470275
O3    O     O_2   0.262864 0.208276 0.776270 -0.452844
O4    O     O_2   0.670575 0.770008 0.315954 -0.471282
O5    O     O_R   0.500000 0.711610 0.357240 -0.475458
O6    O     O_R   0.500000 0.711610 0.642760 -0.491507
O7    O     O_R   0.500000 0.288390 0.357240 -0.499352
O8    O     O_R   0.391250 0.500000 0.642840 -0.516529
O9    O     O_R   0.608750 0.500000 0.357160 -0.456689
O10   O     O_R   0.608750 0.500000 0.642840 -0.498498
O11   O     O_R   0.391250 0.500000 0.357160 -0.506307
O12   O     O_2   0.739494 0.169766 0.732237 -0.443298

loop_
_geom_bond_atom_site_label_1
_geom_bond_atom_site_label_2
_ccdc_geom_bond_type
Cu1   O6    S    
C5    C8    A    
C14   O12   D    
C10   C13   S    
C15   O2    D    
C6    C7    A    
C10   C23   A    
C11   C13   T    
C3    C7    A    
C24   I3    S    
C1    O1    A    
C4    C8    A    
Cu1   O1    S    
C23   I2    S    
C2    I4    S    
C4    C15   S    
C5    C24   A    
C15   H2    S    
C2    C6    A    
C17   H4    S    
C9    C11   S    
C16   H3    S    
C1    C18   S    
C8    C20   S    
C3    C14   S    
Cu2   O11   S    
Cu1   O8    S    
C20   O8    A    
Cu2   O7    S    
C18   C19   T    
C21   O9    A    
C14   H1    S    
C9    C22   A    
C20   O11   A    
C22   I1    S    
Cu1   N2    S    
Cu2   N1    S    
C12   C19   S    
C12   O5    A    
C21   O10   A    
C4    C23   A    
C6    C17   S    
C3    C22   A    
C12   O6    A    
C16   O3    D    
Cu2   O9    S    
C10   C24   A    
Cu1   Cu2   S    
C7    C21   S    
C2    C9    A    
Cu1   O10   S    
C1    O7    A    
N1    N2    T    
Cu2   O5    S    
C5    C16   S    
C17   O4    D    
