data_mof_unit_1260.cif
_audit_creation_date              2013-03-05T16:48:42-0500
_audit_creation_method            fapswitch 2.2
_symmetry_space_group_name_H-M    P1
_symmetry_Int_Tables_number       1
_space_group_crystal_system       triclinic
_cell_length_a                    27.792154
_cell_length_b                    8.916771
_cell_length_c                    8.097406
_cell_angle_alpha                 89.98793
_cell_angle_beta                  89.999988
_cell_angle_gamma                 89.999984
_cell_volume                      2006.66892986

loop_
_atom_site_label
_atom_site_type_symbol
_atom_site_description
_atom_site_fract_x
_atom_site_fract_y
_atom_site_fract_z
_atom_type_partial_charge
O1    O     O_R   0.500000 0.285350 0.636850 -0.613690
O2    O     O_R   0.500000 0.714650 0.363150 -0.613690
O3    O     O_R   0.500000 0.714650 0.636850 -0.613575
O4    O     O_R   0.500000 0.285350 0.363150 -0.613575
C1    C     C_R   0.500000 0.217992 0.500011 0.947227
C2    C     C_R   0.500000 0.782008 0.499989 0.947227
O5    O     O_R   0.428760 0.500000 0.636860 -0.623665
O6    O     O_R   0.571240 0.500000 0.363140 -0.623665
O7    O     O_R   0.571240 0.500000 0.636860 -0.623665
O8    O     O_R   0.428760 0.500000 0.363140 -0.623666
C3    C     C_R   0.405775 0.500000 0.500000 0.873249
C4    C     C_R   0.594225 0.500000 0.500000 0.873249
Zn1   Zn    Zn3+2 0.500000 0.500000 0.682780 0.999763
Zn2   Zn    Zn3+2 0.500000 0.500000 0.317220 0.999763
C5    C     C_R   0.177993 0.372025 0.457168 0.570448
C6    C     C_R   0.822006 0.627989 0.542838 0.570454
C7    C     C_R   0.177993 0.627990 0.542831 0.570448
C8    C     C_R   0.822006 0.372028 0.457160 0.570454
O9    O     O_2   0.203378 0.248166 0.417264 -0.432715
O10   O     O_2   0.796620 0.751844 0.582753 -0.432712
O11   O     O_2   0.203379 0.751848 0.582735 -0.432715
O12   O     O_2   0.796620 0.248173 0.417245 -0.432712
N1    N     N_R   0.201750 0.500007 0.500000 -0.382464
N2    N     N_R   0.798249 0.500009 0.499999 -0.382469
C9    C     C_R   0.277940 0.499511 0.350092 -0.082144
C10   C     C_R   0.722060 0.500421 0.649905 -0.082152
C11   C     C_R   0.277940 0.500500 0.649908 -0.082145
C12   C     C_R   0.722060 0.499593 0.350095 -0.082151
C13   C     C_R   0.327918 0.499540 0.349872 -0.197417
C14   C     C_R   0.672082 0.500386 0.650125 -0.197412
C15   C     C_R   0.327918 0.500466 0.650128 -0.197416
C16   C     C_R   0.672082 0.499622 0.349874 -0.197412
C17   C     C_R   0.253008 0.500007 0.500000 0.280961
C18   C     C_R   0.746992 0.500008 0.500000 0.280974
C19   C     C_R   0.101933 0.500008 0.499999 -0.215948
C20   C     C_R   0.898066 0.500009 0.499998 -0.215947
C21   C     C_R   0.127551 0.369181 0.455858 -0.144595
C22   C     C_R   0.872448 0.630834 0.544145 -0.144596
C23   C     C_R   0.127551 0.630834 0.544140 -0.144596
C24   C     C_R   0.872448 0.369184 0.455852 -0.144597
C25   C     C_R   0.102286 0.239397 0.412096 0.743324
C26   C     C_R   0.897713 0.760617 0.587911 0.743321
C27   C     C_R   0.102287 0.760619 0.587901 0.743325
C28   C     C_R   0.897712 0.239401 0.412085 0.743321
C29   C     C_R   0.353226 0.500002 0.500000 -0.043849
C30   C     C_R   0.646774 0.500002 0.500000 -0.043853
H1    H     H_    0.346654 0.500762 0.767427 0.164845
H2    H     H_    0.653346 0.499388 0.232578 0.164848
H3    H     H_    0.346654 0.499242 0.232573 0.164845
H4    H     H_    0.653346 0.500618 0.767422 0.164848
H5    H     H_    0.258507 0.500606 0.765857 0.145520
H6    H     H_    0.741492 0.499551 0.234148 0.145513
H7    H     H_    0.258508 0.499406 0.234144 0.145520
H8    H     H_    0.741493 0.500464 0.765851 0.145513
C31   C     C_R   0.974454 0.367343 0.456003 0.016718
C32   C     C_R   0.025545 0.632674 0.543991 0.016717
C33   C     C_R   0.974454 0.632674 0.543993 0.016718
C34   C     C_R   0.025545 0.367343 0.456006 0.016718
C35   C     C_R   0.949198 0.500009 0.499998 0.077929
C36   C     C_R   0.050801 0.500008 0.499998 0.077928
C37   C     C_R   0.947502 0.238561 0.412868 -0.312187
C38   C     C_R   0.052497 0.761458 0.587119 -0.312189
C39   C     C_R   0.947502 0.761456 0.587128 -0.312188
C40   C     C_R   0.052497 0.238558 0.412878 -0.312190
H9    H     H_    0.963476 0.133470 0.378101 0.173289
H10   H     H_    0.036523 0.866552 0.621877 0.173287
H11   H     H_    0.963476 0.866548 0.621894 0.173289
H12   H     H_    0.036523 0.133464 0.378120 0.173287
C41   C     C_1   0.500000 0.065219 0.500016 -0.179578
C42   C     C_1   0.500000 0.934780 0.499984 -0.179578
N3    N     N_1   0.500000 0.500000 0.073640 -0.034277
N4    N     N_1   0.500000 0.500000 0.926360 -0.034277
F1    F     F_    0.125359 0.111416 0.367223 -0.569289
F2    F     F_    0.874640 0.888597 0.632789 -0.569295
F3    F     F_    0.125359 0.888599 0.632776 -0.569289
F4    F     F_    0.874640 0.111421 0.367206 -0.569295

loop_
_geom_bond_atom_site_label_1
_geom_bond_atom_site_label_2
_geom_bond_distance
_ccdc_geom_bond_type
C31   C35   1.420965 A    
Zn2   N3    1.972366 S    
C20   C35   1.421060 A    
C13   H3    1.083197 S    
C11   C17   1.397718 A    
O5    C3    1.279143 A    
C7    N1    1.363344 A    
O1    C1    1.260467 A    
C40   H12   1.074511 S    
C19   C21   1.412686 A    
C9    H7    1.083137 S    
C22   C26   1.399280 A    
C33   C35   1.420964 A    
C34   C36   1.420964 A    
C32   C33   1.419921 A    
C9    C13   1.388989 A    
C7    C23   1.402178 A    
C28   F4    1.358557 S    
C8    C24   1.402178 A    
C5    C21   1.402178 A    
C20   C24   1.412687 A    
O7    Zn1   2.014523 S    
C5    O9    1.349832 S    
C10   C18   1.397695 A    
N1    C17   1.424565 S    
C1    C41   1.362236 S    
C8    N2    1.363340 A    
O3    Zn1   1.949706 S    
C6    O10   1.349833 S    
O3    C2    1.260401 A    
C5    N1    1.363343 A    
C14   H4    1.083175 S    
C12   C18   1.397700 A    
C6    N2    1.363340 A    
C15   H1    1.083193 S    
C21   C25   1.399282 A    
C16   H2    1.083179 S    
O2    C2    1.260467 A    
C10   H8    1.083123 S    
C11   H5    1.083139 S    
C33   C39   1.414889 A    
C27   F3    1.358557 S    
C39   H11   1.074509 S    
C26   F2    1.358556 S    
C38   H10   1.074509 S    
C11   C15   1.388992 A    
C12   C16   1.388989 A    
C4    C30   1.460450 S    
O8    Zn2   2.014526 S    
C23   C27   1.399281 A    
C34   C40   1.414888 A    
N2    C18   1.424556 S    
C32   C36   1.420964 A    
C13   C29   1.404468 A    
C19   C36   1.421060 A    
C19   C23   1.412687 A    
O5    Zn1   2.014526 S    
O6    C4    1.279143 A    
C10   C14   1.388989 A    
C32   C38   1.414887 A    
C3    C29   1.460450 S    
O1    Zn1   1.949861 S    
C2    C42   1.362236 S    
O6    Zn2   2.014524 S    
C8    O12   1.349832 S    
C16   C30   1.404447 A    
C14   C30   1.404452 A    
O4    C1    1.260401 A    
Zn1   N4    1.972366 S    
C28   C37   1.383787 A    
C20   C22   1.412687 A    
N3    N4    1.192585 T    
C12   H6    1.083121 S    
C31   C37   1.414887 A    
O4    Zn2   1.949707 S    
C41   C42   1.163094 T    
O2    Zn2   1.949860 S    
O7    C4    1.279143 A    
C7    O11   1.349833 S    
O8    C3    1.279143 A    
C25   F1    1.358557 S    
C37   H9    1.074510 S    
C24   C28   1.399280 A    
C15   C29   1.404472 A    
C31   C34   1.419921 A    
C9    C17   1.397723 A    
C25   C40   1.383784 A    
C26   C39   1.383787 A    
C27   C38   1.383787 A    
C6    C22   1.402178 A    
