data_mof_unit_2863.cif
_audit_creation_date              2012-10-26T21:15:26-0400
_audit_creation_method            fapswitch 2.2
_symmetry_space_group_name_H-M    P1
_symmetry_Int_Tables_number       1
_space_group_crystal_system       triclinic
_cell_length_a                    10.63771
_cell_length_b                    10.957329
_cell_length_c                    9.689961
_cell_angle_alpha                 90.357867
_cell_angle_beta                  90.20068
_cell_angle_gamma                 89.93294
_cell_volume                      1129.44075731

loop_
_atom_site_label
_atom_site_type_symbol
_atom_type_description
_atom_site_fract_x
_atom_site_fract_y
_atom_site_fract_z
_atom_type_partial_charge
C1    C     C_R   0.500591 0.265217 0.498947 0.552545
C2    C     C_2   0.427964 0.429287 0.077096 -0.039666
C3    C     C_R   0.259406 0.500752 0.499673 0.544274
C4    C     C_R   0.501307 0.734760 0.500089 0.562829
C5    C     C_R   0.740653 0.499798 0.500304 0.550073
C6    C     C_3   0.043367 0.399115 0.561521 -0.140937
C7    C     C_3   0.958793 0.401460 0.431040 -0.146769
C8    C     C_3   0.877463 0.499692 0.501064 0.050625
C9    C     C_3   0.960211 0.497588 0.631579 -0.137386
C10   C     C_3   0.042266 0.600298 0.569467 -0.118927
C11   C     C_3   0.000499 0.789589 0.319037 -0.314414
C12   C     C_3   0.958830 0.599632 0.440082 0.152912
C13   C     C_3   0.350095 0.899979 0.217460 0.005374
C14   C     C_3   0.317926 0.821657 0.092093 -0.361821
C15   C     C_3   0.708992 0.141662 0.271157 -0.271034
C16   C     C_3   0.040717 0.503596 0.367714 -0.082389
C17   C     C_3   0.122791 0.501488 0.498893 0.020546
C18   C     C_2   0.497671 0.932583 0.384028 0.258816
C19   C     C_2   0.511267 0.866819 0.500202 -0.128605
C20   C     C_2   0.522772 0.064043 0.384812 0.103844
C21   C     C_2   0.491707 0.133112 0.495952 -0.148995
C22   C     C_2   0.425294 0.431987 0.921381 -0.020241
Cu1   Cu    Cu3+1 0.500030 0.500020 0.638630 0.923710
Cu2   Cu    Cu3+1 0.499970 0.499980 0.361370 0.947741
H1    H     H_    0.923315 0.319913 0.374985 0.093315
H2    H     H_    0.075519 0.507302 0.259934 0.113566
H3    H     H_    0.535757 0.909899 0.597763 0.049650
H4    H     H_    0.841649 0.751493 0.435195 0.249248
H5    H     H_    0.952329 0.865481 0.264810 0.140246
H6    H     H_    0.061070 0.740846 0.243527 0.152384
H7    H     H_    0.059661 0.828409 0.403188 0.120124
H8    H     H_    0.338705 0.997670 0.189067 0.125235
H9    H     H_    0.282542 0.876980 0.301134 0.103989
H10   H     H_    0.325690 0.723438 0.118642 0.173390
H11   H     H_    0.220203 0.841001 0.057938 0.078153
H12   H     H_    0.451427 0.091828 0.587145 0.058493
H13   H     H_    0.383294 0.842097 0.006162 0.161945
H14   H     H_    0.522148 0.173887 0.208014 0.265053
H15   H     H_    0.725121 0.217009 0.346113 0.146901
H16   H     H_    0.743387 0.170434 0.168348 0.134752
H17   H     H_    0.763166 0.059929 0.303778 0.143885
H18   H     H_    0.358033 0.373148 0.869325 0.135736
H19   H     H_    0.565028 0.552131 0.894606 0.208120
H20   H     H_    0.365737 0.365460 0.127826 0.126374
H21   H     H_    0.554913 0.562110 0.106694 0.220786
H22   H     H_    0.081742 0.316173 0.611726 0.107814
H23   H     H_    0.925066 0.494314 0.739232 0.124924
H24   H     H_    0.078815 0.682239 0.624242 0.103952
N1    N     N_2   0.498620 0.498660 0.846910 -0.346176
N2    N     N_2   0.498590 0.498630 0.153040 -0.349533
N3    N     N_2   0.907802 0.707579 0.375208 -0.496453
N4    N     N_2   0.576620 0.112912 0.262363 -0.465783
O1    O     O_R   0.500020 0.321960 0.617040 -0.494905
O2    O     O_R   0.499980 0.321920 0.382900 -0.499691
O3    O     O_R   0.316870 0.499990 0.617050 -0.498598
O4    O     O_R   0.316830 0.499950 0.382910 -0.510722
O5    O     O_R   0.500020 0.678080 0.617100 -0.508969
O6    O     O_R   0.499980 0.678040 0.382960 -0.431484
O7    O     O_R   0.683170 0.500050 0.617090 -0.507830
O8    O     O_R   0.683130 0.500010 0.382950 -0.486602
O9    O     O_3   0.475207 0.875879 0.257963 -0.503398

loop_
_geom_bond_atom_site_label_1
_geom_bond_atom_site_label_2
_ccdc_geom_bond_type
C4    O5    A    
C14   H10   S    
C5    C8    S    
C1    O2    A    
C18   O9    S    
C1    C21   S    
C6    C7    S    
C13   C14   S    
Cu2   O4    S    
C6    H22   S    
C9    C10   S    
C13   H8    S    
C7    H1    S    
Cu2   O8    S    
C8    C12   S    
C6    C9    S    
C8    C9    S    
C11   H7    S    
Cu1   O3    S    
C20   N4    S    
C21   H12   S    
C2    C22   S    
C14   H13   S    
Cu1   O7    S    
C13   O9    S    
C15   H15   S    
C22   H18   S    
C10   C12   S    
H21   N2    S    
C22   N1    D    
Cu1   O1    S    
C7    C16   S    
C3    C17   S    
C10   H24   S    
C18   C20   S    
Cu2   N2    S    
H4    N3    S    
C15   H16   S    
Cu1   N1    S    
C9    H23   S    
H14   N4    S    
C11   H5    S    
C5    O7    A    
Cu1   Cu2   S    
Cu2   O2    S    
C10   C17   S    
C7    C8    S    
C12   N3    S    
C11   N3    S    
C20   C21   D    
C15   H17   S    
Cu2   O6    S    
C13   H9    S    
C3    O4    A    
C4    O6    A    
C14   H11   S    
Cu1   O5    S    
C6    C17   S    
C1    O1    A    
C18   C19   D    
C2    N2    D    
C5    O8    A    
C19   H3    S    
C15   N4    S    
C4    C19   S    
C3    O3    A    
H19   N1    S    
C12   C16   S    
C11   H6    S    
C2    H20   S    
C16   C17   S    
C16   H2    S    
