data_mof_unit_3224.cif
_audit_creation_date              2012-12-10T17:49:36-0500
_audit_creation_method            fapswitch 2.2
_symmetry_space_group_name_H-M    P1
_symmetry_Int_Tables_number       1
_space_group_crystal_system       triclinic
_cell_length_a                    14.685287
_cell_length_b                    14.718111
_cell_length_c                    15.876977
_cell_angle_alpha                 77.043924
_cell_angle_beta                  102.622505
_cell_angle_gamma                 114.767983
_cell_volume                      3006.39505424

loop_
_atom_site_label
_atom_site_type_symbol
_atom_type_description
_atom_site_fract_x
_atom_site_fract_y
_atom_site_fract_z
_atom_type_partial_charge
C1    C     C_R   0.880332 0.312368 0.513822 0.793142
C2    C     C_3   0.932863 0.396936 0.057045 -0.466295
C3    C     C_3   0.002223 0.502742 0.082817 0.235203
C4    C     C_3   0.111065 0.529961 0.063759 0.255536
C5    C     C_3   0.108611 0.530896 0.965230 -0.391857
C6    C     C_1   0.002294 0.501325 0.175333 -0.097245
C7    C     C_1   0.998958 0.501629 0.824366 -0.082210
C8    C     C_1   0.999118 0.500859 0.749012 -0.180707
C9    C     C_R   0.812731 0.205257 0.515636 -0.052679
C10   C     C_R   0.187177 0.795172 0.473743 -0.051131
C11   C     C_R   0.783225 0.030924 0.515461 -0.197341
C12   C     C_R   0.999644 0.500117 0.659628 0.830587
C13   C     C_R   0.850170 0.130591 0.521263 -0.196020
C14   C     C_R   0.708250 0.179034 0.505841 -0.247053
C15   C     C_R   0.639012 0.080208 0.495594 0.090064
C16   C     C_R   0.678231 0.005285 0.502300 0.162613
C17   C     C_R   0.532321 0.053805 0.479696 0.064195
C18   C     C_R   0.466225 0.950374 0.478936 0.066027
C19   C     C_R   0.508539 0.878368 0.484005 -0.217050
C20   C     C_R   0.612495 0.905717 0.495107 -0.226162
C21   C     C_R   0.489534 0.127489 0.462560 -0.219240
C22   C     C_R   0.385524 0.100222 0.449889 -0.218553
C23   C     C_R   0.119680 0.687662 0.484985 0.797222
C24   C     C_R   0.320243 0.998818 0.455580 0.163700
C25   C     C_R   0.359829 0.922717 0.471543 0.089753
C26   C     C_R   0.215408 0.972649 0.446076 -0.189759
C27   C     C_R   0.149148 0.871381 0.454475 -0.193345
C28   C     C_R   0.291587 0.821230 0.482430 -0.250218
C29   C     C_R   0.710578 0.659941 0.348493 -0.307617
C30   C     C_R   0.795845 0.636531 0.376581 0.081507
C31   C     C_R   0.713299 0.507590 0.486444 0.022792
C32   C     C_R   0.623398 0.527323 0.460620 -0.024010
C33   C     C_R   0.623772 0.604796 0.389491 0.112488
C34   C     C_R   0.000478 0.500043 0.340377 0.832307
C35   C     C_R   0.534078 0.473453 0.502189 0.042409
C36   C     C_R   0.446964 0.499395 0.472491 0.077138
C37   C     C_R   0.446169 0.566777 0.392149 0.148594
C38   C     C_R   0.536009 0.622943 0.356092 -0.208800
C39   C     C_R   0.528165 0.392628 0.571072 -0.261636
C40   C     C_R   0.442638 0.341330 0.612376 -0.140981
C41   C     C_R   0.361356 0.372010 0.590986 0.113415
C42   C     C_R   0.364176 0.454192 0.523288 -0.086814
C43   C     C_R   0.277868 0.322257 0.637646 0.292760
C44   C     C_R   0.198862 0.356756 0.617298 -0.034059
C45   C     C_3   0.933240 0.396003 0.959839 -0.389073
C46   C     C_R   0.286019 0.490221 0.512736 -0.016096
C47   C     C_3   0.959463 0.582716 0.927094 0.028255
C48   C     C_3   0.960358 0.580925 0.025771 -0.335018
C49   C     C_1   0.001753 0.500512 0.250921 -0.177359
C50   C     C_3   0.998803 0.502676 0.916410 0.245344
Cu1   Cu    Cu3+1 0.081750 0.475690 0.522550 0.936919
Cu2   Cu    Cu3+1 0.918250 0.524310 0.477450 0.938685
H1    H     H_    0.853988 0.376580 0.068326 0.191143
H2    H     H_    0.964258 0.340267 0.955299 0.167354
H3    H     H_    0.959212 0.338413 0.098559 0.169383
H4    H     H_    0.641617 0.848184 0.498439 0.148199
H5    H     H_    0.318180 0.760704 0.500403 0.150258
H6    H     H_    0.068534 0.852823 0.447234 0.152923
H7    H     H_    0.356059 0.159124 0.436802 0.150683
H8    H     H_    0.813515 0.974039 0.520018 0.135163
H9    H     H_    0.930861 0.149368 0.528922 0.155598
H10   H     H_    0.682913 0.237407 0.507185 0.145645
H11   H     H_    0.854384 0.369857 0.925188 0.184506
H12   H     H_    0.463366 0.800282 0.476858 0.143417
H13   H     H_    0.534076 0.207673 0.455910 0.147432
H14   H     H_    0.184748 0.030614 0.432862 0.134884
H15   H     H_    0.535512 0.677238 0.297256 0.154699
H16   H     H_    0.288957 0.559391 0.470800 0.157774
H17   H     H_    0.132423 0.317954 0.650068 0.126682
H18   H     H_    0.442144 0.278795 0.663807 0.196784
H19   H     H_    0.711751 0.719402 0.293740 0.137740
H20   H     H_    0.862124 0.677698 0.343857 0.124367
H21   H     H_    0.720212 0.450220 0.539854 0.120826
H22   H     H_    0.012891 0.658995 0.901113 0.160724
H23   H     H_    0.588016 0.365253 0.593936 0.134275
H24   H     H_    0.882945 0.561923 0.040139 0.168912
H25   H     H_    0.007892 0.657727 0.043405 0.181298
H26   H     H_    0.139684 0.476196 0.958122 0.138242
H27   H     H_    0.158349 0.606837 0.935108 0.199195
H28   H     H_    0.139234 0.470945 0.101969 0.086969
N1    N     N_R   0.795410 0.560790 0.443550 -0.178929
N2    N     N_R   0.204590 0.439170 0.556520 -0.192550
O1    O     O_R   0.977910 0.338120 0.529720 -0.588806
O2    O     O_R   0.839850 0.379180 0.491640 -0.589566
O3    O     O_R   0.069060 0.479460 0.639610 -0.571148
O4    O     O_R   0.931000 0.520530 0.601530 -0.579599
O5    O     O_R   0.160150 0.620820 0.508360 -0.589197
O6    O     O_R   0.022090 0.661880 0.470280 -0.590603
O7    O     O_R   0.069000 0.479470 0.398470 -0.576681
O8    O     O_R   0.930940 0.520540 0.360390 -0.576010
O9    O     O_3   0.177478 0.625308 0.086723 -0.732891
H29   H     H_    0.201782 0.614693 0.150173 0.324565
C51   C     C_3   0.350768 0.569267 0.333516 -0.904393
H30   H     H_    0.283737 0.498705 0.347148 0.241785
H31   H     H_    0.338269 0.636956 0.339002 0.228371
H32   H     H_    0.357735 0.573967 0.264192 0.237165
O10   O     O_3   0.274466 0.240280 0.701591 -0.748011
H33   H     H_    0.210953 0.214908 0.727391 0.317373
C52   C     C_3   0.854144 0.569911 0.875102 -0.883827
H34   H     H_    0.794894 0.497175 0.899211 0.244985
H35   H     H_    0.833982 0.632366 0.882179 0.234220
H36   H     H_    0.853915 0.573405 0.804502 0.246347

loop_
_geom_bond_atom_site_label_1
_geom_bond_atom_site_label_2
_ccdc_geom_bond_type
C10   C27   A    
C51   H30   S    
C41   C42   A    
C48   H24   S    
Cu2   O8    S    
C19   C20   A    
C20   H4    S    
C3    C6    S    
Cu1   O3    S    
O10   H33   S    
C7    C8    T    
C28   H5    S    
C25   C28   A    
C26   C27   A    
C37   C38   A    
C40   H18   S    
C12   O3    A    
C36   C37   A    
C24   C26   A    
C4    H28   S    
C44   N2    A    
C2    H3    S    
C31   H21   S    
C15   C16   A    
C14   H10   S    
C29   C33   A    
C3    C48   S    
C47   C52   S    
C18   C19   A    
C42   C46   A    
Cu2   O2    S    
C9    C13   A    
C46   N2    A    
C36   C42   A    
C52   H34   S    
C39   H23   S    
C5    H27   S    
O9    H29   S    
C16   C20   A    
C4    O9    S    
C51   H31   S    
C23   O5    A    
C21   C22   A    
C41   C43   A    
C18   C25   A    
C47   C50   S    
C2    C45   S    
Cu1   Cu2   S    
C26   H14   S    
C32   C35   A    
Cu2   O6    S    
C1    C9    S    
C24   C25   A    
C7    C50   S    
Cu1   O5    S    
C22   H7    S    
C45   H11   S    
C17   C21   A    
C1    O2    A    
C35   C36   A    
C48   H25   S    
C35   C39   A    
C9    C14   A    
C34   O8    A    
C46   H16   S    
C29   C30   A    
C11   C16   A    
C47   C48   S    
C19   H12   S    
C8    C12   S    
C17   C18   A    
C37   C51   S    
C44   H17   S    
Cu1   N2    S    
C40   C41   A    
C52   H35   S    
C45   H2    S    
C51   H32   S    
C23   O6    A    
C43   C44   A    
C22   C24   A    
C5    C50   S    
C11   H8    S    
Cu1   O1    S    
C39   C40   A    
C10   C28   A    
C15   C17   A    
C34   C49   S    
C21   H13   S    
C31   C32   A    
C43   O10   S    
C47   H22   S    
C4    C5    S    
C2    H1    S    
C30   H20   S    
C10   C23   S    
C1    O1    A    
C33   C38   A    
C31   N1    A    
C12   O4    A    
C32   C33   A    
C30   N1    A    
Cu2   O4    S    
C2    C3    S    
C34   O7    A    
Cu1   O7    S    
C11   C13   A    
C45   C50   S    
C27   H6    S    
C6    C49   T    
Cu2   N1    S    
C52   H36   S    
C13   H9    S    
C38   H15   S    
C14   C15   A    
C5    H26   S    
C3    C4    S    
C29   H19   S    
