data_mof_unit_4701.cif
_audit_creation_date              2012-12-10T19:45:42-0500
_audit_creation_method            fapswitch 2.2
_symmetry_space_group_name_H-M    P1
_symmetry_Int_Tables_number       1
_space_group_crystal_system       triclinic
_cell_length_a                    10.803987
_cell_length_b                    14.663592
_cell_length_c                    14.637518
_cell_angle_alpha                 65.458985
_cell_angle_beta                  102.862578
_cell_angle_gamma                 102.560387
_cell_volume                      2036.00135339

loop_
_atom_site_label
_atom_site_type_symbol
_atom_type_description
_atom_site_fract_x
_atom_site_fract_y
_atom_site_fract_z
_atom_type_partial_charge
C1    C     C_R   0.477160 0.119549 0.312178 0.795252
C2    C     C_R   0.522448 0.880397 0.687856 0.791926
C3    C     C_R   0.870861 0.995893 0.501828 -0.188273
C4    C     C_R   0.129095 0.004520 0.497925 -0.188508
C5    C     C_R   0.907516 0.988863 0.418374 -0.036936
C6    C     C_R   0.092363 0.012045 0.581144 -0.037162
C7    C     C_R   0.457148 0.186954 0.204655 -0.055896
C8    C     C_R   0.532921 0.812772 0.795566 -0.053585
C9    C     C_R   0.386679 0.215872 0.027351 -0.197225
C10   C     C_R   0.570245 0.783778 0.973870 -0.201528
C11   C     C_R   0.406179 0.149226 0.128474 -0.200216
C12   C     C_R   0.567604 0.850354 0.872691 -0.192797
C13   C     C_R   0.486213 0.291460 0.178992 -0.253753
C14   C     C_R   0.504583 0.708295 0.820639 -0.247172
C15   C     C_R   0.460821 0.360368 0.078499 0.091027
C16   C     C_R   0.503495 0.639558 0.921652 0.091178
C17   C     C_R   0.414047 0.320891 0.001820 0.161694
C18   C     C_R   0.538374 0.679005 0.998869 0.164653
C19   C     C_R   0.483140 0.467042 0.052198 0.067978
C20   C     C_R   0.470584 0.533050 0.947905 0.063897
C21   C     C_R   0.423588 0.490364 0.873646 -0.212111
C22   C     C_R   0.514612 0.509794 0.126726 -0.208399
C23   C     C_R   0.262809 0.001124 0.499754 0.785169
C24   C     C_R   0.737161 0.998881 0.500305 0.784854
C25   C     C_R   0.394974 0.386436 0.900512 -0.206503
C26   C     C_R   0.541109 0.613696 0.100237 -0.211077
C27   C     C_R   0.704235 0.278237 0.677961 -0.115105
C28   C     C_R   0.295432 0.721962 0.321950 -0.116223
C29   C     C_R   0.673286 0.199146 0.643577 0.010210
C30   C     C_R   0.327084 0.801193 0.356142 0.009557
C31   C     C_R   0.523307 0.287228 0.507174 -0.001928
C32   C     C_R   0.475707 0.712307 0.493260 -0.001918
C33   C     C_R   0.549263 0.371246 0.536460 -0.047577
C34   C     C_R   0.448813 0.628044 0.464294 -0.046768
C35   C     C_R   0.637702 0.363796 0.626371 0.123457
C36   C     C_R   0.360676 0.635744 0.374182 0.124165
C37   C     C_R   0.487752 0.460433 0.481277 0.094324
C38   C     C_R   0.509497 0.538498 0.519852 0.092268
C39   C     C_R   0.589173 0.523562 0.613826 -0.256152
C40   C     C_R   0.407204 0.475010 0.387718 -0.258041
C41   C     C_R   0.652247 0.439119 0.665021 -0.145043
C42   C     C_R   0.344987 0.559861 0.336109 -0.149881
C43   C     C_R   0.300138 0.941512 0.839114 -0.110324
C44   C     C_R   0.688028 0.063752 0.165654 -0.113551
C45   C     C_R   0.213051 0.933157 0.755649 -0.135727
C46   C     C_R   0.779762 0.070382 0.247595 -0.142154
C47   C     C_R   0.189601 0.020027 0.668087 0.164942
C48   C     C_R   0.809673 0.982106 0.331278 0.168666
C49   C     C_R   0.254669 0.115181 0.664852 -0.004497
C50   C     C_R   0.746616 0.887236 0.332175 -0.003597
C51   C     C_R   0.343410 0.122945 0.747808 -0.126815
C52   C     C_R   0.653776 0.881049 0.250638 -0.124076
C53   C     C_R   0.365814 0.036193 0.835024 -0.135990
C54   C     C_R   0.624658 0.969247 0.167353 -0.128815
C55   C     C_R   0.961836 0.006024 0.584024 -0.035369
C56   C     C_R   0.038079 0.994800 0.415450 -0.035644
Cu1   Cu    Cu3+1 0.466270 0.918260 0.475690 0.945579
Cu2   Cu    Cu3+1 0.533730 0.081740 0.524310 0.945556
H1    H     H_    0.433865 0.042320 0.899493 0.110710
H2    H     H_    0.553016 0.964389 0.104155 0.107766
H3    H     H_    0.349593 0.185357 0.969075 0.144215
H4    H     H_    0.596639 0.814226 0.032645 0.137673
H5    H     H_    0.403975 0.534885 0.793610 0.148738
H6    H     H_    0.516376 0.465189 0.206713 0.140796
H7    H     H_    0.709183 0.432479 0.737592 0.194436
H8    H     H_    0.287812 0.566290 0.263671 0.195798
H9    H     H_    0.548051 0.715732 0.555909 0.127276
H10   H     H_    0.450966 0.283540 0.444629 0.128105
H11   H     H_    0.603333 0.575342 0.651373 0.134575
H12   H     H_    0.391469 0.422565 0.350816 0.132227
H13   H     H_    0.162820 0.859468 0.759544 0.125139
H14   H     H_    0.827623 0.143964 0.245886 0.125872
H15   H     H_    0.236807 0.182964 0.598045 0.118692
H16   H     H_    0.768673 0.818497 0.396337 0.119373
H17   H     H_    0.394174 0.196241 0.744715 0.119247
H18   H     H_    0.604520 0.807925 0.251978 0.116065
H19   H     H_    0.358532 0.357158 0.841224 0.153732
H20   H     H_    0.564881 0.643064 0.159828 0.147515
H21   H     H_    0.485384 0.682352 0.759547 0.148921
H22   H     H_    0.531396 0.317345 0.238885 0.155495
H23   H     H_    0.591361 0.930967 0.854860 0.156281
H24   H     H_    0.382556 0.068506 0.146862 0.154607
N1    N     N_R   0.584450 0.204570 0.560790 -0.177659
N2    N     N_R   0.415550 0.795430 0.439210 -0.177147
O1    O     O_R   0.455540 0.022090 0.338120 -0.588771
O2    O     O_R   0.544460 0.977910 0.661880 -0.589241
O3    O     O_R   0.512510 0.160150 0.379180 -0.589548
O4    O     O_R   0.487490 0.839850 0.620820 -0.589443
O5    O     O_R   0.291160 0.930970 0.479480 -0.572076
O6    O     O_R   0.708840 0.069030 0.520520 -0.571815
O7    O     O_R   0.348130 0.069020 0.520540 -0.584750
O8    O     O_R   0.651870 0.930980 0.479460 -0.583607
H25   H     H_    0.281004 0.868647 0.316091 0.138103
H26   H     H_    0.720116 0.132052 0.683291 0.140012
C57   C     C_2   0.807102 0.266910 0.766557 0.347456
H27   H     H_    0.822382 0.191694 0.822068 0.084050
O9    O     O_2   0.880797 0.339712 0.775398 -0.529416
C58   C     C_2   0.193295 0.733935 0.232803 0.346435
H28   H     H_    0.179493 0.809308 0.176928 0.081522
O10   O     O_2   0.118583 0.661610 0.223853 -0.527204
H29   H     H_    0.316917 0.874498 0.906950 0.139658
H30   H     H_    0.665620 0.131955 0.101004 0.140967
C59   C     C_2   0.918060 0.004847 0.674619 0.376097
H31   H     H_    0.827900 0.960145 0.697763 0.053069
O11   O     O_2   0.979470 0.055604 0.722243 -0.545714
C60   C     C_2   0.081924 0.996964 0.324438 0.375942
H32   H     H_    0.173320 0.040204 0.302727 0.055459
O12   O     O_2   0.018979 0.948907 0.274551 -0.545653

loop_
_geom_bond_atom_site_label_1
_geom_bond_atom_site_label_2
_ccdc_geom_bond_type
C27   C57   S    
C1    O3    A    
Cu1   O8    S    
C55   C59   S    
C45   H13   S    
C5    C56   A    
C36   C42   A    
C57   H27   S    
C18   C26   A    
C6    C55   A    
Cu2   O3    S    
C53   H1    S    
C39   C41   A    
C54   H2    S    
C15   C19   A    
C26   H20   S    
Cu1   O5    S    
C9    H3    S    
C51   H17   S    
C29   N1    A    
C37   C40   A    
C50   H16   S    
C38   C39   A    
C27   C29   A    
C60   H32   S    
C24   O8    A    
C31   N1    A    
C25   H19   S    
C3    C55   A    
C43   C53   A    
C19   C20   A    
C52   C54   A    
C49   C51   A    
C50   C52   A    
C23   O5    A    
C2    O4    A    
C23   O7    A    
Cu2   O7    S    
C46   H14   S    
C8    C12   A    
C40   C42   A    
C13   H22   S    
C1    C7    S    
C4    C56   A    
C3    C24   S    
C10   H4    S    
Cu2   O2    S    
C44   C46   A    
C45   C47   A    
C11   H24   S    
C1    O1    A    
C31   H10   S    
C32   N2    A    
C5    C48   S    
C46   C48   A    
C6    C47   S    
C19   C22   A    
C4    C6    A    
C4    C23   S    
C44   H30   S    
C41   H7    S    
C27   C35   A    
C33   C37   A    
C51   C53   A    
C32   C34   A    
C7    C11   A    
C43   H29   S    
C37   C38   A    
C9    C11   A    
C16   C20   A    
C31   C33   A    
C39   H11   S    
Cu1   N2    S    
C59   O11   D    
C14   H21   S    
C43   C45   A    
C56   C60   S    
C10   C12   A    
Cu2   O6    S    
C32   H9    S    
C9    C17   A    
C58   O10   D    
C13   C15   A    
C49   H15   S    
C3    C5    A    
C28   C58   S    
C15   C17   A    
C21   C25   A    
C8    C14   A    
C34   C38   A    
C30   H25   S    
C2    C8    S    
C52   H18   S    
C24   O6    A    
C57   O9    D    
C47   C49   A    
C40   H12   S    
Cu1   O4    S    
C17   C25   A    
C28   C30   A    
Cu2   N1    S    
Cu1   Cu2   S    
C29   H26   S    
C60   O12   D    
C10   C18   A    
C48   C50   A    
C33   C35   A    
C34   C36   A    
Cu1   O1    S    
C12   H23   S    
C2    O2    A    
C14   C16   A    
C30   N2    A    
C35   C41   A    
C21   H5    S    
C22   H6    S    
C44   C54   A    
C7    C13   A    
C20   C21   A    
C28   C36   A    
C16   C18   A    
C58   H28   S    
C22   C26   A    
C59   H31   S    
C42   H8    S    
