data_mof_unit_1272.cif
_audit_creation_date              2012-12-10T17:31:23-0500
_audit_creation_method            fapswitch 2.2
_symmetry_space_group_name_H-M    P1
_symmetry_Int_Tables_number       1
_space_group_crystal_system       triclinic
_cell_length_a                    18.867126
_cell_length_b                    18.328105
_cell_length_c                    12.37134
_cell_angle_alpha                 90.025397
_cell_angle_beta                  128.812048
_cell_angle_gamma                 89.925975
_cell_volume                      3333.43536466

loop_
_atom_site_label
_atom_site_type_symbol
_atom_type_description
_atom_site_fract_x
_atom_site_fract_y
_atom_site_fract_z
_atom_type_partial_charge
C1    C     C_R   0.609590 0.895430 0.648766 0.813652
C2    C     C_R   0.609868 0.104354 0.649018 0.792583
C3    C     C_R   0.108973 0.395093 0.647822 0.811084
C4    C     C_R   0.109253 0.604725 0.648242 0.785935
C5    C     C_R   0.250178 0.765564 0.053135 0.114737
C6    C     C_R   0.249795 0.234461 0.052661 0.084640
C7    C     C_R   0.751038 0.264494 0.054872 0.098673
C8    C     C_R   0.752052 0.738046 0.058608 0.081081
C9    C     C_R   0.673031 0.257752 0.046943 0.161146
C10   C     C_R   0.672940 0.742801 0.048268 0.127213
C11   C     C_R   0.172906 0.757787 0.046916 0.167761
C12   C     C_R   0.172317 0.242012 0.046009 0.134102
C13   C     C_R   0.593193 0.229064 0.928329 -0.266182
C14   C     C_R   0.592813 0.770716 0.928774 -0.256991
C15   C     C_R   0.093105 0.728462 0.929264 -0.257778
C16   C     C_R   0.092337 0.271004 0.927879 -0.255050
C17   C     C_R   0.589023 0.208216 0.816425 -0.012426
C18   C     C_R   0.588933 0.791837 0.817303 -0.026650
C19   C     C_R   0.088131 0.707903 0.816550 -0.013279
C20   C     C_R   0.087484 0.291577 0.815286 -0.029784
C21   C     C_R   0.322465 0.808435 0.159978 -0.200012
C22   C     C_R   0.322026 0.191319 0.159209 -0.237451
C23   C     C_R   0.822983 0.307858 0.161051 -0.224072
C24   C     C_R   0.824880 0.695534 0.166213 -0.200762
C25   C     C_R   0.244619 0.830351 0.254815 -0.146358
C26   C     C_R   0.244317 0.169687 0.254341 -0.148202
C27   C     C_R   0.744152 0.330912 0.254000 -0.149958
C28   C     C_R   0.743524 0.668278 0.253541 -0.152069
C29   C     C_R   0.671923 0.166733 0.730415 -0.214812
C30   C     C_R   0.671401 0.832898 0.730733 -0.126823
C31   C     C_R   0.169901 0.668119 0.727764 -0.215812
C32   C     C_R   0.169239 0.331390 0.726795 -0.125917
C33   C     C_R   0.685558 0.985871 0.285804 -0.120018
C34   C     C_R   0.186167 0.500764 0.285559 -0.122254
C35   C     C_R   0.343487 0.997161 0.627884 0.031137
C36   C     C_R   0.843397 0.499639 0.627576 0.082882
C37   C     C_R   0.308805 0.984836 0.697744 -0.223364
C38   C     C_R   0.807970 0.509347 0.696918 -0.329637
C39   C     C_R   0.385497 0.100360 0.344768 0.806547
C40   C     C_R   0.385574 0.899636 0.344854 0.812338
C41   C     C_R   0.885844 0.600688 0.345348 0.800819
C42   C     C_R   0.885536 0.399677 0.344811 0.806060
C43   C     C_R   0.367083 0.976622 0.842735 0.004970
C44   C     C_R   0.865554 0.519293 0.841099 0.012512
C45   C     C_R   0.462071 0.990429 0.920913 -0.095158
C46   C     C_R   0.961480 0.509729 0.920477 -0.014325
C47   C     C_R   0.494152 0.997186 0.842144 0.281345
C48   C     C_R   0.993925 0.503241 0.842102 0.257802
C49   C     C_R   0.527208 0.994400 0.072114 -0.072400
C50   C     C_R   0.026869 0.507052 0.071951 -0.053232
C51   C     C_R   0.622191 0.994539 0.139386 0.097107
C52   C     C_R   0.121892 0.509667 0.138967 0.076723
C53   C     C_R   0.650868 0.003052 0.058298 -0.078831
C54   C     C_R   0.149682 0.516976 0.056513 -0.072112
C55   C     C_R   0.587991 0.000541 0.914815 -0.242480
C56   C     C_R   0.087836 0.504914 0.914759 -0.256707
C57   C     C_R   0.502660 0.001679 0.160181 -0.013195
C58   C     C_R   0.002630 0.498403 0.160199 0.077646
C59   C     C_R   0.656262 0.992767 0.365084 0.114603
C60   C     C_R   0.156575 0.500692 0.365014 0.094659
C61   C     C_R   0.672187 0.287651 0.150525 -0.159185
C62   C     C_R   0.671432 0.711600 0.150291 -0.166925
C63   C     C_R   0.172714 0.786969 0.151577 -0.146682
C64   C     C_R   0.172142 0.212847 0.150666 -0.164570
C65   C     C_R   0.317629 0.843925 0.254892 -0.040891
C66   C     C_R   0.317390 0.156045 0.254514 -0.038817
C67   C     C_R   0.817644 0.343930 0.254993 -0.040128
C68   C     C_R   0.818206 0.657031 0.256716 -0.050617
C69   C     C_R   0.744361 0.182870 0.727427 0.006709
C70   C     C_R   0.744205 0.816454 0.729017 0.012197
C71   C     C_R   0.240446 0.686248 0.721410 0.014316
C72   C     C_R   0.240302 0.313505 0.721516 0.025448
C73   C     C_R   0.319177 0.719122 0.836136 -0.119621
C74   C     C_R   0.319784 0.282402 0.837518 -0.222721
C75   C     C_R   0.823624 0.213985 0.844320 -0.123072
C76   C     C_R   0.824941 0.789128 0.848821 -0.210837
C77   C     C_R   0.325859 0.739070 0.950187 -0.220569
C78   C     C_R   0.326259 0.262345 0.951426 -0.174048
C79   C     C_R   0.829005 0.234626 0.956947 -0.223115
C80   C     C_R   0.830744 0.770399 0.962745 -0.111226
C81   C     C_R   0.751265 0.233228 0.949923 0.084570
C82   C     C_R   0.752275 0.769774 0.953924 0.073670
C83   C     C_R   0.249505 0.735368 0.946571 0.100725
C84   C     C_R   0.249277 0.264924 0.946464 0.080243
C85   C     C_R   0.669960 0.201689 0.831444 0.027765
C86   C     C_R   0.670087 0.799247 0.833260 -0.008266
C87   C     C_R   0.168431 0.702711 0.829558 0.031600
C88   C     C_R   0.167898 0.297014 0.828750 0.000835
Cu1   Cu    Cu3+1 0.526340 1.000000 0.421010 0.968927
Cu2   Cu    Cu3+1 0.026340 0.500000 0.421010 0.978281
Cu3   Cu    Cu3+1 0.473640 0.000000 0.578990 0.947666
Cu4   Cu    Cu3+1 0.973640 0.500000 0.578990 0.945110
H1    H     H_    0.240599 0.856495 0.329369 0.154091
H2    H     H_    0.240385 0.143637 0.329013 0.162161
H3    H     H_    0.739697 0.357587 0.327711 0.152095
H4    H     H_    0.738244 0.640094 0.325177 0.161901
H5    H     H_    0.433331 0.011725 0.117498 0.144034
H6    H     H_    0.933431 0.488480 0.117851 0.147988
H7    H     H_    0.297446 0.999581 0.515765 0.133323
H8    H     H_    0.797603 0.496132 0.515573 0.128681
H9    H     H_    0.236236 0.976238 0.636612 0.188836
H10   H     H_    0.734909 0.514775 0.635913 0.149451
H11   H     H_    0.616170 0.003233 0.862916 0.200645
H12   H     H_    0.116377 0.501407 0.863342 0.203230
H13   H     H_    0.531234 0.230776 0.916783 0.134844
H14   H     H_    0.530516 0.768006 0.916159 0.140293
H15   H     H_    0.031659 0.729198 0.919206 0.140734
H16   H     H_    0.030772 0.270022 0.917451 0.139992
H17   H     H_    0.613223 0.281739 0.146038 0.127327
H18   H     H_    0.611675 0.716107 0.144106 0.146113
H19   H     H_    0.114275 0.780338 0.148238 0.129096
H20   H     H_    0.113567 0.219351 0.147060 0.146558
H21   H     H_    0.380950 0.819509 0.166488 0.147022
H22   H     H_    0.380062 0.179711 0.164636 0.146501
H23   H     H_    0.881257 0.319139 0.166981 0.154182
H24   H     H_    0.884980 0.686679 0.175828 0.178414
H25   H     H_    0.391167 0.759671 0.037249 0.132857
H26   H     H_    0.391902 0.242739 0.039676 0.129514
H27   H     H_    0.894604 0.253631 0.046127 0.143163
H28   H     H_    0.896935 0.753655 0.053998 0.144005
H29   H     H_    0.376411 0.729642 0.837981 0.165509
H30   H     H_    0.377428 0.273008 0.839775 0.128467
H31   H     H_    0.882274 0.222595 0.848971 0.168794
H32   H     H_    0.883929 0.781389 0.853912 0.131426
N1    N     N_R   0.566260 0.000000 0.302220 -0.204573
N2    N     N_R   0.066260 0.500000 0.302220 -0.211930
N3    N     N_R   0.434410 1.000000 0.697680 -0.196434
N4    N     N_R   0.934410 0.500000 0.697680 -0.197951
O1    O     O_R   0.608610 0.924520 0.551740 -0.533915
O2    O     O_R   0.608610 0.075480 0.551740 -0.598825
O3    O     O_R   0.108610 0.424520 0.551740 -0.532641
O4    O     O_R   0.108610 0.575480 0.551740 -0.598177
O5    O     O_R   0.564110 0.924510 0.685150 -0.608452
O6    O     O_R   0.564110 0.075490 0.685150 -0.585357
O7    O     O_R   0.064110 0.424510 0.685150 -0.608892
O8    O     O_R   0.064110 0.575490 0.685150 -0.585787
O9    O     O_R   0.435880 0.075470 0.314850 -0.598284
O10   O     O_R   0.435880 0.924530 0.314850 -0.579391
O11   O     O_R   0.935880 0.575470 0.314850 -0.575538
O12   O     O_R   0.935880 0.424530 0.314850 -0.587182
O13   O     O_R   0.391380 0.075460 0.448260 -0.576882
O14   O     O_R   0.391380 0.924540 0.448260 -0.585517
O15   O     O_R   0.891380 0.575460 0.448260 -0.579585
O16   O     O_R   0.891380 0.424540 0.448260 -0.587359
C89   C     C_2   0.744264 0.024996 0.115533 0.380494
H33   H     H_    0.774592 0.002613 0.071651 0.062894
O17   O     O_2   0.785111 0.072180 0.204566 -0.504974
C90   C     C_2   0.240638 0.543599 0.109394 0.383115
H34   H     H_    0.271579 0.522960 0.065344 0.060698
O18   O     O_2   0.278570 0.592612 0.195005 -0.512349
C91   C     C_1   0.778034 0.960770 0.355179 0.300396
N5    N     N_1   0.851601 0.940404 0.410975 -0.240882
C92   C     C_1   0.280766 0.482246 0.355232 0.308145
N6    N     N_1   0.356084 0.467123 0.411412 -0.257355
C93   C     C_2   0.328221 0.941099 0.902880 0.344142
H35   H     H_    0.370504 0.906666 0.993870 0.060908
O19   O     O_2   0.247908 0.948096 0.849214 -0.525654
C94   C     C_2   0.821829 0.551522 0.895688 0.320117
H36   H     H_    0.753951 0.534494 0.854291 0.083513
O20   O     O_2   0.858370 0.601101 0.979954 -0.566089
C95   C     C_2   0.737936 0.171290 0.602637 0.389476
H37   H     H_    0.672200 0.167860 0.500435 0.082430
O21   O     O_2   0.806215 0.167866 0.611834 -0.526952
C96   C     C_2   0.738412 0.823351 0.604387 0.393384
H38   H     H_    0.799838 0.831603 0.615942 0.073038
O22   O     O_2   0.666250 0.815073 0.488116 -0.538763
C97   C     C_2   0.232311 0.675098 0.595054 0.387309
H39   H     H_    0.165997 0.670497 0.493930 0.085248
O23   O     O_2   0.299696 0.673219 0.601710 -0.531618
C98   C     C_2   0.234170 0.323115 0.596961 0.392348
H40   H     H_    0.295525 0.332050 0.608595 0.068644
O24   O     O_2   0.161802 0.316166 0.480460 -0.537570
C99   C     C_1   0.499822 0.210226 0.682369 0.261932
N7    N     N_1   0.427978 0.213648 0.576010 -0.294319
C100  C     C_1   0.499984 0.789693 0.682862 0.313900
N8    N     N_1   0.428376 0.786232 0.576141 -0.232062
C101  C     C_1   0.998344 0.709158 0.683442 0.278699
N9    N     N_1   0.925976 0.712018 0.577922 -0.287255
C102  C     C_1   0.997859 0.290478 0.681948 0.321761
N10   N     N_1   0.925643 0.287749 0.576169 -0.233915
C103  C     C_1   0.722628 0.994122 0.514656 0.346377
N11   N     N_1   0.776621 0.995397 0.634382 -0.286814
C104  C     C_1   0.222666 0.499008 0.514660 0.351107
N12   N     N_1   0.276411 0.497769 0.634428 -0.294505

loop_
_geom_bond_atom_site_label_1
_geom_bond_atom_site_label_2
_ccdc_geom_bond_type
C26   H2    S    
C83   C87   A    
C80   H28   S    
C25   H1    S    
C40   O14   A    
C93   O19   D    
C72   C74   A    
C44   C94   S    
C14   C18   A    
C53   C55   A    
C27   H3    S    
C37   H9    S    
C58   H6    S    
C61   H17   S    
C39   O9    A    
C95   H37   S    
Cu1   O1    S    
C96   O22   D    
C97   O23   D    
Cu4   O8    S    
C99   N7    T    
C15   C19   A    
Cu3   O6    S    
C2    O6    A    
Cu3   N3    S    
C2    C29   S    
C75   H31   S    
C54   C90   S    
C96   H38   S    
C78   H26   S    
C69   C95   S    
C41   O15   A    
C77   H25   S    
C6    C12   A    
C5    C83   A    
C1    O5    A    
C64   H20   S    
C98   H40   S    
C77   C83   A    
C23   C67   A    
C6    C22   A    
C55   H11   S    
C49   C57   A    
C48   C56   A    
C25   C63   A    
C15   H15   S    
C59   C103  S    
Cu4   O15   S    
C26   C64   A    
C22   C66   A    
C9    C13   A    
C27   C61   A    
C30   C70   A    
C11   C15   A    
C94   O20   D    
C12   C16   A    
C17   C99   S    
C49   C51   A    
C79   H27   S    
C50   C52   A    
C91   N5    T    
Cu1   Cu3   S    
C19   C101  S    
C29   C85   A    
C4    O8    A    
Cu3   O14   S    
Cu2   O4    S    
C18   C100  S    
C60   C104  S    
C31   C71   A    
C1    O1    A    
C33   C59   A    
C71   C97   S    
C34   C60   A    
C10   C62   A    
C35   H7    S    
Cu4   N4    S    
C21   C65   A    
C95   O21   D    
C58   N2    A    
C52   C54   A    
Cu2   O11   S    
C41   C68   S    
C29   C69   A    
C45   C47   A    
C46   C48   A    
C6    C84   A    
C28   C62   A    
C89   O17   D    
C42   O12   A    
C26   C66   A    
C39   O13   A    
C31   C87   A    
C90   H34   S    
C43   C93   S    
C21   H21   S    
C10   C14   A    
C97   H39   S    
C79   C81   A    
C2    O2    A    
Cu1   N1    S    
C44   C46   A    
C103  N11   T    
C24   C68   A    
Cu1   O2    S    
C3    O3    A    
C40   O10   A    
C51   C53   A    
C76   H32   S    
C37   C43   A    
C104  N12   T    
C38   C44   A    
C9    C61   A    
C48   N4    A    
Cu2   Cu4   S    
C100  N8    T    
C62   H18   S    
C45   C49   A    
C16   C20   A    
C57   H5    S    
C53   C89   S    
Cu2   N2    S    
C50   C58   A    
C25   C65   A    
C36   H8    S    
C18   C86   A    
C35   N3    A    
C43   C45   A    
Cu1   O10   S    
C56   H12   S    
Cu3   O5    S    
Cu2   O3    S    
C13   H13   S    
C7    C81   A    
C24   H24   S    
Cu1   O9    S    
C40   C65   S    
C42   O16   A    
C42   C67   S    
C39   C66   S    
C17   C85   A    
Cu4   O7    S    
C30   C86   A    
C70   C76   A    
C89   H33   S    
C36   N4    A    
C35   C37   A    
C47   C55   A    
C34   C92   S    
C7    C9    A    
C12   C64   A    
C33   C91   S    
C74   H30   S    
C34   C52   A    
C76   C80   A    
C90   O18   D    
C28   C68   A    
C70   C96   S    
Cu2   O12   S    
C54   C56   A    
C5    C11   A    
C33   C51   A    
C46   C50   A    
C22   H22   S    
C73   H29   S    
C13   C17   A    
C20   C102  S    
C28   H4    S    
C36   C38   A    
C19   C87   A    
C38   H10   S    
C82   C86   A    
C59   N1    A    
C57   N1    A    
C4    O4    A    
C94   H36   S    
C84   C88   A    
C98   O24   D    
C47   N3    A    
C7    C23   A    
C20   C88   A    
C60   N2    A    
C1    C30   S    
C8    C24   A    
C80   C82   A    
C69   C75   A    
C3    O7    A    
C63   H19   S    
C3    C32   S    
Cu4   O16   S    
C41   O11   A    
C4    C31   S    
C27   C67   A    
C16   H16   S    
C23   H23   S    
C102  N10   T    
C78   C84   A    
C8    C82   A    
C5    C21   A    
C8    C10   A    
C101  N9    T    
C74   C78   A    
C14   H14   S    
C71   C73   A    
C93   H35   S    
C73   C77   A    
Cu3   O13   S    
C92   N6    T    
C11   C63   A    
C75   C79   A    
C81   C85   A    
C72   C98   S    
C32   C72   A    
C32   C88   A    
