data_mof_unit_1561.cif
_audit_creation_date              2012-10-26T20:19:16-0400
_audit_creation_method            fapswitch 2.2
_symmetry_space_group_name_H-M    P1
_symmetry_Int_Tables_number       1
_space_group_crystal_system       triclinic
_cell_length_a                    15.04419
_cell_length_b                    13.013992
_cell_length_c                    11.673438
_cell_angle_alpha                 99.932763
_cell_angle_beta                  93.900309
_cell_angle_gamma                 90.123538
_cell_volume                      2245.78786684

loop_
_atom_site_label
_atom_site_type_symbol
_atom_type_description
_atom_site_fract_x
_atom_site_fract_y
_atom_site_fract_z
_atom_type_partial_charge
C1    C     C_R   0.498657 0.299100 0.478564 0.544270
C2    C     C_R   0.501366 0.876308 0.644559 -0.115892
C3    C     C_R   0.498996 0.139603 0.565470 -0.128197
C4    C     C_R   0.498418 0.860402 0.434281 -0.134223
C5    C     C_R   0.498437 0.031408 0.555992 0.052994
C6    C     C_R   0.496925 0.968561 0.443610 0.050798
C7    C     C_R   0.406945 0.413322 0.023683 -0.055571
C8    C     C_R   0.590796 0.590915 0.977169 -0.056043
C9    C     C_R   0.418067 0.419727 0.145458 0.042346
C10   C     C_R   0.581208 0.581623 0.854731 0.040920
C11   C     C_R   0.540357 0.536294 0.156965 0.038728
C12   C     C_R   0.501047 0.700914 0.521414 0.544296
C13   C     C_R   0.459320 0.464258 0.843384 0.042686
C14   C     C_R   0.532738 0.533431 0.034269 -0.010949
C15   C     C_R   0.465371 0.469969 0.966415 -0.009785
C16   C     C_R   0.328941 0.502507 0.500307 0.545326
C17   C     C_R   0.671040 0.497527 0.499497 0.546425
C18   C     C_R   0.809502 0.563291 0.441441 -0.151026
C19   C     C_R   0.190046 0.431970 0.551573 -0.155599
C20   C     C_R   0.767359 0.493506 0.498408 -0.012395
C21   C     C_R   0.232484 0.505106 0.499640 -0.011757
C22   C     C_R   0.816532 0.420482 0.552219 0.094874
C23   C     C_R   0.056471 0.351613 0.597957 -0.142436
C24   C     C_R   0.183231 0.577255 0.444403 0.098292
C25   C     C_R   0.910567 0.419659 0.550062 0.099017
C26   C     C_R   0.088928 0.574596 0.441173 0.099082
C27   C     C_R   0.952894 0.494502 0.495190 -0.007464
C28   C     C_R   0.046547 0.499019 0.494877 -0.007256
C29   C     C_R   0.901645 0.565292 0.440700 -0.015737
C30   C     C_R   0.097743 0.427637 0.548511 -0.016932
C31   C     C_R   0.964059 0.347186 0.600647 0.114688
C32   C     C_R   0.035237 0.643952 0.385809 0.117048
C33   C     C_R   0.331498 0.350550 0.960598 -0.001446
C34   C     C_R   0.942683 0.638241 0.386392 -0.134461
C35   C     C_R   0.334122 0.241241 0.942584 -0.107137
C36   C     C_R   0.260977 0.182158 0.886443 -0.111645
C37   C     C_R   0.184596 0.231959 0.849821 -0.105054
C38   C     C_R   0.181463 0.340912 0.868759 -0.116447
C39   C     C_R   0.254899 0.400177 0.923220 -0.097911
C40   C     C_R   0.661233 0.661565 0.042334 -0.005619
C41   C     C_R   0.751365 0.641517 0.024400 -0.093720
C42   C     C_R   0.817862 0.707281 0.087695 -0.109724
C43   C     C_R   0.794775 0.793750 0.168387 -0.113484
C44   C     C_R   0.705149 0.814819 0.185715 -0.103311
C45   C     C_R   0.500588 0.814279 0.533891 -0.037410
C46   C     C_R   0.638520 0.749279 0.122587 -0.103411
C47   C     C_R   0.497614 0.185747 0.465959 -0.038670
C48   C     C_R   0.494407 0.015095 0.342772 0.094439
C49   C     C_R   0.499966 0.984918 0.656802 0.100318
C50   C     C_R   0.495049 0.123726 0.355178 -0.113734
Cu1   Cu    Cu3+1 0.506660 0.507730 0.615930 0.927376
Cu2   Cu    Cu3+1 0.493340 0.492270 0.384070 0.926873
H1    H     H_    0.770065 0.618091 0.399776 0.122029
H2    H     H_    0.591833 0.582724 0.211332 0.138111
H3    H     H_    0.625327 0.625300 0.810792 0.134134
H4    H     H_    0.373178 0.376964 0.189360 0.135568
H5    H     H_    0.392587 0.202080 0.972075 0.107690
H6    H     H_    0.263248 0.097823 0.872145 0.105410
H7    H     H_    0.127709 0.186175 0.807326 0.102124
H8    H     H_    0.121983 0.379591 0.841992 0.111428
H9    H     H_    0.251691 0.484529 0.937856 0.113028
H10   H     H_    0.770043 0.574428 0.962574 0.110505
H11   H     H_    0.887307 0.691054 0.074472 0.105390
H12   H     H_    0.229438 0.376828 0.592751 0.120944
H13   H     H_    0.846348 0.844370 0.217490 0.104789
H14   H     H_    0.687290 0.881800 0.248161 0.140039
H15   H     H_    0.569288 0.766063 0.136737 0.132964
H16   H     H_    0.722715 0.306239 0.545703 0.234716
H17   H     H_    0.740027 0.385583 0.677837 0.252488
H18   H     H_    0.262690 0.617932 0.324688 0.254412
H19   H     H_    0.274842 0.694997 0.458752 0.228114
H20   H     H_    0.952445 0.278426 0.741663 0.221088
H21   H     H_    0.945723 0.195514 0.612605 0.226822
H22   H     H_    0.052312 0.793970 0.366468 0.225598
H23   H     H_    0.096291 0.294792 0.635324 0.106336
H24   H     H_    0.047875 0.706622 0.240787 0.219707
H25   H     H_    0.498535 0.998484 0.164802 0.226638
H26   H     H_    0.427577 0.918015 0.211839 0.227363
H27   H     H_    0.509177 0.001854 0.835659 0.225606
H28   H     H_    0.436416 0.079842 0.778893 0.218977
H29   H     H_    0.902626 0.692029 0.344240 0.110289
H30   H     H_    0.498242 0.811486 0.349227 0.157050
H31   H     H_    0.500831 0.188569 0.650629 0.167513
H32   H     H_    0.502431 0.840286 0.721660 0.130657
H33   H     H_    0.493375 0.159746 0.278041 0.130639
H34   H     H_    0.409339 0.414962 0.789260 0.137151
N1    N     N_R   0.516670 0.519360 0.790130 -0.245181
N2    N     N_R   0.483330 0.480640 0.209870 -0.246021
N3    N     N_3   0.770982 0.346101 0.605918 -0.571815
N4    N     N_3   0.228910 0.654736 0.395423 -0.577564
N5    N     N_3   0.926034 0.268441 0.655170 -0.580831
N6    N     N_3   0.073203 0.720291 0.327803 -0.585348
N7    N     N_3   0.491152 0.952140 0.228440 -0.671488
N8    N     N_3   0.499857 0.047946 0.770891 -0.642070
O1    O     O_R   0.504720 0.354460 0.582000 -0.510215
O2    O     O_R   0.495280 0.645540 0.418000 -0.513499
O3    O     O_R   0.493480 0.341410 0.386200 -0.503522
O4    O     O_R   0.506520 0.658590 0.613800 -0.503935
O5    O     O_R   0.375880 0.506510 0.597910 -0.503557
O6    O     O_R   0.624120 0.493490 0.402090 -0.500351
O7    O     O_R   0.364640 0.493450 0.402110 -0.512816
O8    O     O_R   0.635360 0.506550 0.597890 -0.513455

loop_
_geom_bond_atom_site_label_1
_geom_bond_atom_site_label_2
_ccdc_geom_bond_type
C25   C31   A    
C26   C32   A    
C16   C21   S    
C27   C29   A    
C41   C42   A    
C44   H14   S    
C35   C36   A    
C43   C44   A    
C32   N6    S    
Cu1   O8    S    
C40   C46   A    
C33   C39   A    
C6    C48   A    
C36   C37   A    
C19   C21   A    
C24   C26   A    
C36   H6    S    
C9    N2    A    
C5    C6    A    
C11   C14   A    
H26   N7    S    
Cu2   O3    S    
C17   C20   S    
H22   N6    S    
C50   H33   S    
C2    H32   S    
C22   C25   A    
C13   H34   S    
C34   H29   S    
C49   N8    S    
C19   H12   S    
C12   O4    A    
C18   H1    S    
C1    O1    A    
Cu1   O4    S    
C48   C50   A    
C7    C33   S    
C5    C49   A    
H18   N4    S    
C41   H10   S    
H17   N3    S    
C44   C46   A    
C47   C50   A    
C4    C45   A    
C2    C45   A    
Cu1   O5    S    
C39   H9    S    
Cu2   O7    S    
C48   N7    S    
Cu1   Cu2   S    
C23   C30   A    
Cu2   N2    S    
H21   N5    S    
H27   N8    S    
C4    C6    A    
C1    O3    A    
C18   C29   A    
H20   N5    S    
C1    C47   S    
C7    C15   A    
C29   C34   A    
Cu2   O6    S    
C32   C34   A    
C17   O8    A    
C37   C38   A    
C2    C49   A    
C11   N2    A    
C43   H13   S    
C13   N1    A    
H16   N3    S    
C10   N1    A    
C9    H4    S    
C10   H3    S    
C37   H7    S    
C11   H2    S    
H24   N6    S    
C38   H8    S    
C40   C41   A    
C20   C22   A    
C31   N5    S    
C13   C15   A    
C3    H31   S    
C42   C43   A    
Cu1   N1    S    
H25   N7    S    
C7    C9    A    
C8    C14   A    
C23   H23   S    
C12   C45   S    
C3    C5    A    
C24   N4    S    
C16   O5    A    
C25   C27   A    
C26   C28   A    
C35   H5    S    
C28   C30   A    
C46   H15   S    
C38   C39   A    
H19   N4    S    
C3    C47   A    
C33   C35   A    
C22   N3    S    
Cu2   O2    S    
C18   C20   A    
C17   O6    A    
C16   O7    A    
C4    H30   S    
C8    C10   A    
C21   C24   A    
Cu1   O1    S    
C27   C28   A    
C14   C15   A    
C12   O2    A    
C8    C40   S    
C19   C30   A    
H28   N8    S    
C42   H11   S    
C23   C31   A    
