data_mof_unit_4376.cif
_audit_creation_date              2012-12-10T20:46:50-0500
_audit_creation_method            fapswitch 2.2
_symmetry_space_group_name_H-M    P1
_symmetry_Int_Tables_number       1
_space_group_crystal_system       triclinic
_cell_length_a                    12.971996
_cell_length_b                    8.937033
_cell_length_c                    8.091262
_cell_angle_alpha                 90.000409
_cell_angle_beta                  95.744375
_cell_angle_gamma                 89.999456
_cell_volume                      933.31890405

loop_
_atom_site_label
_atom_site_type_symbol
_atom_type_description
_atom_site_fract_x
_atom_site_fract_y
_atom_site_fract_z
_atom_type_partial_charge
Br1   Br    Br    0.795003 0.616144 0.186309 -0.520292
Br2   Br    Br    0.204990 0.615955 0.813782 -0.520347
C1    C     C_R   0.500000 0.217928 0.500000 0.936389
C2    C     C_R   0.866328 0.527606 0.701751 -0.229916
C3    C     C_R   0.134759 0.558947 0.598509 0.214632
C4    C     C_R   0.865241 0.559011 0.401528 0.214600
C5    C     C_R   0.026997 0.553808 0.580675 0.072592
C6    C     C_R   0.973003 0.553858 0.419357 0.072583
C7    C     C_1   0.500000 0.065165 0.499999 -0.163853
C8    C     C_1   0.500000 0.934827 0.500000 -0.150786
C9    C     C_R   0.500000 0.782080 0.500000 0.935563
C10   C     C_R   0.298112 0.509575 0.470606 0.912766
C11   C     C_R   0.701888 0.509575 0.529396 0.912775
C12   C     C_R   0.812492 0.532508 0.543469 -0.125084
C13   C     C_R   0.187508 0.532518 0.456548 -0.125107
C14   C     C_R   0.027809 0.544112 0.279229 -0.141473
C15   C     C_R   0.972191 0.543980 0.720796 -0.141478
C16   C     C_R   0.133673 0.527713 0.298262 -0.229932
H1    H     H_    0.826643 0.510931 0.811915 0.215105
H2    H     H_    0.173358 0.511101 0.188087 0.215154
H3    H     H_    0.989789 0.538763 0.154347 0.189401
H4    H     H_    0.010211 0.538545 0.845675 0.189382
N1    N     N_1   0.500020 0.500000 0.073640 0.009057
N2    N     N_1   0.499980 0.500000 0.926360 0.009057
O1    O     O_R   0.499990 0.285340 0.636850 -0.615639
O2    O     O_R   0.500010 0.714660 0.363150 -0.606939
O3    O     O_R   0.500010 0.285340 0.363150 -0.615639
O4    O     O_R   0.499990 0.714660 0.636850 -0.606950
O5    O     O_R   0.346350 0.500000 0.614250 -0.577943
O6    O     O_R   0.653650 0.500000 0.385750 -0.577954
O7    O     O_R   0.346360 0.500000 0.340500 -0.627382
O8    O     O_R   0.653640 0.500000 0.659500 -0.627395
Zn1   Zn    Zn3+2 0.499990 0.500000 0.682780 1.052526
Zn2   Zn    Zn3+2 0.500010 0.500000 0.317220 1.052529

loop_
_geom_bond_atom_site_label_1
_geom_bond_atom_site_label_2
_ccdc_geom_bond_type
C13   C16   A    
N1    N2    T    
C14   H3    S    
C1    C7    S    
C10   O5    A    
C4    C12   A    
C7    C8    T    
C11   O8    A    
N2    Zn1   S    
C10   C13   S    
N1    Zn2   S    
O8    Zn1   S    
C1    O3    A    
O7    Zn2   S    
C5    C6    A    
C6    C14   A    
C10   O7    A    
C11   C12   S    
C9    O4    A    
C2    C15   A    
O4    Zn1   S    
C16   H2    S    
O3    Zn2   S    
C2    C12   A    
C3    C13   A    
Br2   C3    S    
C8    C9    S    
O6    Zn2   S    
Br1   C4    S    
O5    Zn1   S    
C11   O6    A    
C1    O1    A    
C14   C16   A    
C3    C5    A    
C4    C6    A    
C9    O2    A    
C2    H1    S    
O2    Zn2   S    
C15   H4    S    
O1    Zn1   S    
C5    C15   A    
