data_mof_unit_4742.cif
_audit_creation_date              2012-12-10T20:02:17-0500
_audit_creation_method            fapswitch 2.2
_symmetry_space_group_name_H-M    P1
_symmetry_Int_Tables_number       1
_space_group_crystal_system       triclinic
_cell_length_a                    10.695916
_cell_length_b                    14.936346
_cell_length_c                    14.141035
_cell_angle_alpha                 90.269659
_cell_angle_beta                  90.489792
_cell_angle_gamma                 90.009103
_cell_volume                      2259.0344769

loop_
_atom_site_label
_atom_site_type_symbol
_atom_type_description
_atom_site_fract_x
_atom_site_fract_y
_atom_site_fract_z
_atom_type_partial_charge
C1    C     C_R   0.501651 0.327715 0.499899 0.861329
C2    C     C_R   0.504193 0.672592 0.500293 0.857823
C3    C     C_R   0.872087 0.497092 0.500855 -0.093487
C4    C     C_R   0.127364 0.503782 0.498639 -0.111590
C5    C     C_R   0.939492 0.448614 0.569127 0.033790
C6    C     C_R   0.059701 0.549359 0.427762 0.012332
C7    C     C_R   0.476562 0.091490 0.575250 -0.184978
C8    C     C_R   0.540238 0.907476 0.417674 -0.177479
C9    C     C_R   0.460131 0.183060 0.572626 -0.207324
C10   C     C_R   0.525606 0.815594 0.416209 -0.217029
C11   C     C_R   0.515287 0.232318 0.500497 -0.013585
C12   C     C_R   0.522810 0.768380 0.501392 -0.028982
C13   C     C_R   0.590301 0.190903 0.432683 -0.211853
C14   C     C_R   0.543970 0.812662 0.587628 -0.189438
C15   C     C_R   0.609149 0.099407 0.436498 -0.192589
C16   C     C_R   0.561878 0.904223 0.588893 -0.186924
C17   C     C_R   0.550596 0.049248 0.506899 0.110836
C18   C     C_R   0.555743 0.952255 0.504245 0.123114
C19   C     C_R   0.423332 0.438962 0.104243 0.153062
C20   C     C_R   0.455729 0.578924 0.893708 0.140751
C21   C     C_R   0.428511 0.439377 0.204181 -0.056428
C22   C     C_R   0.461077 0.575110 0.793814 -0.015617
C23   C     C_R   0.259932 0.502355 0.499471 0.876819
C24   C     C_R   0.739882 0.497700 0.500395 0.880762
C25   C     C_R   0.571564 0.559945 0.204977 0.026989
C26   C     C_R   0.534988 0.426305 0.797274 -0.035064
C27   C     C_R   0.571886 0.561193 0.105680 -0.375716
C28   C     C_R   0.535489 0.427105 0.896598 -0.287229
C29   C     C_R   0.495753 0.501769 0.053420 0.096226
C30   C     C_R   0.496721 0.503632 0.946831 0.081676
C31   C     C_R   0.245196 0.721803 0.292987 -0.127687
C32   C     C_R   0.783731 0.240779 0.663248 -0.113904
C33   C     C_R   0.191504 0.674181 0.367061 -0.158662
C34   C     C_R   0.834043 0.303522 0.601303 -0.208484
C35   C     C_R   0.118975 0.597647 0.348272 0.100698
C36   C     C_R   0.880361 0.385495 0.635774 0.085921
C37   C     C_R   0.100092 0.569313 0.253417 0.254896
C38   C     C_R   0.874249 0.404807 0.733361 0.280769
C39   C     C_R   0.155664 0.617658 0.179871 -0.200688
C40   C     C_R   0.823464 0.341138 0.794975 -0.218148
C41   C     C_R   0.228410 0.693127 0.199711 -0.153742
C42   C     C_R   0.779260 0.259285 0.760012 -0.185757
C43   C     C_R   0.931310 0.546764 0.431092 -0.201080
C44   C     C_R   0.067802 0.453748 0.568085 -0.214129
H1    H     H_    0.270475 0.730151 0.142587 0.138001
H2    H     H_    0.739864 0.210695 0.807845 0.138924
H3    H     H_    0.667897 0.067729 0.384067 0.130797
H4    H     H_    0.576611 0.937869 0.656108 0.126972
H5    H     H_    0.374478 0.391389 0.243721 0.124003
H6    H     H_    0.433264 0.632665 0.752745 0.141671
H7    H     H_    0.629194 0.606879 0.244260 0.126999
H8    H     H_    0.562668 0.366449 0.759862 0.161916
H9    H     H_    0.630986 0.608760 0.069636 0.153102
H10   H     H_    0.565577 0.367804 0.934231 0.159080
H11   H     H_    0.298690 0.781692 0.307775 0.131704
H12   H     H_    0.748566 0.177616 0.636233 0.154394
H13   H     H_    0.205325 0.697419 0.439081 0.119203
H14   H     H_    0.838033 0.287963 0.526485 0.131967
H15   H     H_    0.141899 0.596968 0.107084 0.128533
H16   H     H_    0.816905 0.355556 0.869878 0.138390
H17   H     H_    0.877303 0.583558 0.378810 0.154568
H18   H     H_    0.121701 0.414804 0.618558 0.152232
H19   H     H_    0.428276 0.053566 0.628860 0.133541
H20   H     H_    0.534198 0.943637 0.351591 0.127899
H21   H     H_    0.402617 0.215211 0.625600 0.145342
H22   H     H_    0.514109 0.781957 0.348710 0.150008
H23   H     H_    0.635837 0.229462 0.378136 0.148334
H24   H     H_    0.545969 0.776884 0.654085 0.153551
N1    N     N_R   0.500000 0.499980 0.252470 -0.093536
N2    N     N_R   0.500000 0.500020 0.747530 -0.112245
O1    O     O_R   0.500010 0.369070 0.579480 -0.624748
O2    O     O_R   0.499990 0.630930 0.420520 -0.621228
O3    O     O_R   0.500010 0.369060 0.420520 -0.627562
O4    O     O_R   0.499990 0.630940 0.579480 -0.636459
O5    O     O_R   0.316760 0.500010 0.579480 -0.618066
O6    O     O_R   0.683240 0.499990 0.420520 -0.626141
O7    O     O_R   0.316760 0.500000 0.420520 -0.609635
O8    O     O_R   0.683240 0.500000 0.579480 -0.608169
Zn1   Zn    Zn3+2 0.500000 0.500010 0.606140 0.942519
Zn2   Zn    Zn3+2 0.500000 0.499990 0.393860 0.948748
N3    N     N_2   0.348627 0.373672 0.056337 -0.317059
H25   H     H_    0.327701 0.317226 0.094892 0.211204
C45   C     C_3   0.244991 0.406619 0.999637 -0.792766
H26   H     H_    0.256457 0.383720 0.925428 0.257912
H27   H     H_    0.239270 0.480854 0.000693 0.244825
H28   H     H_    0.155298 0.379749 0.026625 0.223163
N4    N     N_2   0.409582 0.658242 0.938348 -0.318615
H29   H     H_    0.427490 0.664804 0.009558 0.236222
C46   C     C_3   0.282284 0.682820 0.914466 -0.833742
H30   H     H_    0.257817 0.746356 0.950947 0.238420
H31   H     H_    0.216779 0.629991 0.937923 0.232731
H32   H     H_    0.270940 0.693576 0.837312 0.248242
N5    N     N_2   0.021362 0.494986 0.231373 -0.316061
H33   H     H_    0.979260 0.498690 0.165577 0.215700
C47   C     C_3   0.076691 0.408083 0.248061 -0.787349
H34   H     H_    0.005758 0.355172 0.234573 0.234024
H35   H     H_    0.109820 0.401756 0.322245 0.256618
H36   H     H_    0.156216 0.397290 0.199678 0.236470
N6    N     N_2   0.911831 0.490058 0.768382 -0.300703
H37   H     H_    0.841157 0.522348 0.804158 0.227723
C48   C     C_3   0.027185 0.489602 0.822401 -0.826373
H38   H     H_    0.054204 0.559506 0.839766 0.246632
H39   H     H_    0.103715 0.458692 0.780980 0.255677
H40   H     H_    0.014837 0.452204 0.889397 0.232297

loop_
_geom_bond_atom_site_label_1
_geom_bond_atom_site_label_2
_ccdc_geom_bond_type
N4    H29   S    
C20   N4    S    
N5    H33   S    
C40   H16   S    
C27   C29   A    
C47   H34   S    
C1    C11   S    
C15   H3    S    
C2    C12   S    
C16   H4    S    
C21   H5    S    
N3    H25   S    
C47   H36   S    
C39   C41   A    
C20   C30   A    
C3    C43   A    
C48   H38   S    
C35   C37   A    
C5    C36   S    
C6    C35   S    
C7    C9    A    
C42   H2    S    
C45   H26   S    
C7    C17   A    
C31   C33   A    
C46   H31   S    
C2    O4    A    
C22   H6    S    
C40   C42   A    
N5    C47   S    
C3    C24   S    
C2    O2    A    
O1    Zn1   S    
N3    C45   S    
C10   H22   S    
C4    C6    A    
C4    C23   S    
C28   H10   S    
O8    Zn1   S    
C24   O6    A    
C4    C44   A    
C44   H18   S    
C8    C18   A    
O2    Zn2   S    
C21   N1    A    
C32   C34   A    
C25   H7    S    
C29   C30   S    
C26   H8    S    
N6    H37   S    
C39   H15   S    
C47   H35   S    
C17   C18   S    
C37   N5    S    
C16   C18   A    
C1    O1    A    
C23   O7    A    
C46   H32   S    
C9    C11   A    
C7    H19   S    
C10   C12   A    
C8    H20   S    
C24   O8    A    
C45   H27   S    
C5    C44   A    
C12   C14   A    
C48   H40   S    
O4    Zn1   S    
C13   C15   A    
C26   N2    A    
C14   C16   A    
C25   N1    A    
C20   C22   A    
C19   C29   A    
C43   H17   S    
C13   H23   S    
O7    Zn2   S    
C15   C17   A    
C33   H13   S    
C31   C41   A    
N6    C48   S    
N2    Zn1   S    
O6    Zn2   S    
C23   O5    A    
C38   N6    S    
C3    C5    A    
C27   H9    S    
C25   C27   A    
C26   C28   A    
C48   H39   S    
C6    C43   A    
C1    O3    A    
C28   C30   A    
C37   C39   A    
C41   H1    S    
C38   C40   A    
C11   C13   A    
C36   C38   A    
C33   C35   A    
O3    Zn2   S    
C22   N2    A    
C34   C36   A    
C14   H24   S    
C9    H21   S    
C45   H28   S    
C8    C10   A    
C34   H14   S    
N4    C46   S    
C32   C42   A    
N1    Zn2   S    
C31   H11   S    
C46   H30   S    
C19   N3    S    
O5    Zn1   S    
C32   H12   S    
C19   C21   A    
