data_mof_unit_1622.cif
_audit_creation_date              2013-03-05T15:56:06-0500
_audit_creation_method            fapswitch 2.2
_symmetry_space_group_name_H-M    P1
_symmetry_Int_Tables_number       1
_space_group_crystal_system       triclinic
_cell_length_a                    16.613762
_cell_length_b                    7.242587
_cell_length_c                    15.211392
_cell_angle_alpha                 90.00987
_cell_angle_beta                  94.706272
_cell_angle_gamma                 90.02398
_cell_volume                      1824.16399746

loop_
_atom_site_label
_atom_site_type_symbol
_atom_site_description
_atom_site_fract_x
_atom_site_fract_y
_atom_site_fract_z
_atom_type_partial_charge
O1    O     O_R   0.663460 0.361880 0.165960 -0.595617
O2    O     O_R   0.336540 0.638120 0.834040 -0.571004
O3    O     O_R   0.836540 0.861880 0.334040 -0.572485
O4    O     O_R   0.163460 0.138120 0.665960 -0.575736
O5    O     O_R   0.827100 0.690020 0.163730 -0.597380
O6    O     O_R   0.172900 0.309980 0.836270 -0.596176
O7    O     O_R   0.672900 0.190020 0.336270 -0.597819
O8    O     O_R   0.327100 0.809980 0.663730 -0.598986
C1    C     C_R   0.853368 0.523053 0.143619 1.008356
C2    C     C_R   0.146686 0.476962 0.856446 0.971617
C3    C     C_R   0.646702 0.023021 0.356461 0.966573
C4    C     C_R   0.353347 0.976986 0.643595 0.995185
O9    O     O_R   0.663490 0.691490 0.155490 -0.589020
O10   O     O_R   0.336510 0.308510 0.844510 -0.553034
O11   O     O_R   0.836510 0.191490 0.344510 -0.542280
O12   O     O_R   0.163490 0.808510 0.655490 -0.542684
O13   O     O_R   0.671770 0.863400 0.325740 -0.563749
O14   O     O_R   0.328230 0.136600 0.674260 -0.571235
O15   O     O_R   0.828230 0.363400 0.174260 -0.573992
O16   O     O_R   0.171770 0.636600 0.825740 -0.580547
C5    C     C_R   0.636235 0.523044 0.133052 1.121877
C6    C     C_R   0.363145 0.477507 0.867617 1.045260
C7    C     C_R   0.863340 0.022769 0.367415 1.074714
C8    C     C_R   0.136657 0.977231 0.632587 1.067825
O17   O     O_3   0.752910 0.528900 0.305870 -0.256597
O18   O     O_3   0.247090 0.471100 0.694130 -0.262034
O19   O     O_3   0.747090 0.028900 0.194130 -0.293142
O20   O     O_3   0.252910 0.971100 0.805870 -0.262339
V1    V     V_3+5 0.749460 0.803130 0.239640 1.248526
V2    V     V_3+5 0.250540 0.196870 0.760360 1.272850
V3    V     V_3+5 0.750540 0.303130 0.260360 1.264253
V4    V     V_3+5 0.249460 0.696870 0.739640 1.274618
C9    C     C_R   0.995598 0.142874 0.437027 0.525307
C10   C     C_R   0.004395 0.857132 0.562978 0.526956
C11   C     C_R   0.499261 0.627203 0.070177 0.473593
C12   C     C_R   0.502414 0.381044 0.927048 0.493823
C13   C     C_R   0.062618 0.131930 0.500228 0.197834
C14   C     C_R   0.937375 0.868077 0.499778 0.198745
C15   C     C_R   0.431097 0.610174 0.008638 0.204304
C16   C     C_R   0.569305 0.390767 0.990955 0.158726
C17   C     C_R   0.067855 0.987341 0.563205 -0.542409
C18   C     C_R   0.932139 0.012662 0.436799 -0.546193
C19   C     C_R   0.432739 0.488917 0.935931 -0.528923
C20   C     C_R   0.567849 0.514458 0.063077 -0.533568
C21   C     C_1   0.416120 0.986223 0.581567 -0.251395
C22   C     C_1   0.584014 0.013846 0.418593 -0.227885
C23   C     C_1   0.083962 0.486137 0.918537 -0.267083
C24   C     C_1   0.916085 0.513881 0.081522 -0.258856
C25   C     C_1   0.468937 0.994847 0.530250 0.074865
C26   C     C_1   0.531247 0.005294 0.469977 0.084337
C27   C     C_1   0.031171 0.494757 0.969887 0.072136
C28   C     C_1   0.968868 0.505257 0.030165 0.071405
O21   O     O_3   0.992405 0.283167 0.375011 -0.557644
C29   C     C_3   0.030027 0.221577 0.300505 -0.097235
H1    H     H_    0.026933 0.333866 0.250752 0.153227
H2    H     H_    0.998463 0.099428 0.269535 0.080967
H3    H     H_    0.094925 0.189299 0.317426 0.155728
O22   O     O_3   0.007586 0.716844 0.624996 -0.555952
C30   C     C_3   0.969947 0.778427 0.699493 -0.107281
H4    H     H_    0.001486 0.900618 0.730454 0.082623
H5    H     H_    0.973058 0.666160 0.749258 0.154687
H6    H     H_    0.905044 0.810636 0.682562 0.151230
O23   O     O_3   0.495670 0.740502 0.143161 -0.600895
C31   C     C_3   0.510475 0.924665 0.118533 -0.018267
H7    H     H_    0.566569 0.937787 0.083813 0.151387
H8    H     H_    0.518662 0.010028 0.179171 0.122746
H9    H     H_    0.458590 0.982641 0.076941 0.159465
O24   O     O_3   0.504786 0.262476 0.855936 -0.577558
C32   C     C_3   0.537210 0.358373 0.786256 -0.086403
H10   H     H_    0.600048 0.405579 0.805088 0.154115
H11   H     H_    0.498601 0.477737 0.763905 0.086289
H12   H     H_    0.539341 0.262919 0.729426 0.154685
N1    N     N_R   0.126753 0.264453 0.497077 0.264492
O25   O     O_R   0.110458 0.439827 0.490098 -0.308090
O26   O     O_R   0.200844 0.209094 0.492819 -0.410910
N2    N     N_R   0.873237 0.735563 0.502930 0.263820
O27   O     O_R   0.799151 0.790933 0.507211 -0.419482
O28   O     O_R   0.889529 0.560184 0.509892 -0.311617
N3    N     N_R   0.358239 0.705990 0.024753 0.241566
O29   O     O_R   0.336293 0.850882 0.978333 -0.375214
O30   O     O_R   0.322421 0.669461 0.095634 -0.354366
N4    N     N_R   0.639904 0.280942 0.979543 0.254161
O31   O     O_R   0.711357 0.355671 0.988211 -0.422610
O32   O     O_R   0.632707 0.111363 0.951730 -0.369180

loop_
_geom_bond_atom_site_label_1
_geom_bond_atom_site_label_2
_geom_bond_distance
_ccdc_geom_bond_type
O17   V3    1.774716 S    
O1    C5    1.334584 A    
O19   V1    1.774966 S    
O13   V1    1.962014 S    
N1    O25   1.301344 A    
O3    C7    1.332696 A    
O15   V3    1.961873 S    
C14   N2    1.437493 S    
O21   C29   1.410832 S    
O7    C3    1.329768 A    
C7    C18   1.492622 S    
C9    C18   1.414035 A    
O9    V1    2.007720 S    
N2    O28   1.301343 A    
C14   C18   1.417254 A    
C24   C28   1.222961 T    
O4    C8    1.332698 A    
O1    V3    1.998966 S    
O2    V4    1.998965 S    
O3    V1    1.998602 S    
C1    O15   1.326808 A    
C2    O16   1.326776 A    
O24   C32   1.410564 S    
O2    C6    1.331540 A    
O14   V2    1.962013 S    
O11   C7    1.337320 A    
C32   H11   1.113194 S    
C30   H4    1.112890 S    
O12   C8    1.337325 A    
C8    C17   1.492633 S    
N1    O26   1.301384 A    
C10   C17   1.414041 A    
O10   V2    2.007719 S    
O5    V1    1.978184 S    
C9    O21   1.384670 S    
C29   H2    1.112884 S    
C30   H5    1.109348 S    
O7    V3    1.977904 S    
C27   C28   1.440035 S    
O8    V4    1.977902 S    
C31   H9    1.109305 S    
C16   N4    1.439689 S    
C12   C16   1.416903 A    
N2    O27   1.301391 A    
N3    O30   1.300718 A    
O18   V4    1.774715 S    
C15   C19   1.414156 A    
O22   C30   1.410838 S    
C9    C13   1.412353 A    
N3    O29   1.300417 A    
C15   N3    1.433943 S    
C32   H12   1.109648 S    
C11   C15   1.414151 A    
O5    C1    1.329883 A    
C5    C20   1.493035 S    
C6    C19   1.492049 S    
C21   C25   1.222952 T    
O8    C4    1.329878 A    
O9    C5    1.335638 A    
C11   C20   1.413451 A    
O6    V2    1.978186 S    
N4    O31   1.301260 A    
N4    O32   1.301206 A    
O16   V4    1.961874 S    
C13   N1    1.437500 S    
C29   H1    1.109348 S    
C3    O13   1.326829 A    
C30   H6    1.112700 S    
C10   C14   1.412355 A    
C4    C21   1.464172 S    
C12   C19   1.412451 A    
O6    C2    1.329932 A    
C23   C27   1.222979 T    
C12   O24   1.384116 S    
O11   V3    2.008379 S    
O12   V4    2.008379 S    
C22   C26   1.222981 T    
C31   H7    1.112272 S    
O10   C6    1.338412 A    
O20   V2    1.774965 S    
C13   C17   1.417264 A    
C32   H10   1.113290 S    
O23   C31   1.412419 S    
C16   C20   1.418006 A    
C1    C24   1.464204 S    
C25   C26   1.440026 S    
C4    O14   1.326746 A    
C2    C23   1.464234 S    
C10   O22   1.384669 S    
C3    C22   1.464190 S    
C11   O23   1.385656 S    
O4    V2    1.998604 S    
C31   H8    1.109356 S    
C29   H3    1.112699 S    
