data_mof_unit_4048.cif
_audit_creation_date              2012-12-11T14:01:08-0500
_audit_creation_method            fapswitch 2.2
_symmetry_space_group_name_H-M    P1
_symmetry_Int_Tables_number       1
_space_group_crystal_system       triclinic
_cell_length_a                    19.01893
_cell_length_b                    10.976461
_cell_length_c                    18.769253
_cell_angle_alpha                 90.48405
_cell_angle_beta                  90.207099
_cell_angle_gamma                 89.930132
_cell_volume                      3918.11126179

loop_
_atom_site_label
_atom_site_type_symbol
_atom_type_description
_atom_site_fract_x
_atom_site_fract_y
_atom_site_fract_z
_atom_type_partial_charge
C1    C     C_R   0.272563 0.042543 0.853555 0.555259
C2    C     C_R   0.727469 0.042010 0.146462 0.557505
C3    C     C_R   0.772562 0.542550 0.853552 0.555277
C4    C     C_R   0.227470 0.542013 0.146464 0.557492
C5    C     C_R   0.476753 0.049271 0.076318 -0.088411
C6    C     C_R   0.502818 0.060360 0.930536 -0.081240
C7    C     C_R   0.976373 0.548987 0.076420 -0.088581
C8    C     C_R   0.002376 0.560481 0.930645 -0.081095
C9    C     C_R   0.974690 0.660876 0.041888 -0.127421
C10   C     C_R   0.989872 0.667006 0.969603 -0.125788
C11   C     C_R   0.475358 0.161137 0.041727 -0.127275
C12   C     C_R   0.490573 0.167050 0.969439 -0.125741
C13   C     C_2   0.249092 0.580346 0.920385 -0.112808
C14   C     C_2   0.750815 0.579039 0.079409 -0.112975
C15   C     C_2   0.749085 0.080336 0.920381 -0.112839
C16   C     C_2   0.250837 0.079014 0.079422 -0.112926
C17   C     C_2   0.249912 0.586237 0.077251 -0.106791
C18   C     C_2   0.750228 0.587303 0.923043 -0.106626
C19   C     C_2   0.749909 0.086222 0.077246 -0.106768
C20   C     C_2   0.250233 0.087265 0.923055 -0.106649
C21   C     C_2   0.294637 0.520648 0.037094 -0.164206
C22   C     C_2   0.704769 0.522548 0.962074 -0.165464
C23   C     C_2   0.794625 0.020616 0.037087 -0.164173
C24   C     C_2   0.204806 0.022451 0.962093 -0.165499
C25   C     C_2   0.303684 0.546077 0.961215 -0.162250
C26   C     C_2   0.695988 0.546578 0.038245 -0.162345
C27   C     C_2   0.803674 0.046041 0.961208 -0.162271
C28   C     C_2   0.196026 0.046455 0.038267 -0.162370
C29   C     C_2   0.486611 0.828268 0.571826 -0.089534
C30   C     C_2   0.488330 0.840207 0.415796 -0.111004
C31   C     C_2   0.986612 0.328268 0.571827 -0.089536
C32   C     C_2   0.988332 0.340207 0.415797 -0.111006
C33   C     C_2   0.468406 0.742422 0.451914 -0.165239
C34   C     C_2   0.454005 0.749065 0.527562 -0.147959
C35   C     C_2   0.968410 0.242421 0.451915 -0.165238
C36   C     C_2   0.954011 0.249061 0.527563 -0.147964
C37   C     C_2   0.246400 0.564718 0.583100 -0.110353
C38   C     C_2   0.745548 0.612259 0.430413 -0.092114
C39   C     C_2   0.746400 0.064718 0.583101 -0.110354
C40   C     C_2   0.245549 0.112258 0.430413 -0.092114
C41   C     C_2   0.237771 0.569274 0.428136 -0.099380
C42   C     C_2   0.743373 0.603037 0.585830 -0.105608
C43   C     C_2   0.737771 0.069273 0.428136 -0.099380
C44   C     C_2   0.243374 0.103036 0.585830 -0.105608
C45   C     C_R   0.472049 0.822908 0.852804 0.540544
C46   C     C_R   0.528807 0.821577 0.146608 0.536551
C47   C     C_R   0.972048 0.322927 0.852803 0.540593
C48   C     C_R   0.028825 0.321563 0.146599 0.536514
C49   C     C_2   0.182242 0.557212 0.471842 -0.150016
C50   C     C_2   0.782804 0.680584 0.549483 -0.164712
C51   C     C_2   0.682242 0.057212 0.471842 -0.150016
C52   C     C_2   0.282805 0.180582 0.549482 -0.164711
C53   C     C_2   0.186686 0.582203 0.547520 -0.163667
C54   C     C_2   0.770964 0.699858 0.474185 -0.148793
C55   C     C_2   0.686686 0.082203 0.547520 -0.163668
C56   C     C_2   0.270965 0.199857 0.474185 -0.148795
C57   C     C_R   0.261023 0.636431 0.851433 0.552539
C58   C     C_R   0.739042 0.635755 0.148628 0.552954
C59   C     C_R   0.761021 0.136428 0.851432 0.552531
C60   C     C_R   0.239046 0.135747 0.148633 0.552965
C61   C     C_R   0.271001 0.047941 0.649617 0.556753
C62   C     C_R   0.726158 0.042677 0.353754 0.548516
C63   C     C_R   0.771001 0.547941 0.649617 0.556757
C64   C     C_R   0.226158 0.542677 0.353754 0.548511
C65   C     C_R   0.468089 0.822971 0.646300 0.550136
C66   C     C_R   0.527858 0.824896 0.350721 0.550871
C67   C     C_R   0.968090 0.322971 0.646300 0.550148
C68   C     C_R   0.027858 0.324896 0.350721 0.550868
C69   C     C_R   0.259954 0.633787 0.647405 0.553215
C70   C     C_R   0.738397 0.642233 0.356037 0.551788
C71   C     C_R   0.759954 0.133787 0.647405 0.553210
C72   C     C_R   0.238397 0.142232 0.356037 0.551787
C73   C     C_R   0.502981 0.827988 0.073347 0.003537
C74   C     C_R   0.502196 0.833667 0.924383 -0.001968
C75   C     C_R   0.003066 0.327925 0.073319 0.003622
C76   C     C_R   0.002225 0.333782 0.924364 -0.002036
C77   C     C_R   0.492937 0.940812 0.038585 0.024848
C78   C     C_R   0.499578 0.945101 0.963576 0.026205
C79   C     C_R   0.992781 0.440714 0.038620 0.024825
C80   C     C_R   0.999394 0.445150 0.963614 0.026246
C81   C     C_R   0.511425 0.723832 0.960226 -0.154235
C82   C     C_R   0.510011 0.720644 0.033021 -0.149859
C83   C     C_R   0.011717 0.223980 0.960144 -0.154334
C84   C     C_R   0.010350 0.220698 0.032940 -0.149755
Cr1   Cr    Cr6+3 0.230530 0.836340 0.748870 1.018843
Cr2   Cr    Cr6+3 0.769470 0.836340 0.251130 1.015654
Cr3   Cr    Cr6+3 0.730530 0.336340 0.748870 1.018834
Cr4   Cr    Cr6+3 0.269470 0.336340 0.251130 1.015662
Cr5   Cr    Cr6+3 0.387420 0.989430 0.750820 1.016886
Cr6   Cr    Cr6+3 0.612580 0.989430 0.249180 1.019231
Cr7   Cr    Cr6+3 0.887420 0.489430 0.750820 1.016805
Cr8   Cr    Cr6+3 0.112580 0.489430 0.249180 1.019292
Cr9   Cr    Cr6+3 0.385640 0.677860 0.749230 1.015972
Cr10  Cr    Cr6+3 0.614360 0.677860 0.250770 1.021985
Cr11  Cr    Cr6+3 0.885640 0.177860 0.749230 1.015983
Cr12  Cr    Cr6+3 0.114360 0.177860 0.250770 1.021993
H1    H     H_    0.515530 0.637611 0.931937 0.136976
H2    H     H_    0.517570 0.632589 0.057569 0.136461
H3    H     H_    0.015993 0.137843 0.931803 0.136987
H4    H     H_    0.018118 0.132675 0.057444 0.136502
H5    H     H_    0.141798 0.626839 0.572180 0.153160
H6    H     H_    0.789062 0.786500 0.453425 0.156686
H7    H     H_    0.641798 0.126839 0.572180 0.153159
H8    H     H_    0.289063 0.286498 0.453425 0.156687
H9    H     H_    0.290513 0.588992 0.447267 0.084145
H10   H     H_    0.694934 0.566523 0.563419 0.110998
H11   H     H_    0.790513 0.088992 0.447267 0.084146
H12   H     H_    0.194934 0.066522 0.563419 0.110998
H13   H     H_    0.289527 0.513183 0.559750 0.095302
H14   H     H_    0.726856 0.525016 0.449401 0.095435
H15   H     H_    0.789527 0.013183 0.559750 0.095302
H16   H     H_    0.226856 0.025015 0.449400 0.095436
H17   H     H_    0.463763 0.048354 0.132361 0.128181
H18   H     H_    0.516514 0.069608 0.875005 0.130597
H19   H     H_    0.963426 0.547891 0.132470 0.128146
H20   H     H_    0.016067 0.569938 0.875129 0.130713
H21   H     H_    0.962776 0.743281 0.071575 0.110830
H22   H     H_    0.991202 0.754466 0.943422 0.106055
H23   H     H_    0.463636 0.243685 0.071369 0.110656
H24   H     H_    0.492119 0.254470 0.943211 0.106031
H25   H     H_    0.324201 0.445195 0.059394 0.151734
H26   H     H_    0.674521 0.448383 0.938657 0.153165
H27   H     H_    0.824182 0.945156 0.059388 0.151708
H28   H     H_    0.174582 0.948256 0.938676 0.153202
H29   H     H_    0.356468 0.539479 0.939572 0.154330
H30   H     H_    0.643219 0.540742 0.059844 0.149563
H31   H     H_    0.856455 0.039420 0.939563 0.154365
H32   H     H_    0.143268 0.040512 0.059878 0.149440
H33   H     H_    0.222110 0.663725 0.054940 0.113479
H34   H     H_    0.778633 0.663754 0.946427 0.113267
H35   H     H_    0.722111 0.163715 0.054936 0.113482
H36   H     H_    0.278618 0.163740 0.946436 0.113262
H37   H     H_    0.196170 0.583355 0.942039 0.111676
H38   H     H_    0.803750 0.581132 0.057783 0.113897
H39   H     H_    0.696164 0.083362 0.942035 0.111715
H40   H     H_    0.303768 0.081181 0.057788 0.113850
H41   H     H_    0.468129 0.652387 0.427382 0.153606
H42   H     H_    0.418969 0.679507 0.548064 0.151747
H43   H     H_    0.968132 0.152386 0.427381 0.153609
H44   H     H_    0.918979 0.179499 0.548065 0.151750
H45   H     H_    0.484546 0.931014 0.439017 0.103914
H46   H     H_    0.521584 0.899159 0.553136 0.086102
H47   H     H_    0.984547 0.431013 0.439018 0.103913
H48   H     H_    0.021581 0.399164 0.553136 0.086105
O1    O     O_R   0.215090 0.709860 0.828130 -0.522779
O2    O     O_R   0.784910 0.709860 0.171870 -0.521917
O3    O     O_R   0.715090 0.209860 0.828130 -0.522793
O4    O     O_R   0.284910 0.209860 0.171870 -0.521881
O5    O     O_R   0.445660 0.919250 0.676780 -0.497499
O6    O     O_R   0.554340 0.919250 0.323220 -0.508890
O7    O     O_R   0.945660 0.419250 0.676780 -0.497490
O8    O     O_R   0.054340 0.419250 0.323220 -0.508889
O9    O     O_R   0.456260 0.718170 0.670000 -0.515739
O10   O     O_R   0.543740 0.718170 0.330000 -0.510588
O11   O     O_R   0.956260 0.218170 0.670000 -0.515745
O12   O     O_R   0.043740 0.218170 0.330000 -0.510581
O13   O     O_R   0.320940 0.626760 0.674370 -0.508037
O14   O     O_R   0.679060 0.626760 0.325630 -0.493582
O15   O     O_R   0.820940 0.126760 0.674370 -0.508041
O16   O     O_R   0.179060 0.126760 0.325630 -0.493581
O17   O     O_3   0.334530 0.834540 0.749640 -0.244478
O18   O     O_3   0.665470 0.834540 0.250360 -0.247442
O19   O     O_3   0.834530 0.334540 0.749640 -0.244464
O20   O     O_3   0.165470 0.334540 0.250360 -0.247459
O21   O     O_R   0.236990 0.958390 0.823710 -0.500036
O22   O     O_R   0.763010 0.958390 0.176290 -0.498245
O23   O     O_R   0.736990 0.458390 0.823710 -0.500018
O24   O     O_R   0.263010 0.458390 0.176290 -0.498246
O25   O     O_R   0.332380 0.074750 0.830850 -0.513506
O26   O     O_R   0.667620 0.074750 0.169150 -0.509201
O27   O     O_R   0.832380 0.574750 0.830850 -0.513581
O28   O     O_R   0.167620 0.574750 0.169150 -0.509180
O29   O     O_R   0.445800 0.917770 0.825070 -0.508714
O30   O     O_R   0.554200 0.917770 0.174930 -0.504945
O31   O     O_R   0.945800 0.417770 0.825070 -0.508821
O32   O     O_R   0.054200 0.417770 0.174930 -0.504883
O33   O     O_R   0.456410 0.716580 0.829970 -0.522314
O34   O     O_R   0.543590 0.716580 0.170030 -0.526337
O35   O     O_R   0.956410 0.216580 0.829970 -0.522248
O36   O     O_R   0.043590 0.216580 0.170030 -0.526361
O37   O     O_R   0.321080 0.625290 0.822650 -0.496359
O38   O     O_R   0.678920 0.625290 0.177350 -0.495671
O39   O     O_R   0.821080 0.125290 0.822650 -0.496348
O40   O     O_R   0.178920 0.125290 0.177350 -0.495693
O41   O     O_R   0.214930 0.711450 0.668160 -0.512292
O42   O     O_R   0.785070 0.711450 0.331840 -0.517790
O43   O     O_R   0.714930 0.211450 0.668160 -0.512296
O44   O     O_R   0.285070 0.211450 0.331840 -0.517792
O45   O     O_R   0.236850 0.959870 0.675420 -0.498773
O46   O     O_R   0.763150 0.959870 0.324580 -0.503762
O47   O     O_R   0.736850 0.459870 0.675420 -0.498770
O48   O     O_R   0.263150 0.459870 0.324580 -0.503768
O49   O     O_R   0.332230 0.076350 0.670880 -0.514619
O50   O     O_R   0.667770 0.076350 0.329120 -0.512497
O51   O     O_R   0.832230 0.576350 0.670880 -0.514622
O52   O     O_R   0.167770 0.576350 0.329120 -0.512493
H49   H     H_    0.130110 0.536958 0.450916 0.153055
H50   H     H_    0.829007 0.723008 0.573152 0.152615
H51   H     H_    0.630110 0.036957 0.450916 0.153055
H52   H     H_    0.329007 0.223006 0.573152 0.152616

loop_
_geom_bond_atom_site_label_1
_geom_bond_atom_site_label_2
_ccdc_geom_bond_type
C16   C28   D    
C69   O41   A    
Cr3   O19   S    
C38   C70   S    
C60   O40   A    
C37   C69   S    
C9    H21   S    
C46   O34   A    
C19   C23   D    
C35   C36   S    
Cr2   O22   S    
Cr5   O29   S    
Cr6   O6    S    
C11   H23   S    
Cr10  O38   S    
C57   O37   A    
C81   C82   A    
C50   H50   S    
C3    O23   A    
C40   H16   S    
C49   H49   S    
C77   C78   A    
Cr8   O32   S    
C31   C67   S    
C50   C54   S    
C30   H45   S    
C41   H9    S    
Cr6   O18   S    
Cr11  O15   S    
C7    C79   A    
Cr1   O1    S    
C47   C76   S    
C5    C11   A    
C45   O29   A    
C31   C36   D    
C16   C60   S    
C49   C53   S    
C75   C84   A    
C6    C78   A    
C15   H39   S    
Cr1   O45   S    
Cr3   O3    S    
C55   H7    S    
C24   H28   S    
Cr1   O17   S    
C3    C18   S    
C67   O11   A    
C26   H30   S    
C7    H19   S    
C31   H48   S    
C25   H29   S    
C6    H18   S    
C32   H47   S    
C65   O9    A    
C35   H43   S    
C12   H24   S    
C27   H31   S    
C39   C55   D    
C20   C24   D    
C53   H5    S    
C40   C56   D    
Cr6   O50   S    
Cr8   O8    S    
C69   O13   A    
C46   O30   A    
Cr2   O18   S    
Cr9   O17   S    
C38   H14   S    
C4    O28   A    
C9    C10   A    
Cr10  O18   S    
C37   H13   S    
Cr5   O17   S    
C45   O33   A    
C32   C68   S    
C37   C53   D    
Cr8   O20   S    
Cr5   O5    S    
C28   H32   S    
Cr10  O14   S    
Cr10  O34   S    
C61   O45   A    
C82   H2    S    
C48   C75   S    
Cr7   O19   S    
Cr9   O37   S    
Cr12  O40   S    
Cr2   O2    S    
C76   C83   A    
C41   C49   D    
C64   O48   A    
C22   H26   S    
C44   H12   S    
C19   H35   S    
C14   C58   S    
Cr3   O23   S    
Cr2   O46   S    
C67   O7    A    
C84   H4    S    
C32   C35   D    
C76   C80   A    
C56   H8    S    
C62   O46   A    
C21   C25   S    
C33   H41   S    
C66   O10   A    
Cr9   O33   S    
Cr3   O43   S    
C14   H38   S    
C51   C55   S    
Cr4   O24   S    
Cr4   O20   S    
C17   H33   S    
C29   C34   D    
C34   H42   S    
C14   C26   D    
Cr12  O20   S    
C45   C74   S    
C70   O14   A    
C20   H36   S    
C47   O35   A    
C30   C33   D    
C68   O8    A    
Cr11  O19   S    
C10   H22   S    
Cr7   O51   S    
C57   O1    A    
C15   C27   D    
C83   C84   A    
C38   C54   D    
C1    O21   A    
Cr10  O10   S    
Cr5   O49   S    
Cr6   O26   S    
C33   C34   S    
Cr4   O4    S    
Cr7   O31   S    
C43   H11   S    
Cr12  O36   S    
Cr9   O13   S    
C36   H44   S    
C30   C66   S    
C51   H51   S    
C42   C50   D    
C29   C65   S    
C4    C17   S    
Cr11  O35   S    
Cr12  O16   S    
C2    O26   A    
Cr2   O42   S    
C23   C27   S    
C3    O27   A    
C72   O44   A    
C63   O51   A    
C18   H34   S    
C62   O50   A    
C74   C81   A    
C5    C77   A    
C16   H40   S    
C6    C12   A    
C61   O49   A    
C73   C82   A    
C48   O36   A    
Cr3   O47   S    
Cr4   O48   S    
C2    O22   A    
C1    C20   S    
C15   C59   S    
C40   C72   S    
Cr11  O39   S    
C5    H17   S    
C2    C19   S    
C18   C22   D    
C4    O24   A    
C13   H37   S    
C54   H6    S    
C24   C28   S    
C71   O43   A    
Cr8   O52   S    
C68   O12   A    
C44   C52   D    
C23   H27   S    
C11   C12   A    
C58   O2    A    
C66   O6    A    
C44   C61   S    
C71   O15   A    
Cr6   O30   S    
C72   O16   A    
Cr7   O27   S    
C58   O38   A    
Cr1   O21   S    
Cr9   O9    S    
C70   O42   A    
Cr5   O25   S    
Cr1   O41   S    
C52   H52   S    
Cr7   O7    S    
C39   H15   S    
C43   C51   D    
Cr12  O12   S    
C81   H1    S    
C13   C25   D    
Cr8   O28   S    
C63   O47   A    
C29   H46   S    
C64   O52   A    
C1    O25   A    
Cr11  O11   S    
C65   O5    A    
C17   C21   D    
C8    H20   S    
C22   C26   S    
C79   C80   A    
C42   H10   S    
C7    C9    A    
Cr4   O44   S    
C13   C57   S    
C73   C77   A    
C8    C10   A    
C74   C78   A    
C8    C80   A    
C39   C71   S    
C59   O39   A    
C21   H25   S    
C83   H3    S    
C60   O4    A    
C41   C64   S    
C75   C79   A    
C42   C63   S    
C46   C73   S    
C47   O31   A    
C52   C56   S    
C43   C62   S    
C48   O32   A    
C59   O3    A    
