data_mof_unit_1042.cif
_audit_creation_date              2012-12-10T19:44:33-0500
_audit_creation_method            fapswitch 2.2
_symmetry_space_group_name_H-M    P1
_symmetry_Int_Tables_number       1
_space_group_crystal_system       triclinic
_cell_length_a                    8.639474
_cell_length_b                    15.007016
_cell_length_c                    14.140017
_cell_angle_alpha                 90.01043
_cell_angle_beta                  98.536541
_cell_angle_gamma                 89.988471
_cell_volume                      1812.98135649

loop_
_atom_site_label
_atom_site_type_symbol
_atom_type_description
_atom_site_fract_x
_atom_site_fract_y
_atom_site_fract_z
_atom_type_partial_charge
C1    C     C_R   0.500066 0.327680 0.500001 0.870982
C2    C     C_R   0.500034 0.672215 0.500008 0.807806
C3    C     C_R   0.554581 0.426167 0.109677 -0.283034
C4    C     C_R   0.548867 0.575414 0.899623 -0.293554
C5    C     C_R   0.554576 0.427669 0.209157 0.051900
C6    C     C_R   0.549257 0.573661 0.800154 -0.003462
C7    C     C_R   0.445048 0.572314 0.199382 -0.003008
C8    C     C_R   0.451286 0.426386 0.791390 0.050442
C9    C     C_R   0.445424 0.574099 0.099916 -0.292192
C10   C     C_R   0.451548 0.424867 0.890894 -0.283678
C11   C     C_R   0.500131 0.500198 0.053252 0.140231
C12   C     C_R   0.500121 0.500196 0.946808 0.140114
C13   C     C_R   0.201786 0.505386 0.475416 0.891316
C14   C     C_R   0.798189 0.505419 0.524610 0.892344
C15   C     C_2   0.038321 0.519024 0.461703 0.118807
C16   C     C_2   0.961724 0.518575 0.538538 0.118650
C17   C     C_R   0.549889 0.093917 0.585294 -0.181874
C18   C     C_R   0.561722 0.905595 0.427814 -0.184069
C19   C     C_R   0.548749 0.185901 0.585403 -0.194929
C20   C     C_R   0.560549 0.813616 0.427436 -0.216701
C21   C     C_R   0.500360 0.231841 0.500020 -0.021089
C22   C     C_R   0.500325 0.767837 0.500045 -0.009442
C23   C     C_R   0.452346 0.185790 0.414652 -0.195253
C24   C     C_R   0.440481 0.813762 0.572719 -0.216991
C25   C     C_R   0.451807 0.093804 0.414808 -0.181841
C26   C     C_R   0.439921 0.905742 0.572421 -0.183596
C27   C     C_R   0.500962 0.047869 0.500068 0.116699
C28   C     C_R   0.500943 0.951663 0.500126 0.120452
H1    H     H_    0.590136 0.058749 0.651283 0.129044
H2    H     H_    0.611154 0.940739 0.372412 0.129881
H3    H     H_    0.587401 0.220944 0.651709 0.151082
H4    H     H_    0.608505 0.778386 0.371464 0.145291
H5    H     H_    0.413475 0.220745 0.348330 0.151615
H6    H     H_    0.392309 0.778649 0.628665 0.143981
H7    H     H_    0.411712 0.058548 0.348845 0.129129
H8    H     H_    0.390653 0.941002 0.627831 0.129792
H9    H     H_    0.599223 0.367983 0.077349 0.137890
H10   H     H_    0.588777 0.634742 0.939534 0.138726
H11   H     H_    0.598627 0.370742 0.251728 0.131876
H12   H     H_    0.588782 0.631606 0.765108 0.131221
H13   H     H_    0.400973 0.629170 0.234099 0.130883
H14   H     H_    0.411717 0.368376 0.749281 0.131459
H15   H     H_    0.400872 0.632351 0.059602 0.138579
H16   H     H_    0.411608 0.365598 0.923634 0.137742
N1    N     N_R   0.500000 0.499980 0.252470 -0.089164
N2    N     N_R   0.500000 0.500020 0.747530 -0.088091
O1    O     O_R   0.500010 0.369070 0.579480 -0.633259
O2    O     O_R   0.499990 0.630930 0.420520 -0.644257
O3    O     O_R   0.500010 0.369060 0.420520 -0.633112
O4    O     O_R   0.499990 0.630940 0.579480 -0.645421
O5    O     O_R   0.271750 0.500000 0.560890 -0.581156
O6    O     O_R   0.728250 0.500000 0.439110 -0.581020
O7    O     O_R   0.271750 0.499990 0.401930 -0.594749
O8    O     O_R   0.728250 0.500010 0.598070 -0.594461
Zn1   Zn    Zn3+2 0.500000 0.500010 0.606140 0.958907
Zn2   Zn    Zn3+2 0.500000 0.499990 0.393860 0.958951
O9    O     O_3   0.963585 0.525459 0.367950 -0.579133
C29   C     C_3   0.959234 0.616174 0.340925 0.124406
H17   H     H_    0.078047 0.646953 0.353492 0.116844
H18   H     H_    0.879731 0.654181 0.381405 0.118763
C30   C     C_3   0.897701 0.623495 0.234755 -0.785598
H19   H     H_    0.779353 0.593563 0.219264 0.265873
H20   H     H_    0.890675 0.694663 0.213067 0.185329
H21   H     H_    0.977366 0.588020 0.192606 0.253537
O10   O     O_3   0.036405 0.523041 0.632446 -0.578875
C31   C     C_3   0.041784 0.613184 0.661677 0.125466
H22   H     H_    0.924161 0.645343 0.647591 0.115173
H23   H     H_    0.124965 0.651196 0.623944 0.121601
C32   C     C_3   0.097889 0.617941 0.768684 -0.785427
H24   H     H_    0.214305 0.585929 0.785915 0.266759
H25   H     H_    0.107243 0.688624 0.792061 0.185364
H26   H     H_    0.013687 0.583053 0.808061 0.253528

loop_
_geom_bond_atom_site_label_1
_geom_bond_atom_site_label_2
_ccdc_geom_bond_type
N2    Zn1   S    
C2    C22   S    
C30   H21   S    
C31   H23   S    
C11   C12   S    
C14   O6    A    
C1    C21   S    
C18   H2    S    
C4    C12   A    
O3    Zn2   S    
C17   H1    S    
C6    H12   S    
C2    O2    A    
C26   C28   A    
O4    Zn1   S    
N1    Zn2   S    
C17   C27   A    
C9    C11   A    
C19   H3    S    
C3    C5    A    
C29   C30   S    
C13   C15   S    
C31   H22   S    
O5    Zn1   S    
C23   C25   A    
C15   O9    S    
C24   C26   A    
C6    N2    A    
O9    C29   S    
C30   H19   S    
C10   C12   A    
C25   H7    S    
C7    N1    A    
C22   C24   A    
O1    Zn1   S    
C14   O8    A    
C8    H14   S    
C29   H18   S    
C13   O7    A    
C5    H11   S    
C21   C23   A    
C1    O1    A    
C32   H24   S    
C8    C10   A    
C14   C16   S    
C9    H15   S    
C4    C6    A    
C3    C11   A    
C10   H16   S    
C15   C16   D    
C31   C32   S    
C7    C9    A    
C32   H26   S    
C18   C28   A    
C13   O5    A    
C3    H9    S    
C18   C20   A    
C32   H25   S    
O10   C31   S    
C20   H4    S    
O7    Zn2   S    
C26   H8    S    
C27   C28   S    
O2    Zn2   S    
O8    Zn1   S    
C17   C19   A    
C16   O10   S    
C2    O4    A    
C8    N2    A    
C19   C21   A    
C29   H17   S    
C4    H10   S    
C5    N1    A    
C30   H20   S    
C24   H6    S    
O6    Zn2   S    
C7    H13   S    
C20   C22   A    
C23   H5    S    
C25   C27   A    
C1    O3    A    
