data_mof_unit_479.cif
_audit_creation_date              2012-10-26T18:33:35-0400
_audit_creation_method            fapswitch 2.2
_symmetry_space_group_name_H-M    P1
_symmetry_Int_Tables_number       1
_space_group_crystal_system       triclinic
_cell_length_a                    15.018322
_cell_length_b                    13.718556
_cell_length_c                    10.762584
_cell_angle_alpha                 89.73878
_cell_angle_beta                  87.882601
_cell_angle_gamma                 90.341828
_cell_volume                      2215.83307479

loop_
_atom_site_label
_atom_site_type_symbol
_atom_type_description
_atom_site_fract_x
_atom_site_fract_y
_atom_site_fract_z
_atom_type_partial_charge
C1    C     C_R   0.328894 0.499622 0.502703 0.561934
C2    C     C_R   0.040934 0.563988 0.712307 -0.124008
C3    C     C_R   0.091005 0.530402 0.608773 0.026188
C4    C     C_R   0.500274 0.499939 0.259536 0.569371
C5    C     C_R   0.047409 0.493195 0.504718 0.021647
C6    C     C_R   0.097325 0.456734 0.401065 0.027539
C7    C     C_R   0.053428 0.421422 0.296944 0.250530
C8    C     C_R   0.960475 0.423294 0.296521 -0.131239
C9    C     C_R   0.183962 0.534054 0.606728 -0.134596
C10   C     C_R   0.232758 0.498005 0.504039 0.007069
C11   C     C_R   0.190198 0.457791 0.403131 -0.065698
C12   C     C_3   0.568753 0.572272 0.922818 -0.245522
C13   C     C_R   0.431370 0.791842 0.558746 0.075053
C14   C     C_R   0.431130 0.206854 0.558113 0.065666
C15   C     C_R   0.569759 0.794431 0.446642 0.041440
C16   C     C_R   0.569217 0.206920 0.445401 0.077567
C17   C     C_R   0.573757 0.897269 0.452090 -0.053070
C18   C     C_R   0.572861 0.104044 0.449962 -0.050971
C19   C     C_R   0.671403 0.500337 0.499076 0.583828
C20   C     C_R   0.501294 0.948214 0.508090 -0.027247
C21   C     C_R   0.500599 0.051724 0.506373 -0.030553
C22   C     C_R   0.429634 0.895286 0.565010 0.004073
C23   C     C_R   0.817908 0.475534 0.390461 0.254499
C24   C     C_R   0.427578 0.103285 0.559764 0.004145
C25   C     C_R   0.648316 0.950029 0.402637 0.272502
C26   C     C_R   0.647502 0.052883 0.400489 0.284189
C27   C     C_R   0.354973 0.050426 0.616486 -0.007849
C28   C     C_R   0.357613 0.946783 0.623263 -0.007143
C29   C     C_R   0.498958 0.499709 0.740097 0.541323
C30   C     C_3   0.403859 0.524461 0.075757 -0.112081
C31   C     C_3   0.523795 0.395278 0.068973 -0.107688
C32   C     C_3   0.405283 0.528329 0.931301 -0.250662
C33   C     C_3   0.520743 0.395694 0.926184 -0.241217
C34   C     C_R   0.768279 0.500828 0.498665 0.012045
C35   C     C_3   0.567027 0.574788 0.065394 -0.264187
C36   C     C_3   0.499190 0.499218 0.121032 -0.000935
C37   C     C_3   0.498336 0.498963 0.877461 0.021264
C38   C     C_2   0.367142 0.618433 0.129224 0.240246
C39   C     C_2   0.613724 0.358852 0.107701 0.254080
C40   C     C_3   0.108849 0.451955 0.101248 -0.019682
C41   C     C_3   0.160503 0.408691 0.990664 -0.353077
C42   C     C_3   0.777047 0.871283 0.448134 -0.021449
C43   C     C_3   0.872896 0.864887 0.397809 -0.356713
C44   C     C_3   0.777264 0.136575 0.428006 -0.016496
C45   C     C_R   0.811112 0.528571 0.606236 -0.192683
C46   C     C_3   0.842090 0.207963 0.364447 -0.341792
C47   C     C_2   0.275812 0.101913 0.670839 0.175436
C48   C     C_2   0.283052 0.893774 0.689440 0.181415
C49   C     C_3   0.800375 0.549718 0.201466 -0.040066
C50   C     C_3   0.756002 0.643829 0.246373 -0.386673
C51   C     C_R   0.904072 0.528563 0.608050 0.011979
C52   C     C_R   0.953955 0.494200 0.503507 0.004990
C53   C     C_R   0.910570 0.463308 0.396513 -0.041809
C54   C     C_R   0.947993 0.562052 0.712489 -0.122695
Cu1   Cu    Cu3+1 0.499990 0.597420 0.500010 0.951908
Cu2   Cu    Cu3+1 0.499990 0.402580 0.500010 0.974857
H1    H     H_    0.073656 0.591871 0.792999 0.111855
H2    H     H_    0.472322 0.342243 0.104818 0.158039
H3    H     H_    0.353675 0.477730 0.896667 0.098531
H4    H     H_    0.469055 0.342538 0.897650 0.130373
H5    H     H_    0.388560 0.602437 0.896719 0.145602
H6    H     H_    0.585198 0.371365 0.882230 0.128857
H7    H     H_    0.551260 0.649668 0.098120 0.130237
H8    H     H_    0.634037 0.558138 0.096523 0.113585
H9    H     H_    0.555350 0.646898 0.887328 0.150659
H10   H     H_    0.636316 0.551163 0.886622 0.101715
H11   H     H_    0.771911 0.551382 0.687562 0.100666
H12   H     H_    0.218501 0.563480 0.685155 0.110520
H13   H     H_    0.910479 0.588210 0.793453 0.101395
H14   H     H_    0.398600 0.687690 0.105061 0.131153
H15   H     H_    0.674175 0.398200 0.080772 0.124265
H16   H     H_    0.145775 0.517415 0.132959 0.173967
H17   H     H_    0.042210 0.474505 0.069500 0.115926
H18   H     H_    0.122816 0.346396 0.952569 0.173601
H19   H     H_    0.170758 0.464834 0.916778 0.095328
H20   H     H_    0.226440 0.382643 0.019724 0.155042
H21   H     H_    0.755829 0.797916 0.482014 0.123450
H22   H     H_    0.775798 0.921174 0.529767 0.105529
H23   H     H_    0.230045 0.429854 0.325223 0.168786
H24   H     H_    0.897385 0.938137 0.367916 0.167785
H25   H     H_    0.916070 0.836684 0.471274 0.105244
H26   H     H_    0.877326 0.815159 0.316810 0.158071
H27   H     H_    0.816178 0.075423 0.465463 0.137283
H28   H     H_    0.743069 0.174890 0.507205 0.101686
H29   H     H_    0.804750 0.269058 0.323493 0.204125
H30   H     H_    0.888465 0.237488 0.433157 0.110492
H31   H     H_    0.881320 0.170714 0.289366 0.174467
H32   H     H_    0.247729 0.080025 0.761118 0.117958
H33   H     H_    0.214641 0.914727 0.674898 0.120163
H34   H     H_    0.927565 0.394534 0.216483 0.154766
H35   H     H_    0.780039 0.534040 0.105662 0.124505
H36   H     H_    0.873534 0.562035 0.192659 0.121524
H37   H     H_    0.683979 0.631771 0.266423 0.173287
H38   H     H_    0.786807 0.668784 0.332703 0.141450
H39   H     H_    0.764957 0.701615 0.174373 0.125111
H40   H     H_    0.377574 0.748410 0.598887 0.182302
H41   H     H_    0.380016 0.249429 0.604753 0.179079
H42   H     H_    0.622273 0.754194 0.399587 0.146114
H43   H     H_    0.622726 0.248481 0.400788 0.205631
H44   H     H_    0.357794 0.464525 0.107095 0.129532
N1    N     N_R   0.499930 0.743810 0.499950 -0.260731
N2    N     N_R   0.499930 0.256190 0.499950 -0.267567
O1    O     O_R   0.370250 0.582280 0.500040 -0.487068
O2    O     O_2   0.619420 0.282587 0.165500 -0.480234
O3    O     O_3   0.100904 0.381486 0.197194 -0.557694
O4    O     O_3   0.721940 0.902356 0.351631 -0.539305
O5    O     O_3   0.717131 0.102359 0.339824 -0.504088
O6    O     O_2   0.238656 0.165464 0.612607 -0.511707
O7    O     O_2   0.297571 0.829949 0.765369 -0.532456
O8    O     O_3   0.775566 0.468655 0.278430 -0.577119
O9    O     O_R   0.370250 0.417720 0.500040 -0.506113
O10   O     O_R   0.499970 0.582270 0.317700 -0.499205
O11   O     O_R   0.499970 0.417730 0.317700 -0.473670
O12   O     O_R   0.629730 0.582260 0.499980 -0.529097
O13   O     O_R   0.629730 0.417740 0.499980 -0.499439
O14   O     O_R   0.500000 0.582270 0.682320 -0.509419
O15   O     O_R   0.500000 0.417730 0.682320 -0.520281
O16   O     O_2   0.301437 0.617365 0.199468 -0.523445

loop_
_geom_bond_atom_site_label_1
_geom_bond_atom_site_label_2
_ccdc_geom_bond_type
Cu1   Cu2   S    
C38   H14   S    
Cu1   O1    S    
Cu1   O10   S    
C18   C21   A    
Cu2   O15   S    
C35   C36   S    
C18   C26   A    
C24   C27   A    
C44   H27   S    
C4    C36   S    
C2    H1    S    
C39   O2    D    
C31   H2    S    
C32   H5    S    
C5    C6    A    
C50   H39   S    
C14   N2    A    
Cu1   O14   S    
C45   C51   A    
C30   H44   S    
C17   C20   A    
C40   H17   S    
C30   C38   S    
C14   C24   A    
C12   C37   S    
C49   C50   S    
C41   H18   S    
C33   H6    S    
C45   H11   S    
Cu2   O11   S    
C31   C33   S    
C5    C52   A    
C35   H8    S    
C9    C10   A    
C1    O1    A    
Cu2   O9    S    
C46   H29   S    
C48   O7    D    
C4    O10   A    
C22   C28   A    
C49   H35   S    
C44   C46   S    
C25   O4    S    
C23   C53   A    
C13   H40   S    
C51   C52   A    
C4    O11   A    
C7    C8    A    
C2    C54   A    
C6    C11   A    
C50   H38   S    
C19   O12   A    
C3    C5    A    
C25   C26   A    
C12   H10   S    
C33   C37   S    
C8    C53   A    
C3    C9    A    
C41   H19   S    
C19   O13   A    
C23   C34   A    
C7    O3    S    
C16   H43   S    
C34   C45   A    
C32   C37   S    
C15   N1    A    
C12   C35   S    
C42   O4    S    
C11   H23   S    
C16   N2    A    
C40   C41   S    
C29   O14   A    
C20   C22   A    
C42   H22   S    
C33   H4    S    
C48   H33   S    
C43   H25   S    
C8    H34   S    
C42   C43   S    
C49   H36   S    
C13   N1    A    
C52   C53   A    
C14   H41   S    
C46   H31   S    
C44   O5    S    
C27   C47   S    
C15   C17   A    
C23   O8    S    
C28   C48   S    
C40   H16   S    
C1    C10   S    
C44   H28   S    
C19   C34   S    
C26   O5    S    
C50   H37   S    
C6    C7    A    
Cu1   O12   S    
C12   H9    S    
Cu1   N1    S    
C30   C36   S    
C51   C54   A    
C17   C25   A    
C47   H32   S    
C2    C3    A    
C43   H24   S    
C9    H12   S    
Cu2   N2    S    
C1    O9    A    
C41   H20   S    
C30   C32   S    
C54   H13   S    
C29   O15   A    
Cu2   O13   S    
C31   C39   S    
C13   C22   A    
C10   C11   A    
C38   O16   D    
C20   C21   A    
C42   H21   S    
C16   C18   A    
C47   O6    D    
C21   C24   A    
C29   C37   S    
C27   C28   A    
C43   H26   S    
C39   H15   S    
C31   C36   S    
C49   O8    S    
C35   H7    S    
C15   H42   S    
C32   H3    S    
C40   O3    S    
C46   H30   S    
