data_mof_unit_2075.cif
_audit_creation_date              2013-03-05T16:44:16-0500
_audit_creation_method            fapswitch 2.2
_symmetry_space_group_name_H-M    P1
_symmetry_Int_Tables_number       1
_space_group_crystal_system       triclinic
_cell_length_a                    23.423676
_cell_length_b                    10.622101
_cell_length_c                    9.87981
_cell_angle_alpha                 90.375956
_cell_angle_beta                  90.097385
_cell_angle_gamma                 90.540316
_cell_volume                      2458.01617706

loop_
_atom_site_label
_atom_site_type_symbol
_atom_site_description
_atom_site_fract_x
_atom_site_fract_y
_atom_site_fract_z
_atom_type_partial_charge
O1    O     O_R   0.500010 0.316790 0.614690 -0.626791
O2    O     O_R   0.500000 0.316760 0.385350 -0.619505
C1    C     C_R   0.499726 0.260361 0.499764 0.874177
O3    O     O_R   0.416160 0.499980 0.614700 -0.639223
O4    O     O_R   0.416150 0.499940 0.385360 -0.620264
C2    C     C_R   0.389426 0.500163 0.499738 0.852755
Zn1   Zn    Zn3+2 0.500000 0.500020 0.653130 0.997679
Zn2   Zn    Zn3+2 0.500000 0.499980 0.346870 0.956589
O5    O     O_R   0.500000 0.683240 0.614650 -0.573182
O6    O     O_R   0.499990 0.683210 0.385310 -0.604308
O7    O     O_R   0.583850 0.500060 0.614640 -0.535368
O8    O     O_R   0.583840 0.500020 0.385300 -0.630070
C3    C     C_R   0.500171 0.739497 0.500359 0.887525
C4    C     C_R   0.610654 0.500682 0.500134 0.895439
C5    C     C_R   0.881131 0.633216 0.493133 0.526698
N1    N     N_R   0.852323 0.521318 0.487682 -0.345851
C6    C     C_R   0.879449 0.409096 0.479352 0.546009
C7    C     C_R   0.938884 0.404877 0.489364 -0.192545
C8    C     C_R   0.970115 0.519468 0.482377 -0.117511
C9    C     C_R   0.941205 0.636657 0.478059 -0.057338
C10   C     C_R   0.967542 0.289325 0.505213 0.458195
C11   C     C_R   0.027060 0.285572 0.496553 0.427644
C12   C     C_R   0.058741 0.398996 0.485204 -0.180123
C13   C     C_R   0.030169 0.516187 0.481349 -0.152637
C14   C     C_R   0.061810 0.629766 0.475897 -0.110702
C15   C     C_R   0.033550 0.745590 0.457731 0.480908
C16   C     C_R   0.973252 0.750677 0.459872 0.004616
C17   C     C_R   0.118630 0.399421 0.480629 0.550800
N2    N     N_R   0.148103 0.510403 0.486136 -0.365266
C18   C     C_R   0.121538 0.623872 0.487486 0.518307
O9    O     O_2   0.851179 0.738747 0.516302 -0.579048
O10   O     O_2   0.848526 0.302494 0.460195 -0.518977
O11   O     O_2   0.147699 0.290632 0.471453 -0.527662
O12   O     O_2   0.153225 0.729944 0.501960 -0.531646
C19   C     C_R   0.240028 0.548825 0.378319 -0.153520
H1    H     H_    0.218372 0.582378 0.288785 0.130758
C20   C     C_R   0.299162 0.546419 0.382001 -0.248858
H2    H     H_    0.322784 0.579169 0.294688 0.175879
C21   C     C_R   0.327374 0.502936 0.497669 -0.018391
C22   C     C_R   0.295853 0.462073 0.609796 -0.240224
H3    H     H_    0.316729 0.426794 0.699163 0.137796
C23   C     C_R   0.236628 0.464481 0.605988 -0.107318
H4    H     H_    0.212267 0.432691 0.692548 0.127499
C24   C     C_R   0.208815 0.507830 0.490220 0.323786
C25   C     C_R   0.764241 0.475607 0.609231 -0.220153
H5    H     H_    0.789261 0.446446 0.695651 0.139338
C26   C     C_R   0.704849 0.465764 0.612604 0.500992
C27   C     C_R   0.672933 0.506023 0.499816 -0.154723
C28   C     C_R   0.701042 0.552168 0.384608 -0.295003
H6    H     H_    0.677312 0.583427 0.297004 0.178019
C29   C     C_R   0.760157 0.559282 0.381572 -0.107399
H7    H     H_    0.781641 0.593634 0.291932 0.141871
C30   C     C_R   0.791620 0.520644 0.493562 0.256665
C31   C     C_R   0.459242 0.062655 0.427090 0.036513
C32   C     C_R   0.501147 0.128424 0.498469 -0.062835
C33   C     C_R   0.545489 0.066488 0.564425 -0.232487
H8    H     H_    0.578790 0.118513 0.617175 0.143125
C34   C     C_R   0.545569 0.936350 0.565119 -0.180587
H9    H     H_    0.579089 0.886790 0.617851 0.172944
C35   C     C_R   0.501254 0.871247 0.499828 -0.165341
C36   C     C_R   0.459381 0.933417 0.427342 0.137468
C37   C     C_3   0.396289 0.924325 0.448715 0.361606
C38   C     C_3   0.396184 0.067026 0.449517 -0.604824
H10   H     H_    0.385044 0.879362 0.547051 0.065493
H11   H     H_    0.373099 0.107448 0.362726 0.226024
H12   H     H_    0.384567 0.107831 0.549477 0.168914
C39   C     C_R   0.470464 0.409219 0.070607 0.109956
N3    N     N_R   0.499610 0.499140 0.142800 -0.131373
C40   C     C_R   0.533011 0.582521 0.072947 -0.248772
H13   H     H_    0.557556 0.651559 0.129674 0.163484
C41   C     C_R   0.533956 0.581895 0.927623 0.574602
N4    N     N_R   0.499610 0.499180 0.857150 -0.159422
C42   C     C_R   0.471966 0.407512 0.928011 0.084888
C43   C     C_3   0.410447 0.374069 0.914394 -0.080523
C44   C     C_3   0.406751 0.389028 0.068945 -0.093516
H14   H     H_    0.386182 0.449413 0.863265 0.132425
H15   H     H_    0.385013 0.477981 0.098345 0.155837
O13   O     O_3   0.938082 0.178036 0.528780 -0.564615
C45   C     C_3   0.922686 0.173658 0.667172 -0.278983
H16   H     H_    0.907825 0.076921 0.691020 0.184192
H17   H     H_    0.887026 0.238524 0.689956 0.187347
H18   H     H_    0.959149 0.196271 0.735826 0.109658
O14   O     O_3   0.678076 0.420633 0.727348 -0.608955
C46   C     C_3   0.682797 0.288423 0.728956 -0.301929
H19   H     H_    0.667010 0.244898 0.632889 0.149928
H20   H     H_    0.655947 0.251273 0.812315 0.188944
H21   H     H_    0.727566 0.259745 0.748782 0.170822
O15   O     O_3   0.369009 0.871441 0.333825 -0.587342
C47   C     C_3   0.309631 0.865851 0.357060 -0.264661
H22   H     H_    0.291416 0.961664 0.368291 0.175109
H23   H     H_    0.299247 0.808298 0.447610 0.180454
H24   H     H_    0.288747 0.820460 0.268233 0.184846
O16   O     O_3   0.053565 0.169575 0.490019 -0.551306
C48   C     C_3   0.066264 0.127053 0.621810 -0.119444
H25   H     H_    0.073719 0.204313 0.697062 0.090723
H26   H     H_    0.105966 0.071081 0.617114 0.222439
H27   H     H_    0.031876 0.062935 0.657320 0.155569
O17   O     O_3   0.565081 0.669971 0.854707 -0.577823
C49   C     C_3   0.621782 0.679391 0.902583 -0.290186
H28   H     H_    0.648700 0.719496 0.820930 0.197742
H29   H     H_    0.640009 0.586132 0.928974 0.189257
H30   H     H_    0.624427 0.745029 0.990360 0.143886
C50   C     C_3   0.400304 0.242740 0.846899 -0.337005
C51   C     C_3   0.448518 0.145936 0.860265 -0.795982
H31   H     H_    0.488427 0.180486 0.813068 0.274019
H32   H     H_    0.458416 0.123234 0.966615 0.243476
H33   H     H_    0.435657 0.057440 0.807511 0.239013
H34   H     H_    0.359957 0.200043 0.883266 0.204697
H35   H     H_    0.393998 0.258899 0.736998 0.200427
C52   C     C_3   0.384663 0.277998 0.153695 -0.329444
C53   C     C_3   0.319379 0.270987 0.152639 -0.885640
H36   H     H_    0.301336 0.356093 0.200762 0.268635
H37   H     H_    0.302287 0.264026 0.048248 0.255019
H38   H     H_    0.304490 0.187375 0.209836 0.256547
H39   H     H_    0.402019 0.186650 0.121206 0.226853
H40   H     H_    0.398715 0.293292 0.259628 0.233210
O18   O     O_3   0.064961 0.855974 0.443439 -0.578731
C54   C     C_3   0.080106 0.870381 0.306050 -0.181032
H41   H     H_    0.104040 0.788073 0.266280 0.138963
H42   H     H_    0.108359 0.954311 0.297212 0.215623
H43   H     H_    0.042004 0.886873 0.242132 0.130798
C55   C     C_3   0.945259 0.878406 0.437860 -0.261161
C56   C     C_3   0.914394 0.885542 0.301286 -0.782655
H44   H     H_    0.944921 0.872564 0.216844 0.219134
H45   H     H_    0.880466 0.812805 0.290814 0.271566
H46   H     H_    0.894516 0.979515 0.291036 0.275629
H47   H     H_    0.916505 0.902406 0.522720 0.249914
H48   H     H_    0.976907 0.956522 0.439511 0.272520

loop_
_geom_bond_atom_site_label_1
_geom_bond_atom_site_label_2
_geom_bond_distance
_ccdc_geom_bond_type
C32   C33   1.397307 A    
C38   H11   1.104370 S    
O16   C48   1.413080 S    
C7    C10   1.413986 A    
C42   C43   1.486552 S    
C8    C9    1.423515 A    
C46   H21   1.112190 S    
C28   H6    1.083487 S    
C51   H32   1.104295 S    
C56   H44   1.108459 S    
C3    C35   1.399500 S    
C25   H5    1.083326 S    
N1    C30   1.423134 S    
Zn1   O7    2.001181 S    
C15   C16   1.414127 A    
C37   C38   1.515785 S    
C43   H14   1.109789 S    
C17   N2    1.361238 A    
C19   C20   1.386032 A    
C20   H2    1.083167 S    
C46   H20   1.109443 S    
O4    C2    1.292760 A    
O7    C4    1.294793 A    
C56   H45   1.107403 S    
C31   C38   1.495061 S    
C34   C35   1.396465 A    
C5    N1    1.361949 A    
C33   H8    1.082656 S    
C7    C8    1.416341 A    
C55   H47   1.106296 S    
C40   C41   1.435956 A    
O5    C3    1.280996 A    
C52   C53   1.530314 S    
C37   H10   1.116221 S    
C54   H41   1.112892 S    
C1    C32   1.402141 S    
O14   C46   1.409928 S    
N1    C6    1.358162 A    
C28   C29   1.386430 A    
C10   O13   1.384405 S    
C12   C13   1.419571 A    
C15   O18   1.386476 S    
C50   H34   1.105966 S    
C39   C42   1.409324 A    
C26   O14   1.382801 S    
C47   H23   1.112801 S    
C36   C37   1.495532 S    
C22   C23   1.388190 A    
C38   H12   1.111194 S    
C25   C30   1.396414 A    
C10   C11   1.397835 A    
C40   H13   1.080746 S    
C23   C24   1.398108 A    
O3    Zn1   1.999569 S    
C51   H31   1.106008 S    
C16   C55   1.529115 S    
C31   C36   1.372831 A    
C25   C26   1.394599 A    
C5    C9    1.415424 A    
C41   O17   1.386904 S    
C43   C44   1.536817 S    
C18   O12   1.350024 S    
C39   N3    1.365368 A    
C26   C27   1.411711 A    
C13   C14   1.411321 A    
O3    C2    1.296075 A    
Zn1   N4    2.015793 S    
C45   H17   1.110216 S    
O13   C45   1.415585 S    
N3    C40   1.367334 A    
C56   H46   1.110571 S    
C4    C27   1.459385 S    
C48   H27   1.108838 S    
C14   C15   1.414869 A    
C37   O15   1.412335 S    
C29   H7    1.083047 S    
C35   C36   1.388170 A    
O1    C1    1.280434 A    
C54   H43   1.108367 S    
N2    C18   1.361625 A    
C45   H18   1.113230 S    
C49   H28   1.109497 S    
Zn2   O8    1.999567 S    
C6    C7    1.396690 A    
C53   H37   1.107469 S    
C12   C17   1.403570 A    
C46   H19   1.114063 S    
C47   H24   1.109273 S    
C48   H26   1.109356 S    
C19   C24   1.396239 A    
C44   H15   1.114633 S    
C22   H3    1.079557 S    
C49   H29   1.114692 S    
O8    C4    1.295804 A    
C17   O11   1.349388 S    
Zn2   N3    2.016139 S    
N2    C24   1.423122 S    
C11   O16   1.386112 S    
C39   C44   1.505765 S    
C23   H4    1.082964 S    
C52   H40   1.107106 S    
C21   C22   1.401359 A    
C14   C18   1.405561 A    
Zn1   O5    1.985414 S    
C31   C32   1.388195 A    
C27   C28   1.404673 A    
C44   C52   1.537080 S    
C53   H36   1.106422 S    
O1    Zn1   1.980549 S    
C11   C12   1.414219 A    
O2    Zn2   1.985412 S    
N4    C42   1.362398 A    
O6    C3    1.280820 A    
O4    Zn2   2.001181 S    
C5    O9    1.346538 S    
C9    C16   1.431368 A    
C50   H35   1.110228 S    
O2    C1    1.282793 A    
C34   H9    1.083992 S    
C41   N4    1.371394 A    
C20   C21   1.402172 A    
O18   C54   1.412478 S    
C33   C34   1.382417 A    
C8    C13   1.407498 A    
C53   H38   1.109590 S    
C55   H48   1.107473 S    
C48   H25   1.116062 S    
C54   H42   1.109274 S    
C45   H16   1.108717 S    
C49   H30   1.110442 S    
O15   C47   1.410817 S    
Zn2   O6    1.980551 S    
O17   C49   1.411549 S    
C50   C51   1.540568 S    
C55   C56   1.532364 S    
C6    O10   1.350510 S    
C2    C21   1.454167 S    
C19   H1    1.082981 S    
C29   C30   1.394512 A    
C47   H22   1.112208 S    
C52   H39   1.101624 S    
C51   H33   1.110722 S    
C43   C50   1.558236 S    
