data_mof_unit_4507.cif
_audit_creation_date              2012-12-11T16:44:25-0500
_audit_creation_method            fapswitch 2.2
_symmetry_space_group_name_H-M    P1
_symmetry_Int_Tables_number       1
_space_group_crystal_system       triclinic
_cell_length_a                    27.330828
_cell_length_b                    7.261799
_cell_length_c                    22.418549
_cell_angle_alpha                 90.725382
_cell_angle_beta                  101.595568
_cell_angle_gamma                 90.545765
_cell_volume                      4357.9418477

loop_
_atom_site_label
_atom_site_type_symbol
_atom_type_description
_atom_site_fract_x
_atom_site_fract_y
_atom_site_fract_z
_atom_type_partial_charge
O1    O     O_R   0.707300 0.594030 0.176840 -0.544195
O2    O     O_R   0.292700 0.405970 0.823160 -0.533477
O3    O     O_R   0.792700 0.094030 0.323160 -0.539158
O4    O     O_R   0.207300 0.905970 0.676840 -0.531330
O5    O     O_R   0.697330 0.262360 0.295660 -0.508449
O6    O     O_R   0.302670 0.737640 0.704340 -0.504588
O7    O     O_R   0.802670 0.762360 0.204340 -0.508862
O8    O     O_R   0.197330 0.237640 0.795660 -0.534121
C1    C     C_R   0.682315 0.432539 0.308519 0.773703
C2    C     C_R   0.314759 0.566846 0.687191 0.789578
C3    C     C_R   0.817134 0.932941 0.190583 0.784604
C4    C     C_R   0.185558 0.067658 0.813209 0.753398
O9    O     O_R   0.701410 0.264250 0.175600 -0.521880
O10   O     O_R   0.298590 0.735750 0.824400 -0.545427
O11   O     O_R   0.798590 0.764250 0.324400 -0.537505
O12   O     O_R   0.201410 0.235750 0.675600 -0.538851
O13   O     O_R   0.796800 0.094950 0.202240 -0.507902
O14   O     O_R   0.203200 0.905050 0.797760 -0.508200
O15   O     O_R   0.703200 0.594950 0.297760 -0.510865
O16   O     O_R   0.296800 0.405050 0.702240 -0.517066
C5    C     C_R   0.688332 0.430685 0.153890 0.788711
C6    C     C_R   0.310280 0.568955 0.847000 0.737170
C7    C     C_R   0.812016 0.935152 0.345784 0.808823
C8    C     C_R   0.190297 0.065127 0.652525 0.751132
O17   O     O_3   0.781290 0.427390 0.258880 -0.373739
O18   O     O_3   0.218710 0.572610 0.741120 -0.383160
O19   O     O_3   0.718710 0.927390 0.241120 -0.373670
O20   O     O_3   0.281290 0.072610 0.758880 -0.372650
V1    V     V_3+5 0.744190 0.152150 0.248350 1.552168
V2    V     V_3+5 0.255810 0.847850 0.751650 1.497845
V3    V     V_3+5 0.755810 0.652150 0.251650 1.548020
V4    V     V_3+5 0.244190 0.347850 0.748350 1.468030
C9    C     C_R   0.158013 0.042294 0.590622 -0.304420
C10   C     C_R   0.848854 0.951760 0.405125 -0.215998
C11   C     C_R   0.343612 0.567065 0.908379 -0.262972
C12   C     C_R   0.651067 0.423503 0.094962 -0.213879
C13   C     C_R   0.145722 0.889448 0.490488 0.379465
C14   C     C_R   0.864517 0.024800 0.514126 0.310183
C15   C     C_R   0.359170 0.640251 0.017516 0.395561
C16   C     C_R   0.626793 0.289017 0.993228 0.306935
C17   C     C_R   0.178056 0.960930 0.543266 0.194585
C18   C     C_R   0.831098 0.997595 0.457660 0.172987
C19   C     C_R   0.326079 0.629701 0.960203 0.180185
C20   C     C_R   0.661810 0.311183 0.048062 0.165869
C21   C     C_R   0.105949 0.065558 0.581994 0.377839
C22   C     C_R   0.901146 0.937736 0.409038 0.326055
C23   C     C_R   0.394019 0.515602 0.914494 0.356469
C24   C     C_R   0.602554 0.498385 0.088517 0.325217
C25   C     C_R   0.072913 0.967171 0.534189 -0.116637
C26   C     C_R   0.934765 0.934247 0.467501 -0.124078
C27   C     C_R   0.425627 0.498923 0.973606 -0.134275
C28   C     C_R   0.562571 0.429757 0.040721 -0.138003
C29   C     C_R   0.093330 0.882817 0.487380 -0.217302
C30   C     C_R   0.915391 0.979940 0.520057 -0.178790
C31   C     C_R   0.408220 0.568625 0.024846 -0.199011
C32   C     C_R   0.576181 0.326555 0.992289 -0.183000
C33   C     C_R   0.020100 0.950737 0.531362 -0.127192
C34   C     C_R   0.987525 0.898459 0.475473 -0.127775
C35   C     C_R   0.474793 0.421476 0.982989 -0.131576
C36   C     C_R   0.509977 0.459674 0.038340 -0.130111
C37   C     C_R   0.008830 0.796198 0.432854 0.331025
C38   C     C_R   0.998901 0.964006 0.583962 0.345573
C39   C     C_R   0.489840 0.506450 0.090158 0.318015
C40   C     C_R   0.488763 0.292395 0.941609 0.323523
C41   C     C_R   0.060907 0.786517 0.439372 0.432214
C42   C     C_R   0.947323 0.978919 0.578221 0.437095
C43   C     C_R   0.439691 0.558210 0.083346 0.433918
C44   C     C_R   0.538816 0.247855 0.945914 0.448097
C45   C     C_R   0.874849 0.106738 0.132426 0.233468
C46   C     C_R   0.130863 0.880592 0.869929 0.294125
C47   C     C_R   0.623157 0.602465 0.365652 0.259089
C48   C     C_R   0.370652 0.375340 0.633120 0.327797
C49   C     C_R   0.919072 0.116671 0.108184 0.218984
C50   C     C_R   0.105169 0.864082 0.918220 0.278214
C51   C     C_R   0.579011 0.606417 0.390102 0.229865
C52   C     C_R   0.395655 0.351064 0.584817 0.303949
C53   C     C_R   0.948011 0.960258 0.106416 -0.043212
C54   C     C_R   0.084995 0.018473 0.940874 -0.109344
C55   C     C_R   0.550421 0.447158 0.391166 -0.043835
C56   C     C_R   0.412790 0.503600 0.556905 -0.150181
C57   C     C_R   0.938557 0.802356 0.137872 0.238620
C58   C     C_R   0.097159 0.192905 0.921784 0.343097
C59   C     C_R   0.559438 0.292073 0.357324 0.253574
C60   C     C_R   0.400082 0.680062 0.574310 0.302042
C61   C     C_R   0.895659 0.791636 0.164722 0.219788
C62   C     C_R   0.134010 0.211562 0.886020 0.225506
C63   C     C_R   0.602463 0.286177 0.330460 0.213722
C64   C     C_R   0.364795 0.702347 0.612617 0.244493
C65   C     C_R   0.862510 0.943257 0.161162 -0.260995
C66   C     C_R   0.149441 0.054816 0.856068 -0.348938
C67   C     C_R   0.635928 0.440314 0.336116 -0.241696
C68   C     C_R   0.351402 0.550230 0.645107 -0.346231
C69   C     C_R   0.033540 0.041179 0.086696 0.374246
C70   C     C_R   0.003276 0.915850 0.965017 0.348307
C71   C     C_R   0.465601 0.529447 0.411885 0.381553
C72   C     C_R   0.494187 0.398952 0.531697 0.333761
C73   C     C_R   0.065901 0.057550 0.045151 -0.283578
C74   C     C_R   0.971247 0.897580 0.006692 -0.342768
C75   C     C_R   0.433065 0.544275 0.453325 -0.292510
C76   C     C_R   0.526028 0.379453 0.489712 -0.336676
H1    H     H_    0.102563 0.120206 0.059745 0.147793
H2    H     H_    0.934131 0.839016 0.991579 0.130684
H3    H     H_    0.397098 0.609031 0.439436 0.151575
H4    H     H_    0.562585 0.319449 0.504147 0.131287
C77   C     C_R   0.050959 0.996118 0.984534 0.153680
C78   C     C_R   0.985908 0.960231 0.067152 0.179110
C79   C     C_R   0.447083 0.480339 0.513109 0.081479
C80   C     C_R   0.512189 0.444465 0.430111 0.172024
O21   O     O_3   0.079467 0.674310 0.398892 -0.507101
C81   C     C_3   0.086982 0.496601 0.424077 0.170033
H5    H     H_    0.053159 0.443337 0.439290 0.099174
H6    H     H_    0.119137 0.498950 0.463378 0.120160
C82   C     C_3   0.098601 0.362767 0.376270 -0.665219
H7    H     H_    0.132206 0.410454 0.359801 0.234494
H8    H     H_    0.105734 0.224057 0.396290 0.183801
H9    H     H_    0.066391 0.352808 0.337293 0.215196
O22   O     O_3   0.928564 0.990792 0.631068 -0.504846
C83   C     C_3   0.916596 0.811202 0.647597 0.182735
H10   H     H_    0.949381 0.718392 0.652269 0.105251
H11   H     H_    0.885192 0.751061 0.613190 0.114699
C84   C     C_3   0.900618 0.820381 0.708729 -0.665748
H12   H     H_    0.867471 0.909764 0.705578 0.229436
H13   H     H_    0.890871 0.680075 0.722078 0.166884
H14   H     H_    0.931602 0.877327 0.744186 0.227637
O23   O     O_3   0.421437 0.593840 0.135545 -0.507754
C85   C     C_3   0.401662 0.428060 0.153902 0.182780
H15   H     H_    0.432010 0.328141 0.169633 0.108828
H16   H     H_    0.373591 0.363366 0.116276 0.113563
C86   C     C_3   0.375803 0.469278 0.206446 -0.679057
H17   H     H_    0.343558 0.561024 0.191180 0.238805
H18   H     H_    0.362247 0.339098 0.223345 0.167224
H19   H     H_    0.402439 0.538434 0.243987 0.240976
O24   O     O_3   0.550426 0.115181 0.906158 -0.504648
C87   C     C_3   0.555308 0.943827 0.936024 0.170586
H20   H     H_    0.518185 0.893337 0.942190 0.090511
H21   H     H_    0.580654 0.953159 0.981477 0.081549
C88   C     C_3   0.577777 0.804498 0.898379 -0.663501
H22   H     H_    0.617029 0.844030 0.897816 0.234034
H23   H     H_    0.577245 0.665767 0.918506 0.170472
H24   H     H_    0.556271 0.799550 0.850939 0.221974
O25   O     O_3   0.047278 0.105693 0.145886 -0.656300
H25   H     H_    0.081881 0.155525 0.152446 0.286471
O26   O     O_3   0.988370 0.861212 0.904792 -0.653786
H26   H     H_    0.953641 0.812642 0.898136 0.280292
O27   O     O_3   0.453286 0.601265 0.354263 -0.654631
H27   H     H_    0.419755 0.657122 0.348982 0.278440
O28   O     O_3   0.508881 0.345222 0.591450 -0.646203
H28   H     H_    0.543352 0.297318 0.597636 0.286012
O29   O     O_3   0.919160 0.940376 0.355630 -0.533656
C89   C     C_3   0.932643 0.123580 0.344746 0.127408
H29   H     H_    0.954600 0.193417 0.386400 0.113454
H30   H     H_    0.898480 0.204581 0.327472 0.121411
C90   C     C_3   0.965019 0.123132 0.296953 -0.649526
H31   H     H_    0.944884 0.054794 0.254530 0.212298
H32   H     H_    0.974232 0.266986 0.286646 0.179327
H33   H     H_    0.000219 0.048405 0.314062 0.226437
O30   O     O_3   0.087766 0.186818 0.620147 -0.532661
C91   C     C_3   0.087332 0.367122 0.596492 0.165644
H34   H     H_    0.109694 0.385220 0.560374 0.069314
H35   H     H_    0.104231 0.462841 0.634056 0.123624
C92   C     C_3   0.033809 0.426163 0.572013 -0.766074
H36   H     H_    0.011167 0.412055 0.607692 0.241977
H37   H     H_    0.033599 0.571942 0.557977 0.162217
H38   H     H_    0.016793 0.340413 0.531742 0.213588
O31   O     O_3   0.594831 0.629494 0.130827 -0.528906
C93   C     C_3   0.590855 0.803429 0.103024 0.139313
H39   H     H_    0.556887 0.808999 0.066228 0.098027
H40   H     H_    0.624648 0.835634 0.084077 0.096375
C94   C     C_3   0.586350 0.951013 0.150250 -0.620213
H41   H     H_    0.584031 0.088491 0.128850 0.139710
H42   H     H_    0.552188 0.926366 0.168900 0.224425
H43   H     H_    0.619550 0.949118 0.187980 0.252819
O32   O     O_3   0.411990 0.487364 0.861642 -0.546897
C95   C     C_3   0.440330 0.643329 0.851729 0.128124
H44   H     H_    0.473815 0.659738 0.888655 0.133291
H45   H     H_    0.417576 0.770570 0.848922 0.119652
C96   C     C_3   0.458287 0.617713 0.792292 -0.755175
H46   H     H_    0.425888 0.609787 0.753651 0.189973
H47   H     H_    0.482017 0.736301 0.784846 0.187016
H48   H     H_    0.480549 0.490140 0.793756 0.242778
O33   O     O_3   0.780537 0.017820 0.452618 -0.664366
H49   H     H_    0.772370 0.988872 0.492549 0.284055
O34   O     O_3   0.229092 0.946681 0.547367 -0.641620
H50   H     H_    0.246957 0.032068 0.579384 0.311993
O35   O     O_3   0.705949 0.216082 0.057918 -0.660306
H51   H     H_    0.701663 0.103974 0.031573 0.278335
O36   O     O_3   0.277150 0.684276 0.956864 -0.650855
H52   H     H_    0.255957 0.645886 0.917511 0.298140
O37   O     O_3   0.164477 0.822950 0.441527 -0.612707
H53   H     H_    0.200890 0.846313 0.447926 0.334425
O38   O     O_3   0.848335 0.100269 0.563592 -0.620095
H54   H     H_    0.820718 0.186071 0.548730 0.291170
O39   O     O_3   0.344298 0.719474 0.067432 -0.615705
H55   H     H_    0.311033 0.775845 0.055373 0.333094
O40   O     O_3   0.640949 0.222150 0.941260 -0.618416
H56   H     H_    0.677188 0.245713 0.944538 0.289125
O41   O     O_3   0.980786 0.680443 0.389501 -0.608171
H57   H     H_    0.951736 0.634803 0.405552 0.295244
O42   O     O_3   0.026380 0.938977 0.642029 -0.615372
H58   H     H_    0.054167 0.854586 0.639307 0.276762
O43   O     O_3   0.515208 0.477380 0.148911 -0.608775
H59   H     H_    0.536836 0.368897 0.148313 0.296718
O44   O     O_3   0.454270 0.186890 0.901655 -0.625018
H60   H     H_    0.423727 0.173690 0.918810 0.294531
O45   O     O_3   0.844555 0.259280 0.129371 -0.529365
C97   C     C_3   0.819399 0.282903 0.068395 0.127027
H61   H     H_    0.791271 0.171437 0.055220 0.142146
H62   H     H_    0.844414 0.277505 0.034954 0.107058
C98   C     C_3   0.794807 0.470773 0.062658 -0.605036
H63   H     H_    0.823898 0.581021 0.068999 0.190304
H64   H     H_    0.770620 0.483740 0.016805 0.159802
H65   H     H_    0.771866 0.488960 0.097797 0.240419
O46   O     O_3   0.135049 0.725333 0.835147 -0.511618
C99   C     C_3   0.094427 0.722166 0.784699 0.165765
H66   H     H_    0.102229 0.818240 0.749398 0.114015
H67   H     H_    0.058389 0.761132 0.797479 0.117756
C100  C     C_3   0.087327 0.529063 0.757157 -0.617074
H68   H     H_    0.057400 0.529630 0.715566 0.156360
H69   H     H_    0.122524 0.480981 0.745071 0.240169
H70   H     H_    0.075984 0.432557 0.790002 0.223206
O47   O     O_3   0.653069 0.759157 0.369618 -0.531930
C101  C     C_3   0.675201 0.799910 0.431251 0.145231
H71   H     H_    0.715142 0.762297 0.438462 0.141937
H72   H     H_    0.659231 0.722369 0.465714 0.100386
C102  C     C_3   0.670850 0.005655 0.444285 -0.647997
H73   H     H_    0.631522 0.046772 0.440430 0.205565
H74   H     H_    0.690152 0.039353 0.491617 0.157716
H75   H     H_    0.687515 0.087978 0.411872 0.259453
O48   O     O_3   0.364135 0.222374 0.666872 -0.506125
C103  C     C_3   0.402195 0.223857 0.719901 0.177495
H76   H     H_    0.390701 0.311494 0.755444 0.162216
H77   H     H_    0.438984 0.273516 0.711412 0.103854
C104  C     C_3   0.409926 0.030502 0.744369 -0.617452
H78   H     H_    0.422177 0.939491 0.710195 0.212349
H79   H     H_    0.439319 0.033837 0.786471 0.198573
H80   H     H_    0.374893 0.975100 0.755297 0.238171
O49   O     O_3   0.934548 0.277008 0.084500 -0.625518
H81   H     H_    0.916567 0.382631 0.097628 0.346368
O50   O     O_3   0.099514 0.697657 0.944122 -0.597343
H82   H     H_    0.129848 0.626485 0.942375 0.375248
O51   O     O_3   0.563386 0.765339 0.414270 -0.626255
H83   H     H_    0.572650 0.868444 0.390401 0.351158
O52   O     O_3   0.403745 0.174743 0.567101 -0.603963
H84   H     H_    0.408180 0.174559 0.524324 0.313888
O53   O     O_3   0.971405 0.657350 0.142023 -0.548961
C105  C     C_3   0.007148 0.678396 0.196844 0.089612
H85   H     H_    0.989186 0.682543 0.237293 0.160797
H86   H     H_    0.029694 0.806372 0.196554 0.172056
C106  C     C_3   0.042351 0.516241 0.203471 -0.640053
H87   H     H_    0.059912 0.505198 0.163004 0.239576
H88   H     H_    0.072134 0.535972 0.244777 0.188120
H89   H     H_    0.021276 0.387378 0.207824 0.246844
O54   O     O_3   0.076697 0.346412 0.943436 -0.522320
C107  C     C_3   0.027571 0.372265 0.909632 0.153029
H90   H     H_    0.010452 0.249121 0.882655 0.093071
H91   H     H_    0.028363 0.485761 0.877069 0.175601
C108  C     C_3   0.993722 0.426938 0.953032 -0.601167
H92   H     H_    0.011348 0.539831 0.983966 0.262901
H93   H     H_    0.957139 0.472915 0.926797 0.155793
H94   H     H_    0.987162 0.308206 0.981097 0.220538
O55   O     O_3   0.525852 0.146065 0.350327 -0.554478
C109  C     C_3   0.491053 0.167889 0.295066 0.072977
H95   H     H_    0.509912 0.181489 0.255588 0.135476
H96   H     H_    0.467742 0.291285 0.297588 0.169712
C110  C     C_3   0.456758 0.999843 0.283496 -0.645643
H97   H     H_    0.436399 0.984754 0.321350 0.229942
H98   H     H_    0.429196 0.015763 0.240201 0.178281
H99   H     H_    0.479009 0.874361 0.280028 0.262995
O56   O     O_3   0.422455 0.831079 0.553832 -0.535217
C111  C     C_3   0.471686 0.854971 0.588713 0.146783
H100  H     H_    0.487368 0.731358 0.614672 0.105045
H101  H     H_    0.471785 0.967769 0.622644 0.181567
C112  C     C_3   0.506829 0.907971 0.546755 -0.621818
H102  H     H_    0.490433 0.019331 0.515992 0.243079
H103  H     H_    0.543340 0.955109 0.574156 0.162352
H104  H     H_    0.513356 0.788150 0.518440 0.232346
O57   O     O_3   0.886081 0.636339 0.195872 -0.600270
H105  H     H_    0.910066 0.538216 0.191756 0.335322
O58   O     O_3   0.154416 0.382981 0.882000 -0.597792
H106  H     H_    0.191184 0.368993 0.890686 0.303108
O59   O     O_3   0.612026 0.132687 0.297633 -0.620120
H107  H     H_    0.588378 0.031569 0.301344 0.332418
O60   O     O_3   0.342752 0.869557 0.618028 -0.583374
H108  H     H_    0.343521 0.940231 0.580810 0.371661

loop_
_geom_bond_atom_site_label_1
_geom_bond_atom_site_label_2
_ccdc_geom_bond_type
O17   V3    S    
C14   O38   S    
C13   O37   S    
O44   H60   S    
C25   C29   A    
C70   C77   A    
O1    C5    A    
C85   H15   S    
C47   O47   S    
C63   C67   A    
O19   V1    S    
C9    C21   A    
O43   H59   S    
O3    C7    A    
O28   H28   S    
C71   O27   S    
C76   H4    S    
C56   C60   A    
C61   O57   S    
C11   C23   A    
C1    C67   S    
C109  C110  S    
O27   H27   S    
O35   H51   S    
C69   O25   S    
C33   C38   A    
C5    C12   S    
C27   C31   A    
O46   C99   S    
C100  H70   S    
O7    C3    A    
C6    C11   S    
C88   H23   S    
C56   C79   S    
C106  H87   S    
O30   C91   S    
C60   O56   S    
C54   C77   S    
C70   O26   S    
C40   C44   A    
C4    C66   S    
C53   C78   S    
O50   H82   S    
O10   V2    S    
C38   O42   S    
C14   C18   A    
C100  H69   S    
C43   O23   S    
O54   C107  S    
C48   C68   A    
C71   C75   A    
C70   C74   A    
C16   O40   S    
O26   H26   S    
O33   H49   S    
O1    V3    S    
C102  H75   S    
O13   V1    S    
O59   H107  S    
C103  C104  S    
O2    V4    S    
O51   H83   S    
C94   H41   S    
C32   C44   A    
C50   O50   S    
O3    V1    S    
C54   C58   A    
C81   H5    S    
C84   H14   S    
C107  H91   S    
C28   C36   A    
C91   C92   S    
C102  H74   S    
C83   H10   S    
O25   H25   S    
O42   H58   S    
C1    O15   A    
C15   C31   A    
C24   O31   S    
C64   C68   A    
C2    O16   A    
C16   C32   A    
C89   C90   S    
C10   C18   A    
O52   H84   S    
O2    C6    A    
O58   H106  S    
C58   O54   S    
C45   C49   A    
C74   C78   A    
C10   C22   A    
C53   C57   A    
C90   H32   S    
C11   C19   A    
C110  H97   S    
C16   C20   A    
O5    V1    S    
C111  H100  S    
C48   C52   A    
C20   O35   S    
C59   C63   A    
C86   H19   S    
C73   C77   A    
C7    C10   S    
C34   C37   A    
O11   C7    A    
O23   C85   S    
O15   V3    S    
C35   C36   A    
O12   C8    A    
O56   C111  S    
C93   H40   S    
C94   H42   S    
C111  C112  S    
C93   H39   S    
C46   C66   A    
C87   C88   S    
C45   C65   A    
C92   H37   S    
C98   H65   S    
C92   H36   S    
C46   C50   A    
C18   O33   S    
C81   H6    S    
C88   H24   S    
C105  H86   S    
C76   C80   A    
O7    V3    S    
C48   O48   S    
C38   C42   A    
O38   H54   S    
C26   C34   A    
C52   C56   A    
C52   O52   S    
C21   O30   S    
C98   H63   S    
C75   H3    S    
C62   C66   A    
C37   O41   S    
C110  H98   S    
O53   C105  S    
C61   C65   A    
C97   H61   S    
C23   C27   A    
C107  C108  S    
C96   H47   S    
C100  H68   S    
O32   C95   S    
C42   O22   S    
C108  H93   S    
C83   C84   S    
O8    V4    S    
C103  H77   S    
O34   H50   S    
C63   O59   S    
C39   C43   A    
C49   O49   S    
O48   C103  S    
C51   O51   S    
C57   O53   S    
C69   C78   A    
O47   C101  S    
C15   O39   S    
C3    C65   S    
C31   C43   A    
C112  H104  S    
C14   C30   A    
C21   C25   A    
O8    C4    A    
C96   H48   S    
C73   H1    S    
C22   O29   S    
C111  H101  S    
C102  H73   S    
C35   C40   A    
C101  C102  S    
O9    C5    A    
C26   C30   A    
C62   O58   S    
C90   H33   S    
C101  H72   S    
C104  H79   S    
C81   C82   S    
C41   O21   S    
C84   H12   S    
C87   H20   S    
C95   C96   S    
O14   V2    S    
C112  H103  S    
O6    V2    S    
C72   C79   A    
O39   H55   S    
C106  H88   S    
C36   C39   A    
C91   H34   S    
O57   H105  S    
C89   H30   S    
C12   C20   A    
C27   C35   A    
C4    O14   A    
C64   O60   S    
C69   C73   A    
C108  H92   S    
C92   H38   S    
C29   C41   A    
C82   H7    S    
O16   V4    S    
O9    V1    S    
O37   H53   S    
C72   O28   S    
O45   C97   S    
C105  H85   S    
C44   O24   S    
C106  H89   S    
C85   H16   S    
C39   O43   S    
C110  H99   S    
C99   H66   S    
C46   O46   S    
C40   O44   S    
C60   C64   A    
O5    C1    A    
C99   C100  S    
C3    O13   A    
C19   O36   S    
O6    C2    A    
C25   C33   A    
C15   C19   A    
O11   V3    S    
C109  H95   S    
C30   C42   A    
O12   V4    S    
C75   C79   A    
C88   H22   S    
C22   C26   A    
C45   O45   S    
C8    C9    S    
C85   C86   S    
C58   C62   A    
C108  H94   S    
C9    C17   A    
C82   H9    S    
C107  H90   S    
O20   V2    S    
C86   H17   S    
C13   C29   A    
C103  H76   S    
C74   H2    S    
O29   C89   S    
C47   C51   A    
C91   H35   S    
C97   C98   S    
O10   C6    A    
C33   C34   A    
O24   C87   S    
O4    C8    A    
O49   H81   S    
C72   C76   A    
C98   H64   S    
C95   H45   S    
C87   H21   S    
C55   C80   S    
C12   C24   A    
C99   H67   S    
C13   C17   A    
O41   H57   S    
C104  H80   S    
C83   H11   S    
C84   H13   S    
C59   O55   S    
C71   C80   A    
C2    C68   S    
O40   H56   S    
C55   C59   A    
C37   C41   A    
O31   C93   S    
C24   C28   A    
C109  H96   S    
C47   C67   A    
C93   C94   S    
C57   C61   A    
C96   H46   S    
C50   C54   A    
O21   C81   S    
O60   H108  S    
O55   C109  S    
C49   C53   A    
C89   H29   S    
C17   O34   S    
O36   H52   S    
C94   H43   S    
C23   O32   S    
C86   H18   S    
C90   H31   S    
O22   C83   S    
C97   H62   S    
C51   C55   A    
C101  H71   S    
C105  C106  S    
O18   V4    S    
O4    V2    S    
C28   C32   A    
C104  H78   S    
C82   H8    S    
C95   H44   S    
C112  H102  S    
