data_mof_unit_1002.cif
_audit_creation_date              2012-12-11T17:45:31-0500
_audit_creation_method            fapswitch 2.2
_symmetry_space_group_name_H-M    P1
_symmetry_Int_Tables_number       1
_space_group_crystal_system       triclinic
_cell_length_a                    15.031587
_cell_length_b                    14.932926
_cell_length_c                    15.069609
_cell_angle_alpha                 110.014853
_cell_angle_beta                  109.067482
_cell_angle_gamma                 109.374765
_cell_volume                      2602.39729487

loop_
_atom_site_label
_atom_site_type_symbol
_atom_type_description
_atom_site_fract_x
_atom_site_fract_y
_atom_site_fract_z
_atom_type_partial_charge
C1    C     C_R   0.975563 0.251111 0.064335 -0.123467
C2    C     C_R   0.323416 0.788462 0.327618 0.052826
C3    C     C_R   0.303090 0.500217 0.938825 0.039834
C4    C     C_R   0.931164 0.498920 0.298753 0.075912
C5    C     C_R   0.687052 0.407584 0.932560 -0.145588
C6    C     C_R   0.022700 0.593172 0.782236 -0.106062
C7    C     C_R   0.792342 0.195645 0.701140 -0.144437
C8    C     C_R   0.002461 0.802724 0.098153 -0.148754
C9    C     C_R   0.093508 0.806446 0.008365 -0.149603
C10   C     C_R   0.705374 0.194110 0.795114 -0.138435
C11   C     C_R   0.777555 0.592152 0.025207 -0.064976
C12   C     C_R   0.314736 0.759240 0.225171 -0.130956
C13   C     C_R   0.940743 0.409658 0.685692 -0.139793
C14   C     C_R   0.675455 0.499713 0.953135 0.021942
C15   C     C_R   0.957507 0.504178 0.678833 0.043932
C16   C     C_R   0.703633 0.128685 0.702740 0.067342
C17   C     C_R   0.063397 0.869502 0.072191 0.069869
C18   C     C_R   0.597890 0.150786 0.130772 -0.125615
C19   C     C_R   0.661907 0.260420 0.215831 -0.166187
C20   C     C_R   0.769453 0.299599 0.291563 0.129127
C21   C     C_R   0.810602 0.227067 0.283768 -0.186876
C22   C     C_R   0.746747 0.118297 0.198465 -0.139690
C23   C     C_R   0.209010 0.408689 0.905038 -0.163241
C24   C     C_R   0.640668 0.080119 0.121668 -0.088786
C25   C     C_R   0.844678 0.421994 0.483359 -0.236869
C26   C     C_R   0.932537 0.512849 0.581924 0.068002
C27   C     C_R   0.004847 0.604057 0.584164 0.012965
C28   C     C_R   0.985185 0.602137 0.487903 -0.232252
C29   C     C_R   0.910586 0.503860 0.388345 0.066155
C30   C     C_R   0.837347 0.412324 0.385846 0.011843
C31   C     C_R   0.139765 0.795118 0.743958 -0.208973
C32   C     C_R   0.242246 0.870110 0.836568 -0.115331
C33   C     C_R   0.322098 0.840395 0.860844 -0.104954
C34   C     C_R   0.991153 0.590299 0.296057 -0.129098
C35   C     C_R   0.299637 0.735161 0.793178 -0.121082
C36   C     C_R   0.196564 0.658869 0.702100 -0.125240
C37   C     C_R   0.115512 0.687941 0.677773 0.114713
C38   C     C_R   0.249001 0.041657 0.518934 -0.125314
C39   C     C_R   0.325228 0.012045 0.508004 -0.124992
C40   C     C_R   0.337493 0.933954 0.534716 0.106129
C41   C     C_R   0.273839 0.887143 0.574219 -0.187732
C42   C     C_R   0.194226 0.913522 0.580197 -0.122535
C43   C     C_R   0.182166 0.991018 0.553098 -0.110290
C44   C     C_R   0.522652 0.977756 0.626346 -0.228325
C45   C     C_R   0.300468 0.591722 0.997480 -0.136344
C46   C     C_R   0.619239 0.012514 0.622705 0.051310
C47   C     C_R   0.619914 0.947436 0.529275 0.028158
C48   C     C_R   0.520784 0.864604 0.435936 -0.241393
C49   C     C_R   0.423194 0.852989 0.432977 0.067489
C50   C     C_R   0.424792 0.910840 0.530666 0.016790
C51   C     C_R   0.735142 0.005045 0.450480 -0.187694
C52   C     C_R   0.838450 0.053190 0.462268 -0.119715
C53   C     C_R   0.926577 0.064154 0.544147 -0.123409
C54   C     C_R   0.910907 0.024163 0.612270 -0.124203
C55   C     C_R   0.808344 0.977821 0.602333 -0.140409
C56   C     C_R   0.903960 0.408029 0.206841 -0.164447
C57   C     C_R   0.720577 0.971292 0.523565 0.119478
C58   C     C_3   0.479598 0.380685 0.885544 -0.417729
C59   C     C_3   0.377478 0.381613 0.879897 -0.406337
C60   C     C_3   0.596117 0.571360 0.061673 0.558084
C61   C     C_3   0.539252 0.552439 0.876388 -0.491055
C62   C     C_3   0.575239 0.500058 0.944393 0.213342
C63   C     C_3   0.400304 0.500984 0.937655 0.327825
C64   C     C_3   0.490452 0.561201 0.058217 -0.541998
C65   C     C_3   0.439226 0.559805 0.879042 -0.411254
C66   C     C_R   0.190228 0.077808 0.817273 -0.136015
C67   C     C_R   0.219601 0.750524 0.313091 -0.121806
C68   C     C_R   0.144085 0.082285 0.884299 -0.196825
C69   C     C_R   0.210420 0.145829 0.998060 0.122565
C70   C     C_R   0.323841 0.200186 0.043336 -0.159791
C71   C     C_R   0.369527 0.190902 0.975675 -0.184002
C72   C     C_R   0.302882 0.130821 0.862726 -0.087590
C73   C     C_R   0.169162 0.042435 0.084412 -0.234011
C74   C     C_R   0.097345 0.986776 0.111287 0.059975
C75   C     C_R   0.047883 0.039693 0.157384 0.023203
C76   C     C_R   0.059907 0.136457 0.159123 -0.240970
C77   C     C_R   0.099685 0.168515 0.096452 0.062219
C78   C     C_R   0.070032 0.255277 0.976222 -0.146093
C79   C     C_R   0.163635 0.126035 0.066067 0.024800
C80   C     C_R   0.857285 0.927727 0.110517 -0.160921
C81   C     C_R   0.782485 0.873259 0.135674 -0.200519
C82   C     C_R   0.818792 0.878718 0.236406 -0.069028
C83   C     C_R   0.929626 0.940906 0.312960 -0.112905
C84   C     C_R   0.004130 0.000046 0.290303 -0.201467
C85   C     C_R   0.968695 0.989996 0.187334 0.122138
C86   C     C_R   0.054306 0.226554 0.050470 0.056900
H1    H     H_    0.941921 0.240141 0.115363 0.098366
H2    H     H_    0.044341 0.677366 0.807982 0.119685
H3    H     H_    0.823148 0.174025 0.647236 0.132825
H4    H     H_    0.982582 0.825129 0.161216 0.135264
H5    H     H_    0.152667 0.835245 0.984565 0.101273
H6    H     H_    0.659564 0.167690 0.832225 0.087311
H7    H     H_    0.797619 0.677142 0.061109 0.102037
H8    H     H_    0.893920 0.325204 0.619923 0.103286
H9    H     H_    0.591527 0.995484 0.055984 0.091177
H10   H     H_    0.514726 0.119889 0.072647 0.109798
H11   H     H_    0.627053 0.313420 0.223848 0.094729
H12   H     H_    0.379569 0.775581 0.206025 0.092449
H13   H     H_    0.892504 0.255281 0.343362 0.116752
H14   H     H_    0.779566 0.063770 0.192599 0.139566
H15   H     H_    0.790274 0.351966 0.482429 0.133069
H16   H     H_    0.044257 0.672282 0.493509 0.123041
H17   H     H_    0.077973 0.818546 0.726666 0.120459
H18   H     H_    0.259417 0.950542 0.890982 0.142188
H19   H     H_    0.401038 0.898698 0.932552 0.093656
H20   H     H_    0.361622 0.712295 0.812021 0.100812
H21   H     H_    0.179212 0.576700 0.651357 0.106635
H22   H     H_    0.122076 0.012953 0.559972 0.090504
H23   H     H_    0.178221 0.323813 0.847389 0.099727
H24   H     H_    0.242701 0.104669 0.501970 0.099443
H25   H     H_    0.376493 0.051644 0.481102 0.111796
H26   H     H_    0.284106 0.828706 0.597576 0.132249
H27   H     H_    0.142482 0.874939 0.606832 0.119122
H28   H     H_    0.519957 0.020746 0.698535 0.124583
H29   H     H_    0.520611 0.816621 0.363224 0.127168
H30   H     H_    0.668662 0.001797 0.390040 0.120414
H31   H     H_    0.850642 0.084311 0.409558 0.127916
H32   H     H_    0.007033 0.103780 0.554874 0.096894
H33   H     H_    0.978802 0.032749 0.675409 0.104901
H34   H     H_    0.011055 0.674057 0.344278 0.105011
H35   H     H_    0.798653 0.952966 0.659736 0.110459
H36   H     H_    0.498144 0.335548 0.927020 0.150393
H37   H     H_    0.463575 0.333532 0.801298 0.169308
H38   H     H_    0.312750 0.336311 0.793112 0.160269
H39   H     H_    0.349307 0.338382 0.920491 0.182707
H40   H     H_    0.464409 0.517910 0.099668 0.180994
H41   H     H_    0.606504 0.636008 0.909216 0.154407
H42   H     H_    0.517894 0.501897 0.790803 0.190781
H43   H     H_    0.372533 0.521144 0.794572 0.166777
H44   H     H_    0.356314 0.676605 0.027398 0.086792
H45   H     H_    0.462012 0.647724 0.922805 0.145915
H46   H     H_    0.643145 0.657717 0.082894 0.036209
H47   H     H_    0.504720 0.645613 0.104266 0.132913
H48   H     H_    0.338542 0.124037 0.810592 0.125988
H49   H     H_    0.138663 0.028828 0.730186 0.106050
H50   H     H_    0.056834 0.033889 0.847991 0.116906
H51   H     H_    0.376577 0.243680 0.130645 0.114001
H52   H     H_    0.456589 0.228515 0.010542 0.101662
H53   H     H_    0.217095 0.010075 0.060057 0.124381
H54   H     H_    0.021944 0.175207 0.195416 0.124597
H55   H     H_    0.846523 0.323261 0.172693 0.123916
H56   H     H_    0.828826 0.920362 0.031046 0.119292
H57   H     H_    0.696623 0.826188 0.076725 0.108752
H58   H     H_    0.761228 0.834880 0.255309 0.130797
H59   H     H_    0.957846 0.942203 0.389307 0.123998
H60   H     H_    0.089588 0.047967 0.349680 0.116673
H61   H     H_    0.193819 0.749868 0.371426 0.118244
H62   H     H_    0.127876 0.254333 0.949976 0.124179
H63   H     H_    0.625127 0.321798 0.881736 0.097306
N1    N     N_R   0.947080 0.293830 0.002870 -0.041530
N2    N     N_R   0.054040 0.556820 0.847890 -0.042167
N3    N     N_R   0.848290 0.293830 0.791110 -0.041629
N4    N     N_R   0.995680 0.706170 0.053910 -0.046515
N5    N     N_R   0.052920 0.706170 0.997130 -0.042857
N6    N     N_R   0.791050 0.293830 0.847890 -0.039834
N7    N     N_R   0.846330 0.556820 0.053910 -0.035165
N8    N     N_R   0.997640 0.443180 0.791110 -0.040093
N9    N     N_R   0.208950 0.706170 0.152110 -0.040378
N10   N     N_R   0.153670 0.443180 0.946090 -0.036010
N11   N     N_R   0.002360 0.556820 0.208890 -0.043164
N12   N     N_R   0.210070 0.556820 0.002870 -0.034874
N13   N     N_R   0.945960 0.443180 0.152110 -0.040711
N14   N     N_R   0.151710 0.706170 0.208890 -0.044067
N15   N     N_R   0.004320 0.293830 0.946090 -0.040108
N16   N     N_R   0.789930 0.443180 0.997130 -0.039389
Ni1   Ni    Ni4+2 0.869690 0.369690 0.000000 0.208162
Ni2   Ni    Ni4+2 0.130310 0.630310 0.000000 0.214908
Ni3   Ni    Ni4+2 0.000970 0.369690 0.869780 0.214017
Ni4   Ni    Ni4+2 0.999030 0.630310 0.130220 0.225091
O1    O     O_3   0.664861 0.567196 0.149607 -0.616777
C87   C     C_3   0.625020 0.463949 0.142689 -0.224366
H64   H     H_    0.652230 0.413500 0.097958 0.149285
H65   H     H_    0.536007 0.417902 0.107186 0.121617
H66   H     H_    0.661546 0.478565 0.226682 0.166296

loop_
_geom_bond_atom_site_label_1
_geom_bond_atom_site_label_2
_ccdc_geom_bond_type
C58   C62   S    
C66   C68   A    
C87   H64   S    
C55   H35   S    
C1    H1    S    
N16   Ni1   S    
C18   H10   S    
C73   C74   A    
C3    C23   A    
C35   C36   A    
C2    C12   A    
C60   H46   S    
C63   C65   S    
C81   C82   A    
C19   H11   S    
C6    H2    S    
C20   C30   S    
C53   C54   A    
C78   N15   A    
C87   H65   S    
C26   C27   A    
C80   C85   A    
C18   C24   A    
N2    N8    A    
C28   C29   A    
C38   C39   A    
C21   H13   S    
C11   C14   A    
N2    Ni2   S    
C66   H49   S    
O1    C87   S    
N6    Ni1   S    
C14   C62   S    
C56   N13   A    
N7    Ni4   S    
C25   C30   A    
C5    H63   S    
N10   Ni3   S    
C60   C62   S    
C18   C19   A    
C41   C42   A    
C45   N12   A    
C65   H45   S    
C6    C15   A    
C83   H59   S    
C75   C85   S    
C66   C72   A    
C83   C84   A    
C68   C69   A    
C41   H26   S    
C23   N10   A    
N11   Ni4   S    
C32   H18   S    
C70   C71   A    
C51   C57   A    
C5    N16   A    
C38   H24   S    
C12   H12   S    
C4    C29   S    
C78   H62   S    
C52   H31   S    
C78   C86   A    
C39   H25   S    
C10   H6    S    
C45   H44   S    
N13   Ni1   S    
C21   C22   A    
C4    C56   A    
C36   H21   S    
C9    H5    S    
C61   C62   S    
N8    Ni3   S    
C13   N8    A    
N3    Ni3   S    
C44   C46   A    
N9    Ni2   S    
C71   H52   S    
C77   C79   A    
C34   H34   S    
C23   H23   S    
C87   H66   S    
C4    C34   A    
C58   H36   S    
N1    Ni1   S    
C22   H14   S    
C74   C75   A    
C51   C52   A    
C34   N11   A    
C68   H50   S    
C33   H19   S    
C76   C77   A    
C28   H16   S    
C82   H58   S    
C2    C67   A    
C24   H9    S    
C16   C46   S    
C39   C40   A    
C11   H7    S    
C53   H32   S    
C15   C26   S    
C73   H53   S    
C58   C59   S    
C3    C45   A    
C7    N3    A    
C31   H17   S    
C75   C76   A    
C29   C30   A    
C2    C49   S    
C67   N14   A    
C47   C57   S    
C42   H27   S    
C72   H48   S    
C47   C48   A    
N3    N6    A    
N15   Ni3   S    
N10   N12   A    
C58   H37   S    
C1    N1    A    
C61   H41   S    
C46   C47   A    
C84   C85   A    
C8    N4    A    
C5    C14   A    
N12   Ni2   S    
C11   N7    A    
C48   H29   S    
C6    N2    A    
N9    N14   A    
C9    C17   A    
C48   C49   A    
C77   C86   S    
C82   C83   A    
C64   H40   S    
C13   C15   A    
C67   H61   S    
C17   C74   S    
C59   H38   S    
C22   C24   A    
N5    Ni2   S    
C69   C79   S    
C8    H4    S    
C42   C43   A    
C56   H55   S    
C76   H54   S    
C52   C53   A    
C64   H47   S    
C44   C50   A    
C1    C86   A    
C54   C55   A    
C36   C37   A    
C59   C63   S    
C31   C32   A    
C7    C16   A    
C51   H30   S    
C80   C81   A    
C73   C79   A    
C10   N6    A    
C9    N5    A    
C65   H43   S    
C3    C63   S    
C59   H39   S    
N1    N15   A    
C80   H56   S    
C8    C17   A    
C13   H8    S    
C60   C64   S    
C60   O1    S    
C32   C33   A    
C19   C20   A    
C55   C57   A    
C25   C26   A    
C38   C43   A    
C35   H20   S    
C10   C16   A    
C25   H15   S    
N7    N16   A    
C27   C37   S    
C40   C50   S    
C33   C35   A    
C61   H42   S    
C43   H22   S    
C61   C65   S    
C69   C70   A    
N14   Ni4   S    
C44   H28   S    
C63   C64   S    
C31   C37   A    
C81   H57   S    
C71   C72   A    
C20   C21   A    
C70   H51   S    
C49   C50   A    
N4    Ni4   S    
C27   C28   A    
C40   C41   A    
C84   H60   S    
C12   N9    A    
N4    N5    A    
C54   H33   S    
N11   N13   A    
C7    H3    S    
