data_mof_unit_3999.cif
_audit_creation_date              2013-03-05T16:02:22-0500
_audit_creation_method            fapswitch 2.2
_symmetry_space_group_name_H-M    P1
_symmetry_Int_Tables_number       1
_space_group_crystal_system       triclinic
_cell_length_a                    14.909885
_cell_length_b                    14.205946
_cell_length_c                    10.648751
_cell_angle_alpha                 89.937292
_cell_angle_beta                  85.975021
_cell_angle_gamma                 90.326893
_cell_volume                      2249.89928535

loop_
_atom_site_label
_atom_site_type_symbol
_atom_site_description
_atom_site_fract_x
_atom_site_fract_y
_atom_site_fract_z
_atom_type_partial_charge
O1    O     O_R   0.367860 0.580280 0.500020 -0.632950
O2    O     O_R   0.367860 0.419720 0.500020 -0.612412
C1    C     C_R   0.327384 0.499712 0.502789 0.827047
O3    O     O_R   0.500000 0.580270 0.314790 -0.561379
O4    O     O_R   0.500000 0.419730 0.314790 -0.542704
C2    C     C_R   0.494691 0.500113 0.258257 0.863351
Zn1   Zn    Zn3+2 0.500020 0.607200 0.499990 1.034370
Zn2   Zn    Zn3+2 0.500020 0.392800 0.499990 1.044562
O5    O     O_R   0.632160 0.580270 0.499960 -0.567168
O6    O     O_R   0.632160 0.419730 0.499960 -0.570834
O7    O     O_R   0.500030 0.580270 0.685200 -0.641807
O8    O     O_R   0.500030 0.419730 0.685200 -0.647018
C3    C     C_R   0.673002 0.500266 0.496931 0.939337
C4    C     C_R   0.492890 0.500022 0.741803 0.829436
C5    C     C_3   0.453487 0.597548 0.073462 0.131076
C6    C     C_3   0.423556 0.421962 0.077181 0.126934
H1    H     H_    0.384036 0.606807 0.117667 0.111092
H2    H     H_    0.354220 0.443758 0.110249 0.138307
C7    C     C_3   0.447303 0.593781 0.930284 -0.453111
C8    C     C_3   0.428402 0.418545 0.932057 -0.446779
H3    H     H_    0.375583 0.598230 0.907856 0.158218
H4    H     H_    0.359428 0.424347 0.898920 0.162110
H5    H     H_    0.481655 0.656039 0.884848 0.243527
H6    H     H_    0.455713 0.350069 0.896731 0.239062
H7    H     H_    0.634172 0.535454 0.094374 0.268001
H8    H     H_    0.610782 0.413298 0.087632 0.272105
H9    H     H_    0.628040 0.549394 0.882201 0.231731
H10   H     H_    0.616521 0.423737 0.875545 0.203922
C9    C     C_3   0.585883 0.483213 0.060541 -0.240746
C10   C     C_3   0.490176 0.500465 0.121166 -0.171337
C11   C     C_3   0.488530 0.500357 0.878014 0.044854
C12   C     C_3   0.585721 0.488793 0.917462 -0.358646
C13   C     C_R   0.820740 0.510709 0.381130 0.337444
C14   C     C_R   0.768868 0.501063 0.495072 -0.140727
C15   C     C_R   0.807664 0.492976 0.609425 -0.190842
C16   C     C_R   0.900761 0.495283 0.613393 0.020118
C17   C     C_R   0.954295 0.501547 0.497972 -0.013472
C18   C     C_R   0.914292 0.509517 0.381853 -0.030826
C19   C     C_R   0.941768 0.488399 0.728947 0.313694
C20   C     C_R   0.035284 0.484729 0.727574 -0.223048
C21   C     C_R   0.088023 0.490610 0.614168 0.083696
C22   C     C_R   0.047887 0.498870 0.498363 0.049523
C23   C     C_R   0.101726 0.504454 0.383158 0.002097
C24   C     C_R   0.061399 0.509969 0.267676 0.297373
C25   C     C_R   0.968267 0.513357 0.268440 -0.131407
C26   C     C_R   0.180908 0.489674 0.614855 -0.224273
C27   C     C_R   0.232563 0.498834 0.501912 -0.038313
C28   C     C_R   0.194660 0.506600 0.387217 -0.149382
H11   H     H_    0.764082 0.483752 0.694288 0.177065
H12   H     H_    0.067033 0.479482 0.815840 0.223504
H13   H     H_    0.213272 0.483447 0.702681 0.138182
H14   H     H_    0.238585 0.515122 0.302487 0.159461
H15   H     H_    0.938675 0.516220 0.178657 0.257005
C29   C     C_R   0.568812 0.798607 0.435390 0.416591
C30   C     C_R   0.567519 0.202598 0.432220 0.402841
N1    N     N_R   0.500070 0.750030 0.500050 -0.154796
N2    N     N_R   0.500070 0.249970 0.500050 -0.154561
C31   C     C_R   0.432345 0.799108 0.565710 0.220473
C32   C     C_R   0.432768 0.200001 0.566458 0.230238
C33   C     C_R   0.429268 0.899189 0.559422 0.061375
C34   C     C_R   0.429504 0.099964 0.559779 0.062737
C35   C     C_R   0.498436 0.949581 0.491102 0.017931
C36   C     C_R   0.498443 0.050524 0.490925 0.018553
C37   C     C_R   0.567772 0.899228 0.424926 -0.215812
C38   C     C_R   0.567281 0.101785 0.423347 -0.219809
C39   C     C_R   0.358291 0.950294 0.620466 -0.155057
C40   C     C_R   0.358500 0.047972 0.620865 -0.150941
C41   C     C_R   0.632261 0.050502 0.347144 0.237330
C42   C     C_R   0.632670 0.950990 0.348308 0.234436
H16   H     H_    0.301071 0.915832 0.669106 0.168982
H17   H     H_    0.301496 0.081735 0.669951 0.169347
N3    N     N_R   0.507079 0.680267 0.105805 0.263812
O9    O     O_R   0.469264 0.746611 0.174714 -0.352710
O10   O     O_R   0.586005 0.696138 0.049265 -0.287766
N4    N     N_R   0.438032 0.327383 0.128185 0.246244
O11   O     O_R   0.375911 0.288606 0.203523 -0.342110
O12   O     O_R   0.508029 0.277967 0.090437 -0.320034
N5    N     N_R   0.113362 0.509679 0.148781 0.200612
O13   O     O_R   0.170247 0.442235 0.122339 -0.399431
O14   O     O_R   0.091708 0.565441 0.058860 -0.365799
N6    N     N_R   0.646714 0.748024 0.390186 0.235401
O15   O     O_R   0.720644 0.755474 0.447591 -0.333746
O16   O     O_R   0.644895 0.696148 0.290286 -0.250455
N7    N     N_R   0.642590 0.255239 0.379441 0.239388
O17   O     O_R   0.638008 0.297754 0.272204 -0.271142
O18   O     O_R   0.718514 0.253301 0.432648 -0.330940
C43   C     C_3   0.363122 0.748713 0.652188 -0.802894
H18   H     H_    0.359193 0.782048 0.746686 0.215508
H19   H     H_    0.296319 0.751219 0.612349 0.238038
H20   H     H_    0.379345 0.675733 0.670960 0.274831
C44   C     C_3   0.363562 0.249561 0.652779 -0.795941
H21   H     H_    0.360128 0.216594 0.747623 0.217643
H22   H     H_    0.379301 0.323022 0.670195 0.271682
H23   H     H_    0.296631 0.245603 0.613401 0.241025
N8    N     N_R   0.692437 0.097556 0.256546 0.256514
O19   O     O_R   0.778039 0.101292 0.272871 -0.241593
O20   O     O_R   0.664308 0.120741 0.147888 -0.255768
N9    N     N_R   0.693380 0.903973 0.259186 0.255651
O21   O     O_R   0.664610 0.874467 0.153573 -0.233331
O22   O     O_R   0.779228 0.904063 0.274143 -0.240791
N10   N     N_R   0.778551 0.516725 0.264689 0.173568
O23   O     O_R   0.757844 0.439125 0.208916 -0.326633
O24   O     O_R   0.786730 0.593812 0.198756 -0.274771
N11   N     N_R   0.890181 0.486800 0.848194 0.216568
O25   O     O_R   0.831345 0.552247 0.875686 -0.337194
O26   O     O_R   0.913555 0.431278 0.937372 -0.312318

loop_
_geom_bond_atom_site_label_1
_geom_bond_atom_site_label_2
_geom_bond_distance
_ccdc_geom_bond_type
C43   H18   1.110576 S    
C36   C38   1.410034 A    
N10   O23   1.298691 A    
C6    N4    1.471380 S    
C21   C22   1.413036 A    
N8    O19   1.300930 A    
C4    C11   1.447385 S    
N4    O11   1.301473 A    
C7    C11   1.553047 S    
C31   C43   1.510798 S    
N11   O26   1.301276 A    
N6    O15   1.301284 A    
C19   N11   1.437777 S    
C5    C7    1.534875 S    
C5    N3    1.471993 S    
C17   C18   1.414764 A    
C13   N10   1.431898 S    
C16   C17   1.420172 A    
C7    H3    1.114042 S    
N7    O18   1.301375 A    
C9    C12   1.525760 S    
O4    C2    1.295715 A    
Zn2   O6    2.004824 S    
O7    C4    1.289311 A    
N5    O14   1.301262 A    
N2    C32   1.379156 A    
C6    C10   1.582256 S    
C33   C35   1.410813 A    
C14   C15   1.389227 A    
C17   C22   1.396475 A    
C34   C36   1.411026 A    
O5    C3    1.291811 A    
C18   C25   1.404309 A    
C35   C37   1.408626 A    
C30   C38   1.435356 A    
C11   C12   1.546404 S    
C41   C42   1.413764 A    
C15   H11   1.082778 S    
C21   C26   1.385587 A    
C9    C10   1.545357 S    
C23   C28   1.389510 A    
Zn2   O8    2.009438 S    
C42   N9    1.433112 S    
C39   C40   1.387619 A    
C33   C39   1.408104 A    
N10   O24   1.300700 A    
Zn1   N1    2.029032 S    
O3    Zn1   2.009345 S    
N11   O25   1.301361 A    
N6    O16   1.296562 A    
Zn1   O7    2.008616 S    
H7    C9    1.108978 S    
C29   N1    1.375730 A    
C32   C34   1.423701 A    
C41   N8    1.432757 S    
C8    H6    1.112391 S    
H10   C12   1.114089 S    
N7    O17   1.297456 A    
N3    O10   1.302060 A    
C44   H21   1.110602 S    
N5    O13   1.301135 A    
C26   H13   1.085817 S    
O1    C1    1.290191 A    
C15   C16   1.391876 A    
C7    H5    1.112542 S    
C23   C24   1.408565 A    
C35   C36   1.433996 A    
Zn2   N2    2.029040 S    
C44   H22   1.087317 S    
C34   C40   1.408103 A    
C27   C28   1.385840 A    
C6    C8    1.542827 S    
C38   C41   1.423684 A    
C13   C14   1.398505 A    
C32   C44   1.510598 S    
C37   C42   1.422117 A    
N4    O12   1.301401 A    
O3    C2    1.293239 A    
C20   C21   1.396209 A    
C2    C10   1.466117 S    
C8    H4    1.113907 S    
N9    O22   1.300892 A    
C30   N2    1.375781 A    
C22   C23   1.420038 A    
C19   C20   1.394642 A    
C24   C25   1.389140 A    
C5    C10   1.582865 S    
C5    H1    1.115542 S    
C26   C27   1.387457 A    
H9    C12   1.113596 S    
O1    Zn1   2.005093 S    
C16   C19   1.415475 A    
O2    Zn2   2.009377 S    
O8    C4    1.292116 A    
N3    O9    1.301576 A    
O6    C3    1.292290 A    
O4    Zn2   2.008523 S    
N8    O20   1.300787 A    
C13   C18   1.395606 A    
C24   N5    1.437213 S    
O2    C1    1.289103 A    
C3    C14   1.428087 S    
C44   H23   1.110417 S    
C39   H16   1.080943 S    
C29   C37   1.433895 A    
C20   H12   1.084345 S    
C1    C27   1.414451 S    
N1    C31   1.380064 A    
C40   H17   1.080954 S    
C25   H15   1.081554 S    
Zn1   O5    2.009110 S    
C28   H14   1.083310 S    
H8    C9    1.107302 S    
C6    H2    1.114178 S    
N9    O21   1.300477 A    
C43   H20   1.087449 S    
C43   H19   1.110398 S    
C30   N7    1.424482 S    
C31   C33   1.424404 A    
C29   N6    1.424401 S    
C8    C11   1.549148 S    
