data_mof_unit_4388.cif
_audit_creation_date              2012-10-26T21:06:31-0400
_audit_creation_method            fapswitch 2.2
_symmetry_space_group_name_H-M    P1
_symmetry_Int_Tables_number       1
_space_group_crystal_system       triclinic
_cell_length_a                    15.856368
_cell_length_b                    10.786342
_cell_length_c                    9.59349
_cell_angle_alpha                 89.221694
_cell_angle_beta                  88.575982
_cell_angle_gamma                 91.209782
_cell_volume                      1639.76001429

loop_
_atom_site_label
_atom_site_type_symbol
_atom_type_description
_atom_site_fract_x
_atom_site_fract_y
_atom_site_fract_z
_atom_type_partial_charge
C1    C     C_R   0.497015 0.262485 0.500830 0.569820
C2    C     C_R   0.560556 0.566084 0.068149 0.105982
C3    C     C_R   0.339961 0.499723 0.501434 0.571209
C4    C     C_R   0.660038 0.500277 0.498566 0.571209
C5    C     C_3   0.969481 0.474375 0.627438 0.081027
C6    C     C_3   0.030519 0.525625 0.372562 0.081027
C7    C     C_3   0.025695 0.387136 0.541318 -0.131288
C8    C     C_3   0.974305 0.612864 0.458682 -0.131288
C9    C     C_1   0.250260 0.499370 0.504238 0.031375
C10   C     C_1   0.749740 0.500630 0.495762 0.031375
C11   C     C_3   0.027913 0.586565 0.589039 -0.131201
C12   C     C_R   0.502985 0.737514 0.499170 0.569820
C13   C     C_3   0.972087 0.413435 0.410961 -0.131201
C14   C     C_3   0.083079 0.499669 0.501276 0.012809
C15   C     C_3   0.916921 0.500331 0.498724 0.012809
C16   C     C_1   0.174712 0.499299 0.504013 0.016653
C17   C     C_1   0.825287 0.500701 0.495987 0.016653
C18   C     C_R   0.444290 0.060353 0.409408 0.041798
C19   C     C_R   0.555710 0.939647 0.590592 0.041797
C20   C     C_2   0.937009 0.445421 0.772508 0.597616
C21   C     C_2   0.062991 0.554579 0.227492 0.597616
C22   C     C_2   0.380640 0.118182 0.319281 0.578819
C23   C     C_R   0.451720 0.932178 0.406770 -0.149411
C24   C     C_2   0.619360 0.881817 0.680719 0.578819
C25   C     C_3   0.367555 0.362714 0.868658 -0.326617
C26   C     C_3   0.632445 0.637286 0.131342 -0.326617
C27   C     C_R   0.548280 0.067822 0.593230 -0.149412
C28   C     C_R   0.505552 0.871711 0.497441 -0.032157
C29   C     C_R   0.494448 0.128289 0.502559 -0.032157
C30   C     C_R   0.440444 0.434494 0.079728 0.048836
C31   C     C_R   0.559556 0.565506 0.920272 0.048836
C32   C     C_R   0.439444 0.433916 0.931851 0.105982
Cu1   Cu    Cu3+1 0.500000 0.500020 0.640660 0.990287
Cu2   Cu    Cu3+1 0.500000 0.499980 0.359340 0.990287
H1    H     H_    0.047549 0.294878 0.576048 0.140612
H2    H     H_    0.163515 0.577385 0.096124 0.346392
H3    H     H_    0.317458 0.112348 0.139400 0.338154
H4    H     H_    0.682542 0.887652 0.860600 0.338154
H5    H     H_    0.388608 0.304862 0.781405 0.186371
H6    H     H_    0.336703 0.297514 0.945774 0.090278
H7    H     H_    0.318200 0.427604 0.836276 0.152116
H8    H     H_    0.611392 0.695138 0.218595 0.186371
H9    H     H_    0.681800 0.572396 0.163723 0.152116
H10   H     H_    0.663297 0.702486 0.054226 0.090278
H11   H     H_    0.952451 0.705121 0.423951 0.140612
H12   H     H_    0.948438 0.343068 0.337235 0.142057
H13   H     H_    0.051562 0.656932 0.662765 0.142057
H14   H     H_    0.412280 0.878166 0.338317 0.174259
H15   H     H_    0.587720 0.121834 0.661683 0.174259
H16   H     H_    0.392830 0.383032 0.140614 0.159965
H17   H     H_    0.607170 0.616967 0.859386 0.159965
H18   H     H_    0.836485 0.422614 0.903876 0.346393
N1    N     N_R   0.500020 0.500030 0.852070 -0.231105
N2    N     N_R   0.499980 0.499970 0.147930 -0.231105
O1    O     O_R   0.500000 0.319660 0.618740 -0.520048
O2    O     O_R   0.850287 0.442814 0.802228 -0.688760
O3    O     O_2   0.013070 0.575711 0.135571 -0.478320
O4    O     O_R   0.149713 0.557186 0.197772 -0.688760
O5    O     O_2   0.342405 0.209109 0.358597 -0.524410
O6    O     O_R   0.362212 0.065525 0.190848 -0.696100
O7    O     O_2   0.657595 0.790891 0.641402 -0.524410
O8    O     O_R   0.637788 0.934475 0.809152 -0.696100
O9    O     O_R   0.500000 0.680340 0.381260 -0.520048
O10   O     O_R   0.499990 0.319630 0.381170 -0.472316
O11   O     O_R   0.500010 0.680370 0.618830 -0.472316
O12   O     O_R   0.379080 0.500000 0.618760 -0.525710
O13   O     O_R   0.620920 0.500000 0.381240 -0.525710
O14   O     O_R   0.379080 0.499970 0.381190 -0.468991
O15   O     O_R   0.620920 0.500030 0.618810 -0.468992
O16   O     O_2   0.986929 0.424289 0.864429 -0.478320

loop_
_geom_bond_atom_site_label_1
_geom_bond_atom_site_label_2
_ccdc_geom_bond_type
Cu2   O13   S    
Cu1   O1    S    
C4    O13   A    
C24   O8    S    
C21   O3    D    
C24   O7    D    
C3    C9    S    
C27   C29   A    
C19   C27   A    
C12   O11   A    
C11   H13   S    
C3    O14   A    
Cu1   O15   S    
C20   O2    S    
C22   O6    S    
Cu1   O12   S    
C25   C32   S    
Cu2   O10   S    
C19   C24   S    
C30   H16   S    
Cu1   O11   S    
C21   O4    S    
C2    C26   S    
C5    C20   S    
Cu2   O14   S    
C23   C28   A    
C31   N1    A    
C6    C13   S    
C30   C32   A    
C19   C28   A    
C30   N2    A    
Cu2   N2    S    
C20   O16   D    
C7    H1    S    
C12   C28   S    
C8    C11   S    
C1    C29   S    
C4    O15   A    
C9    C16   T    
Cu1   Cu2   S    
C26   H9    S    
C5    C11   S    
C8    C15   S    
H2    O4    S    
C13   C15   S    
C25   H6    S    
Cu1   N1    S    
C13   H12   S    
C11   C14   S    
C14   C16   S    
C1    O1    A    
C5    C15   S    
C3    O12   A    
C6    C14   S    
C10   C17   T    
C26   H10   S    
C18   C23   A    
H3    O6    S    
C1    O10   A    
H18   O2    S    
C32   N1    A    
C7    C13   S    
C26   H8    S    
C5    C7    S    
C2    N2    A    
C25   H7    S    
C22   O5    D    
C15   C17   S    
C12   O9    A    
C8    H11   S    
Cu2   O9    S    
C6    C8    S    
C23   H14   S    
C18   C22   S    
C6    C21   S    
C4    C10   S    
C7    C14   S    
C25   H5    S    
C27   H15   S    
C18   C29   A    
C31   H17   S    
C2    C31   A    
H4    O8    S    
