data_mof_unit_4561.cif
_audit_creation_date              2013-03-05T16:34:53-0500
_audit_creation_method            fapswitch 2.2
_symmetry_space_group_name_H-M    P1
_symmetry_Int_Tables_number       1
_space_group_crystal_system       triclinic
_cell_length_a                    15.053191
_cell_length_b                    9.084521
_cell_length_c                    7.799
_cell_angle_alpha                 90.093772
_cell_angle_beta                  89.999967
_cell_angle_gamma                 90.0
_cell_volume                      1066.5198527

loop_
_atom_site_label
_atom_site_type_symbol
_atom_site_description
_atom_site_fract_x
_atom_site_fract_y
_atom_site_fract_z
_atom_type_partial_charge
O1    O     O_R   0.500000 0.288390 0.642760 -0.565557
O2    O     O_R   0.500000 0.711610 0.357240 -0.565557
O3    O     O_R   0.500000 0.711610 0.642760 -0.581814
O4    O     O_R   0.500000 0.288390 0.357240 -0.581815
C1    C     C_R   0.500000 0.220058 0.499913 0.902233
C2    C     C_R   0.500000 0.779942 0.500087 0.902233
O5    O     O_R   0.370260 0.500000 0.642800 -0.567045
O6    O     O_R   0.629740 0.500000 0.357200 -0.567045
O7    O     O_R   0.629740 0.500000 0.642800 -0.567044
O8    O     O_R   0.370260 0.500000 0.357200 -0.567045
C3    C     C_R   0.328735 0.499999 0.500000 0.947859
C4    C     C_R   0.671265 0.500001 0.500000 0.947859
Cu1   Cu    Cu3+1 0.500000 0.500000 0.669080 1.103362
Cu2   Cu    Cu3+1 0.500000 0.500000 0.330920 1.103362
N1    N     N_1   0.500000 0.500000 0.076820 -0.025796
N2    N     N_1   0.500000 0.500000 0.923180 -0.025796
C5    C     C_R   0.813003 0.631676 0.466996 0.265110
C6    C     C_R   0.186997 0.368324 0.533004 0.265109
C7    C     C_R   0.813003 0.368324 0.533003 0.265111
C8    C     C_R   0.186997 0.631676 0.466997 0.265111
C9    C     C_R   0.767456 0.500000 0.500000 -0.208175
C10   C     C_R   0.232544 0.500000 0.500000 -0.208175
C11   C     C_R   0.906266 0.367642 0.532694 0.047056
C12   C     C_R   0.093734 0.632358 0.467306 0.047056
C13   C     C_R   0.906266 0.632359 0.467305 0.047057
C14   C     C_R   0.093734 0.367641 0.532695 0.047057
C15   C     C_R   0.953051 0.500000 0.500000 -0.004454
C16   C     C_R   0.046949 0.500000 0.500000 -0.004454
C17   C     C_R   0.953908 0.237643 0.564147 -0.140122
C18   C     C_R   0.046092 0.762357 0.435853 -0.140122
C19   C     C_R   0.953909 0.762357 0.435853 -0.140122
C20   C     C_R   0.046091 0.237643 0.564147 -0.140122
C21   C     C_1   0.500000 0.065399 0.499880 -0.045699
C22   C     C_1   0.500000 0.934601 0.500120 -0.045699
H1    H     H_    0.920698 0.134344 0.589308 0.208223
H2    H     H_    0.079302 0.865656 0.410692 0.208223
H3    H     H_    0.920698 0.865656 0.410691 0.208223
H4    H     H_    0.079301 0.134344 0.589309 0.208223
Cl1   Cl    Cl    0.751643 0.795270 0.428295 -0.574202
Cl2   Cl    Cl    0.248357 0.204730 0.571705 -0.574202
Cl3   Cl    Cl    0.751643 0.204732 0.571707 -0.574201
Cl4   Cl    Cl    0.248357 0.795268 0.428293 -0.574201

loop_
_geom_bond_atom_site_label_1
_geom_bond_atom_site_label_2
_geom_bond_distance
_ccdc_geom_bond_type
C13   C19   1.403619 A    
C8    Cl4   1.776067 S    
C14   C20   1.403619 A    
C20   H4    1.081513 S    
C13   C15   1.416966 A    
C12   C16   1.416966 A    
C17   H1    1.081513 S    
C3    C10   1.447975 S    
C14   C16   1.416966 A    
O3    Cu1   1.933638 S    
C18   H2    1.081513 S    
O6    C4    1.277128 A    
O3    C2    1.275037 A    
C5    C13   1.403923 A    
C21   C22   1.188248 T    
C6    C10   1.402951 A    
Cu1   Cu2   2.637311 S    
O5    C3    1.277128 A    
O2    C2    1.274449 A    
O1    C1    1.274449 A    
C11   C17   1.403620 A    
C7    C9    1.402951 A    
C8    C10   1.402951 A    
C17   C20   1.387648 A    
C11   C15   1.416966 A    
C1    C21   1.405001 S    
O4    Cu2   1.933639 S    
C18   C19   1.387648 A    
O2    Cu2   1.932970 S    
O7    C4    1.277128 A    
C12   C18   1.403620 A    
O1    Cu1   1.932971 S    
O8    C3    1.277128 A    
N1    N2    1.198239 T    
C2    C22   1.405001 S    
O5    Cu1   1.963728 S    
C5    Cl1   1.776068 S    
Cu1   N2    1.981725 S    
C15   C16   1.413478 A    
O7    Cu1   1.963726 S    
C7    C11   1.403923 A    
C6    Cl2   1.776068 S    
O6    Cu2   1.963726 S    
Cu2   N1    1.981725 S    
C4    C9    1.447975 S    
C8    C12   1.403923 A    
C5    C9    1.402951 A    
C7    Cl3   1.776067 S    
C19   H3    1.081513 S    
O4    C1    1.275037 A    
O8    Cu2   1.963728 S    
C6    C14   1.403923 A    
