data_mof_unit_1620.cif
_audit_creation_date              2012-12-10T17:16:45-0500
_audit_creation_method            fapswitch 2.2
_symmetry_space_group_name_H-M    P1
_symmetry_Int_Tables_number       1
_space_group_crystal_system       triclinic
_cell_length_a                    23.472612
_cell_length_b                    13.003052
_cell_length_c                    11.659995
_cell_angle_alpha                 99.17991
_cell_angle_beta                  93.684792
_cell_angle_gamma                 90.741337
_cell_volume                      3504.99752555

loop_
_atom_site_label
_atom_site_type_symbol
_atom_type_description
_atom_site_fract_x
_atom_site_fract_y
_atom_site_fract_z
_atom_type_partial_charge
C1    C     C_R   0.500062 0.299376 0.479219 0.824343
C2    C     C_R   0.499955 0.700625 0.520780 0.824400
C3    C     C_R   0.243717 0.583301 0.571551 -0.116898
C4    C     C_R   0.756273 0.416553 0.428637 -0.116863
C5    C     C_R   0.302888 0.579189 0.570807 -0.241415
C6    C     C_R   0.697102 0.420718 0.429317 -0.241466
C7    C     C_R   0.328624 0.497151 0.501444 -0.078365
C8    C     C_R   0.671371 0.502825 0.498577 -0.078326
C9    C     C_R   0.294491 0.416590 0.433343 -0.081009
C10   C     C_R   0.705507 0.583393 0.566658 -0.080996
C11   C     C_R   0.234366 0.421116 0.434182 -0.009132
C12   C     C_R   0.765633 0.578789 0.565930 -0.009005
C13   C     C_R   0.209345 0.505058 0.503683 0.315528
C14   C     C_R   0.790650 0.494793 0.496494 0.315420
C15   C     C_R   0.498146 0.813409 0.532263 -0.067455
C16   C     C_R   0.501905 0.186594 0.467734 -0.067626
C17   C     C_R   0.510448 0.018888 0.346173 -0.004892
C18   C     C_R   0.489631 0.981118 0.653827 -0.004889
C19   C     C_R   0.510317 0.127116 0.359724 -0.241111
C20   C     C_R   0.489749 0.872891 0.640275 -0.241040
C21   C     C_R   0.494517 0.138554 0.564525 -0.285396
C22   C     C_R   0.505548 0.861445 0.435471 -0.285406
C23   C     C_R   0.391045 0.498264 0.500307 0.810241
C24   C     C_R   0.608953 0.501741 0.499695 0.810317
C25   C     C_R   0.496267 0.030388 0.555401 0.099285
C26   C     C_R   0.503813 0.969615 0.444598 0.099207
C27   C     C_R   0.447108 0.399971 0.022870 -0.336026
C28   C     C_R   0.552883 0.600043 0.977132 -0.336027
C29   C     C_R   0.452286 0.409634 0.144921 0.069467
C30   C     C_R   0.547704 0.590379 0.855082 0.069416
C31   C     C_R   0.522692 0.543715 0.156527 0.033401
C32   C     C_R   0.477309 0.456284 0.843473 0.033415
C33   C     C_R   0.519176 0.536466 0.033805 0.065975
C34   C     C_R   0.480821 0.463538 0.966195 0.065952
C35   C     C_R   0.878177 0.554033 0.426858 0.545697
C36   C     C_R   0.121822 0.445826 0.573348 0.545640
C37   C     C_R   0.881836 0.429007 0.556666 0.519547
C38   C     C_R   0.118158 0.570771 0.443446 0.519694
C39   C     C_R   0.941727 0.431249 0.561467 -0.010045
C40   C     C_R   0.058268 0.568540 0.438663 -0.010080
C41   C     C_R   0.969884 0.497514 0.497662 -0.018150
C42   C     C_R   0.030111 0.502286 0.502482 -0.018156
C43   C     C_R   0.937960 0.559070 0.429102 -0.010928
C44   C     C_R   0.062039 0.440753 0.571070 -0.010897
C45   C     C_R   0.974002 0.370235 0.629577 -0.175436
C46   C     C_R   0.025994 0.629566 0.370568 -0.175432
C47   C     C_R   0.033546 0.374988 0.634390 -0.172998
C48   C     C_R   0.966452 0.624838 0.365786 -0.172981
Cu1   Cu    Cu3+1 0.504210 0.507730 0.615930 0.941406
Cu2   Cu    Cu3+1 0.495790 0.492270 0.384070 0.941423
H1    H     H_    0.953390 0.318848 0.679597 0.183056
H2    H     H_    0.046607 0.680959 0.320556 0.183059
H3    H     H_    0.448012 0.400373 0.790482 0.120503
H4    H     H_    0.551990 0.599623 0.209517 0.120503
H5    H     H_    0.573253 0.640223 0.812052 0.144855
H6    H     H_    0.426725 0.359803 0.187951 0.144908
H7    H     H_    0.417183 0.342975 0.973382 0.147795
H8    H     H_    0.582803 0.657048 0.026621 0.147777
H9    H     H_    0.057133 0.326815 0.687621 0.182389
H10   H     H_    0.942865 0.673035 0.312581 0.182399
H11   H     H_    0.224394 0.647228 0.625549 0.143391
H12   H     H_    0.775592 0.352584 0.374700 0.143440
H13   H     H_    0.328772 0.641006 0.623483 0.148512
H14   H     H_    0.671212 0.358890 0.376670 0.148496
H15   H     H_    0.513538 0.813784 0.353478 0.169571
H16   H     H_    0.486519 0.186211 0.646516 0.169596
H17   H     H_    0.484204 0.835015 0.715279 0.157272
H18   H     H_    0.515850 0.164995 0.284716 0.157326
N1    N     N_R   0.851534 0.491010 0.491525 -0.459210
N2    N     N_R   0.148462 0.508820 0.508644 -0.459212
N3    N     N_R   0.510550 0.519360 0.790130 -0.181700
N4    N     N_R   0.489450 0.480640 0.209870 -0.181717
O1    O     O_R   0.502990 0.354470 0.582000 -0.591882
O2    O     O_R   0.497010 0.645530 0.418000 -0.591879
O3    O     O_R   0.495870 0.341410 0.386200 -0.591019
O4    O     O_R   0.504130 0.658590 0.613800 -0.591033
O5    O     O_R   0.421440 0.506500 0.597920 -0.587207
O6    O     O_R   0.578560 0.493500 0.402080 -0.587213
O7    O     O_R   0.414320 0.493440 0.402120 -0.571090
O8    O     O_R   0.585680 0.506560 0.597880 -0.571122
O9    O     O_2   0.846821 0.612228 0.361515 -0.557765
O10   O     O_2   0.153180 0.387692 0.638757 -0.557840
O11   O     O_2   0.854062 0.366826 0.617988 -0.556994
O12   O     O_2   0.145929 0.632898 0.382059 -0.556959
C49   C     C_R   0.320922 0.324573 0.367294 0.118594
C50   C     C_R   0.315595 0.306407 0.245096 -0.117836
C51   C     C_R   0.336097 0.214726 0.183463 -0.172678
C52   C     C_R   0.361504 0.140438 0.243441 -0.114615
C53   C     C_R   0.366457 0.157777 0.365032 -0.118820
C54   C     C_R   0.346858 0.250030 0.426981 -0.172684
H19   H     H_    0.295104 0.362683 0.197916 0.131482
H20   H     H_    0.331928 0.201148 0.089285 0.128293
H21   H     H_    0.377010 0.069095 0.195998 0.124346
H22   H     H_    0.385194 0.099354 0.411294 0.144752
H23   H     H_    0.350414 0.262119 0.521282 0.121477
C55   C     C_R   0.679072 0.675488 0.632553 0.118519
C56   C     C_R   0.653274 0.750067 0.572724 -0.173048
C57   C     C_R   0.633636 0.842348 0.634536 -0.118777
C58   C     C_R   0.638409 0.859681 0.756131 -0.114347
C59   C     C_R   0.663688 0.785370 0.816250 -0.172800
C60   C     C_R   0.684234 0.693664 0.754757 -0.117759
H24   H     H_    0.649851 0.737976 0.478425 0.121649
H25   H     H_    0.614997 0.900786 0.588163 0.144706
H26   H     H_    0.622856 0.931031 0.803476 0.124364
H27   H     H_    0.667709 0.798935 0.910431 0.128192
H28   H     H_    0.704610 0.637357 0.802061 0.131463
C61   C     C_R   0.197241 0.337147 0.365638 0.103863
C62   C     C_R   0.194980 0.238141 0.398949 -0.076062
C63   C     C_R   0.159537 0.159366 0.334841 -0.133903
C64   C     C_R   0.126140 0.178994 0.237397 -0.107492
C65   C     C_R   0.128211 0.277406 0.203812 -0.132408
C66   C     C_R   0.163677 0.356334 0.267593 -0.163337
H29   H     H_    0.220418 0.222320 0.474729 0.142306
H30   H     H_    0.157867 0.083175 0.360837 0.136757
H31   H     H_    0.098666 0.117960 0.187924 0.129423
H32   H     H_    0.102373 0.292495 0.128288 0.138318
H33   H     H_    0.165161 0.432122 0.240474 0.159819
C67   C     C_R   0.802768 0.662672 0.634609 0.103869
C68   C     C_R   0.836372 0.643272 0.732513 -0.163372
C69   C     C_R   0.871850 0.722101 0.796437 -0.132404
C70   C     C_R   0.873882 0.820640 0.763163 -0.107510
C71   C     C_R   0.840445 0.840487 0.665864 -0.133916
C72   C     C_R   0.805003 0.761796 0.601584 -0.076026
H34   H     H_    0.834910 0.567387 0.759407 0.159931
H35   H     H_    0.897724 0.706835 0.871837 0.138343
H36   H     H_    0.901356 0.881604 0.812766 0.129425
H37   H     H_    0.842082 0.916780 0.640113 0.136763
H38   H     H_    0.779543 0.777783 0.525906 0.142252
C73   C     C_R   0.517083 0.961285 0.227573 0.097470
C74   C     C_R   0.472781 0.896036 0.168434 -0.176066
C75   C     C_R   0.478295 0.846635 0.054109 -0.117170
C76   C     C_R   0.527635 0.863068 0.997816 -0.092078
C77   C     C_R   0.571662 0.928301 0.055947 -0.132298
C78   C     C_R   0.566439 0.977448 0.170214 -0.152056
H39   H     H_    0.433933 0.884319 0.210498 0.129944
H40   H     H_    0.444137 0.796362 0.008773 0.131950
H41   H     H_    0.531735 0.825510 0.909153 0.121560
H42   H     H_    0.609708 0.941701 0.012420 0.117969
H43   H     H_    0.600674 0.028645 0.213835 0.125061
C79   C     C_R   0.482976 0.038724 0.772417 0.097439
C80   C     C_R   0.433608 0.022557 0.829734 -0.152053
C81   C     C_R   0.428351 0.071739 0.943973 -0.132274
C82   C     C_R   0.472363 0.136998 0.002128 -0.092048
C83   C     C_R   0.521715 0.153438 0.945876 -0.117172
C84   C     C_R   0.527258 0.104010 0.831572 -0.176105
H44   H     H_    0.399386 0.971335 0.786097 0.125051
H45   H     H_    0.390291 0.058352 0.987455 0.117944
H46   H     H_    0.468240 0.174578 0.090774 0.121596
H47   H     H_    0.555856 0.203743 0.991224 0.131965
H48   H     H_    0.566114 0.115743 0.789535 0.129923

loop_
_geom_bond_atom_site_label_1
_geom_bond_atom_site_label_2
_ccdc_geom_bond_type
C51   C52   A    
C38   N2    A    
C16   C21   A    
C37   N1    A    
C21   H16   S    
C27   C29   A    
C41   C42   A    
C20   H17   S    
C65   C66   A    
Cu2   O7    S    
C30   N3    A    
C35   O9    S    
C54   H23   S    
C39   C41   A    
C68   H34   S    
C40   C46   A    
C59   H27   S    
C17   C26   A    
C50   H19   S    
Cu2   O2    S    
C66   H33   S    
C13   N2    S    
C45   H1    S    
C82   C83   A    
C4    H12   S    
C71   H37   S    
C62   C63   A    
C5    H13   S    
C61   C66   A    
C45   C47   A    
C6    H14   S    
C53   H22   S    
Cu2   N4    S    
C67   C68   A    
C22   C26   A    
C9    C49   S    
C64   C65   A    
C80   C81   A    
C24   O8    A    
C15   C22   A    
C74   H39   S    
C36   O10   S    
C76   C77   A    
C61   C62   A    
C31   C33   A    
C48   H10   S    
C65   H32   S    
C35   C43   A    
C43   C48   A    
C84   H48   S    
C3    C13   A    
C44   C47   A    
C39   C45   A    
C29   N4    A    
C40   C42   A    
C58   H26   S    
C77   H42   S    
C55   C60   A    
C41   C43   A    
C15   C20   A    
C18   C25   A    
C42   C44   A    
Cu2   O6    S    
C36   N2    A    
C56   C57   A    
C32   N3    A    
C3    H11   S    
C27   C34   A    
C82   H46   S    
C46   C48   A    
C17   C73   S    
C1    O3    A    
C79   C80   A    
C4    C6    A    
C75   H40   S    
C27   H7    S    
C78   H43   S    
C5    C7    A    
C69   H35   S    
C17   C19   A    
C6    C8    A    
C76   H41   S    
C49   C50   A    
C32   C34   A    
C62   H29   S    
C22   H15   S    
C83   H47   S    
C58   C59   A    
C10   C55   S    
C49   C54   A    
C55   C56   A    
C33   C34   A    
Cu1   O4    S    
C19   H18   S    
C1    C16   S    
C23   O5    A    
C18   C79   S    
C2    C15   S    
C9    C11   A    
C70   C71   A    
C10   C12   A    
C63   H30   S    
C12   C67   S    
C80   H44   S    
C24   O6    A    
C31   N4    A    
C12   C14   A    
C28   C33   A    
Cu1   Cu2   S    
C11   C61   S    
C77   C78   A    
C14   N1    S    
Cu1   O1    S    
C36   C44   A    
C75   C76   A    
C53   C54   A    
C32   H3    S    
C2    O4    A    
C69   C70   A    
C73   C74   A    
C60   H28   S    
C7    C9    A    
C21   C25   A    
C52   H21   S    
C38   O12   S    
C50   C51   A    
C81   H45   S    
C56   H24   S    
C83   C84   A    
C3    C5    A    
C2    O2    A    
C79   C84   A    
C68   C69   A    
C29   H6    S    
C28   H8    S    
C30   H5    S    
Cu1   O8    S    
C1    O1    A    
C28   C30   A    
C74   C75   A    
C25   C26   A    
C70   H36   S    
C37   C39   A    
Cu2   O3    S    
C46   H2    S    
C38   C40   A    
C11   C13   A    
C72   H38   S    
C16   C19   A    
C7    C23   S    
C59   C60   A    
C8    C24   S    
Cu1   O5    S    
C18   C20   A    
C67   C72   A    
C31   H4    S    
C4    C14   A    
C47   H9    S    
C73   C78   A    
C52   C53   A    
C35   N1    A    
C8    C10   A    
C57   C58   A    
Cu1   N3    S    
C63   C64   A    
C81   C82   A    
C37   O11   S    
C23   O7    A    
C71   C72   A    
C51   H20   S    
C64   H31   S    
C57   H25   S    
