data_mof_unit_3149.cif
_audit_creation_date              2012-10-26T20:17:40-0400
_audit_creation_method            fapswitch 2.2
_symmetry_space_group_name_H-M    P1
_symmetry_Int_Tables_number       1
_space_group_crystal_system       triclinic
_cell_length_a                    27.806557
_cell_length_b                    8.666466
_cell_length_c                    7.472039
_cell_angle_alpha                 103.31579
_cell_angle_beta                  94.579234
_cell_angle_gamma                 93.005911
_cell_volume                      1741.98094703

loop_
_atom_site_label
_atom_site_type_symbol
_atom_type_description
_atom_site_fract_x
_atom_site_fract_y
_atom_site_fract_z
_atom_type_partial_charge
C1    C     C_R   0.498505 0.199592 0.452905 0.540716
C2    C     C_R   0.868365 0.361865 0.438443 0.023327
C3    C     C_R   0.354707 0.497901 0.506236 -0.020540
C4    C     C_R   0.645293 0.502077 0.493766 -0.020533
C5    C     C_R   0.970354 0.354841 0.446064 0.027956
C6    C     C_R   0.029645 0.645085 0.553946 0.027949
C7    C     C_R   0.978372 0.647752 0.549018 -0.011692
C8    C     C_R   0.021626 0.352177 0.450949 -0.011694
C9    C     C_R   0.949043 0.502805 0.495651 0.026380
C10   C     C_R   0.050955 0.497122 0.504339 0.026378
C11   C     C_R   0.939280 0.213933 0.392267 -0.146476
C12   C     C_R   0.501495 0.800408 0.547095 0.540717
C13   C     C_R   0.060718 0.785988 0.607820 -0.146469
C14   C     C_R   0.889526 0.217880 0.388560 -0.083985
C15   C     C_R   0.110472 0.782042 0.611519 -0.083978
C16   C     C_R   0.407547 0.499330 0.501814 0.547611
C17   C     C_R   0.592453 0.500667 0.498187 0.547616
C18   C     C_R   0.044685 0.208518 0.403899 -0.141862
C19   C     C_R   0.955313 0.791414 0.595995 -0.141856
C20   C     C_2   0.497841 0.031302 0.426737 -0.139386
C21   C     C_2   0.502159 0.968698 0.573263 -0.139386
C22   C     C_R   0.175200 0.352479 0.463351 0.444408
C23   C     C_R   0.102207 0.494476 0.508280 -0.075852
C24   C     C_R   0.824799 0.647450 0.536622 0.444457
C25   C     C_R   0.181953 0.635097 0.563186 0.447316
C26   C     C_R   0.818045 0.364829 0.436839 0.447272
C27   C     C_R   0.283686 0.519432 0.680087 0.307376
C28   C     C_R   0.716315 0.480619 0.319925 0.307385
C29   C     C_R   0.334141 0.520810 0.675461 -0.129942
C30   C     C_R   0.665861 0.479267 0.324551 -0.129938
C31   C     C_R   0.324398 0.472840 0.341108 -0.152759
C32   C     C_R   0.675600 0.527006 0.658885 -0.152738
C33   C     C_R   0.274437 0.470925 0.344972 -0.101067
C34   C     C_R   0.897791 0.505451 0.491712 -0.075848
C35   C     C_R   0.725561 0.528903 0.655021 -0.101075
C36   C     C_R   0.254028 0.494400 0.513443 0.277246
C37   C     C_R   0.745972 0.505533 0.486559 0.277268
C38   C     C_R   0.124222 0.349050 0.458660 0.058397
C39   C     C_R   0.875776 0.650879 0.541303 0.058398
C40   C     C_R   0.095027 0.205364 0.405779 0.251556
C41   C     C_R   0.904970 0.794567 0.594140 0.251555
C42   C     C_R   0.131633 0.638060 0.561585 0.023326
Cu1   Cu    Cu3+1 0.505380 0.517380 0.684380 1.068888
Cu2   Cu    Cu3+1 0.494620 0.482620 0.315620 1.068886
H1    H     H_    0.339233 0.454366 0.208755 0.141541
H2    H     H_    0.563646 0.700531 0.994662 0.327263
H3    H     H_    0.090616 0.973467 0.318464 0.317269
H4    H     H_    0.909382 0.026463 0.681461 0.317264
H5    H     H_    0.711756 0.441209 0.052189 0.312397
H6    H     H_    0.288249 0.559001 0.947838 0.312436
H7    H     H_    0.867597 0.106202 0.346459 0.205221
H8    H     H_    0.132402 0.893717 0.653666 0.205176
H9    H     H_    0.951705 0.096771 0.351396 0.113370
H10   H     H_    0.048294 0.903144 0.648783 0.113388
H11   H     H_    0.024670 0.094730 0.364456 0.088465
H12   H     H_    0.660763 0.545393 0.791228 0.141508
H13   H     H_    0.975326 0.905208 0.635335 0.088443
H14   H     H_    0.251385 0.451653 0.216830 0.161480
H15   H     H_    0.748611 0.548074 0.783153 0.161461
H16   H     H_    0.642840 0.460277 0.196292 0.133688
H17   H     H_    0.357164 0.539895 0.803726 0.133680
H18   H     H_    0.493818 0.958709 0.286013 0.151743
H19   H     H_    0.506181 0.041291 0.713987 0.151744
H20   H     H_    0.436354 0.299469 0.005338 0.327258
N1    N     N_R   0.202523 0.493901 0.514406 -0.391081
N2    N     N_R   0.797476 0.506028 0.485594 -0.391076
N3    N     N_2   0.486510 0.456430 0.038510 0.089793
N4    N     N_2   0.513490 0.543570 0.961490 0.089790
O1    O     O_R   0.503500 0.286120 0.619780 -0.462067
O2    O     O_2   0.802413 0.783582 0.581908 -0.382274
O3    O     O_2   0.789765 0.227536 0.388211 -0.430930
O4    O     O_2   0.210232 0.772391 0.611835 -0.430912
O5    O     O_3   0.453544 0.354614 0.924252 -0.590602
O6    O     O_3   0.546456 0.645386 0.075748 -0.590609
O7    O     O_3   0.116040 0.062320 0.355556 -0.630780
O8    O     O_3   0.883958 0.937613 0.644336 -0.630810
O9    O     O_3   0.737526 0.458644 0.155916 -0.658529
O10   O     O_3   0.262478 0.541487 0.844106 -0.658515
O11   O     O_R   0.496500 0.713880 0.380220 -0.462066
O12   O     O_R   0.494410 0.256780 0.308360 -0.521287
O13   O     O_R   0.505590 0.743220 0.691640 -0.521286
O14   O     O_R   0.434810 0.514700 0.655690 -0.463779
O15   O     O_R   0.565190 0.485300 0.344310 -0.463779
O16   O     O_R   0.425720 0.485350 0.344280 -0.528498
O17   O     O_R   0.574280 0.514650 0.655720 -0.528496
O18   O     O_2   0.197585 0.216348 0.418048 -0.382303

loop_
_geom_bond_atom_site_label_1
_geom_bond_atom_site_label_2
_ccdc_geom_bond_type
C33   H14   S    
C27   C29   A    
H4    O8    S    
Cu2   O15   S    
C24   C39   A    
C24   O2    S    
C39   C41   A    
C19   H13   S    
C23   C42   A    
C17   O17   A    
C35   C37   A    
C5    C11   A    
C11   C14   A    
N4    O6    S    
C22   C38   A    
C12   O11   A    
C16   O16   A    
C33   C36   A    
C35   H15   S    
C3    C29   A    
C18   C40   A    
Cu1   N4    S    
C30   H16   S    
H20   O5    S    
C31   C33   A    
N3    O5    S    
C11   H9    S    
C24   N2    A    
C2    C34   A    
Cu1   O1    S    
C26   O3    S    
H6    O10   S    
C29   H17   S    
N3    N4    D    
C26   N2    A    
C32   C35   A    
Cu2   O12   S    
C25   N1    A    
C36   N1    S    
C27   O10   S    
C12   C21   S    
C8    C18   A    
C34   C39   A    
C17   O15   A    
Cu1   O17   S    
Cu1   Cu2   S    
C22   N1    A    
C5    C9    A    
C14   H7    S    
C37   N2    S    
C16   O14   A    
C2    C26   A    
C25   O4    S    
C15   H8    S    
C3    C31   A    
C28   O9    S    
C4    C32   A    
C18   H11   S    
C4    C17   S    
C7    C19   A    
C13   C15   A    
C9    C34   A    
Cu1   O13   S    
H2    O6    S    
C13   H10   S    
C7    C9    A    
C1    C20   S    
Cu2   O11   S    
C15   C42   A    
Cu2   O16   S    
C25   C42   A    
C6    C10   A    
C5    C8    A    
C6    C7    A    
C10   C23   A    
C23   C38   A    
C40   O7    S    
C27   C36   A    
C28   C30   A    
H3    O7    S    
C6    C13   A    
C38   C40   A    
C28   C37   A    
H5    O9    S    
C12   O13   A    
C22   O18   S    
C20   H18   S    
C2    C14   A    
C1    O1    A    
C21   H19   S    
C20   C21   D    
C8    C10   A    
C31   H1    S    
Cu1   O14   S    
C1    O12   A    
Cu2   N3    S    
C32   H12   S    
C4    C30   A    
C3    C16   S    
C19   C41   A    
C41   O8    S    
