data_mof_unit_4718.cif
_audit_creation_date              2012-12-10T19:53:07-0500
_audit_creation_method            fapswitch 2.2
_symmetry_space_group_name_H-M    P1
_symmetry_Int_Tables_number       1
_space_group_crystal_system       triclinic
_cell_length_a                    14.955437
_cell_length_b                    14.179148
_cell_length_c                    15.734507
_cell_angle_alpha                 89.698312
_cell_angle_beta                  89.791637
_cell_angle_gamma                 90.483385
_cell_volume                      3336.3988598

loop_
_atom_site_label
_atom_site_type_symbol
_atom_type_description
_atom_site_fract_x
_atom_site_fract_y
_atom_site_fract_z
_atom_type_partial_charge
C1    C     C_R   0.327682 0.499734 0.499658 0.980191
C2    C     C_R   0.184544 0.425140 0.462420 0.280630
C3    C     C_R   0.231411 0.498849 0.502240 -0.394748
C4    C     C_R   0.046779 0.493544 0.510800 -0.180793
C5    C     C_R   0.907033 0.496547 0.429048 0.443294
C6    C     C_R   0.901598 0.497221 0.585174 0.443242
C7    C     C_R   0.499819 0.500196 0.338266 0.920968
C8    C     C_R   0.814362 0.496774 0.426704 0.217429
C9    C     C_R   0.809136 0.502526 0.582029 0.189121
C10   C     C_R   0.766503 0.500791 0.503037 -0.349512
C11   C     C_R   0.950294 0.494838 0.508516 -0.169286
C12   C     C_3   0.560518 0.429980 0.951222 -0.585349
C13   C     C_R   0.467169 0.107019 0.425664 0.459665
C14   C     C_R   0.418446 0.892054 0.474689 0.455136
C15   C     C_R   0.469303 0.206538 0.429706 -0.198367
C16   C     C_R   0.424081 0.792529 0.474741 -0.210278
C17   C     C_R   0.529374 0.201613 0.568546 0.607312
C18   C     C_R   0.572542 0.799236 0.525836 0.618563
C19   C     C_R   0.524733 0.102123 0.568267 -0.472927
C20   C     C_R   0.571135 0.898665 0.522375 -0.469672
C21   C     C_R   0.493868 0.053131 0.496758 0.016294
C22   C     C_R   0.494085 0.946764 0.496827 0.012809
C23   C     C_3   0.562594 0.432472 0.049206 -0.574976
C24   C     C_R   0.671573 0.500337 0.500457 1.092957
C25   C     C_R   0.499716 0.499797 0.661750 0.910024
C26   C     C_3   0.518964 0.603571 0.048797 0.257848
C27   C     C_3   0.398884 0.471152 0.050064 0.257855
C28   C     C_3   0.397942 0.474448 0.950988 0.255980
C29   C     C_3   0.522501 0.602274 0.949831 0.250635
C30   C     C_1   0.497514 0.499582 0.750445 -0.109281
C31   C     C_3   0.492587 0.503491 0.082923 0.032650
C32   C     C_3   0.492698 0.503144 0.917089 0.041712
C33   C     C_3   0.508952 0.053355 0.296221 0.041687
C34   C     C_1   0.495219 0.500600 0.825642 0.055836
C35   C     C_3   0.477843 0.997918 0.219160 -0.672653
C36   C     C_3   0.280083 0.933065 0.520344 0.088667
C37   C     C_3   0.197493 0.989820 0.497973 -0.793246
C38   C     C_3   0.648354 0.240621 0.651776 0.086241
C39   C     C_3   0.673753 0.278885 0.738640 -0.746031
C40   C     C_3   0.663888 0.761200 0.637024 0.114377
C41   C     C_3   0.763780 0.766347 0.654473 -0.745710
C42   C     C_3   0.035977 0.718075 0.527234 0.141299
C43   C     C_3   0.020423 0.808491 0.576408 -0.795918
C44   C     C_3   0.047695 0.265811 0.490071 0.127750
C45   C     C_1   0.495343 0.501601 0.174376 0.060540
C46   C     C_3   0.016942 0.179033 0.441537 -0.784325
C47   C     C_3   0.247908 0.628242 0.666354 0.164537
C48   C     C_3   0.301323 0.710099 0.702986 -0.724350
C49   C     C_3   0.222542 0.387062 0.327175 0.161804
C50   C     C_3   0.281852 0.324512 0.273158 -0.785406
C51   C     C_3   0.980443 0.581562 0.326750 0.082605
C52   C     C_3   0.020729 0.575830 0.238089 -0.685080
C53   C     C_3   0.964037 0.410305 0.691410 0.112241
C54   C     C_3   0.988976 0.413934 0.784916 -0.722213
C55   C     C_1   0.497699 0.500687 0.249569 -0.100174
C56   C     C_R   0.093091 0.570615 0.545750 0.375757
C57   C     C_R   0.092248 0.418685 0.472321 0.366628
C58   C     C_R   0.185931 0.570884 0.545279 0.273356
Cl1   Cl    Cl    0.466204 0.699027 0.898917 -0.509379
Cl2   Cl    Cl    0.309550 0.544189 0.906303 -0.511092
Cl3   Cl    Cl    0.759127 0.492383 0.327605 -0.600237
Cl4   Cl    Cl    0.747687 0.510446 0.677803 -0.669822
Cl5   Cl    Cl    0.451729 0.696243 0.092847 -0.442246
Cl6   Cl    Cl    0.306655 0.530137 0.100424 -0.500494
H1    H     H_    0.446713 0.246965 0.375756 0.179079
H2    H     H_    0.548633 0.360448 0.074831 0.216787
H3    H     H_    0.628758 0.445197 0.925773 0.231495
H4    H     H_    0.541712 0.357762 0.929820 0.217602
H5    H     H_    0.564878 0.013957 0.326332 0.146857
H6    H     H_    0.533743 0.123683 0.274177 0.135468
H7    H     H_    0.422777 0.035814 0.186807 0.251830
H8    H     H_    0.534247 0.989583 0.173799 0.205900
H9    H     H_    0.453602 0.926925 0.239254 0.279443
H10   H     H_    0.311026 0.965123 0.577892 0.139256
H11   H     H_    0.258611 0.859337 0.535100 0.163628
H12   H     H_    0.366789 0.751373 0.454869 0.202516
H13   H     H_    0.163199 0.958029 0.442426 0.259352
H14   H     H_    0.150536 0.990104 0.552792 0.195089
H15   H     H_    0.216858 0.063743 0.482369 0.271602
H16   H     H_    0.671709 0.166312 0.648475 0.111531
H17   H     H_    0.683530 0.283140 0.602112 0.172192
H18   H     H_    0.647748 0.351395 0.746459 0.288606
H19   H     H_    0.644705 0.233191 0.789391 0.236813
H20   H     H_    0.747655 0.280403 0.745272 0.209922
H21   H     H_    0.635799 0.697123 0.668452 0.212180
H22   H     H_    0.632572 0.824182 0.666871 0.110901
H23   H     H_    0.544435 0.063284 0.624550 0.189114
H24   H     H_    0.791828 0.833178 0.628153 0.220886
H25   H     H_    0.775859 0.764165 0.724040 0.230673
H26   H     H_    0.798382 0.706158 0.624262 0.292999
H27   H     H_    0.976043 0.703551 0.487662 0.116068
H28   H     H_    0.095090 0.730114 0.484873 0.140578
H29   H     H_    0.080413 0.825803 0.614919 0.257359
H30   H     H_    0.007636 0.867495 0.531502 0.195739
H31   H     H_    0.961863 0.799807 0.619357 0.263458
H32   H     H_    0.001022 0.276446 0.544209 0.102207
H33   H     H_    0.116111 0.251715 0.514880 0.153624
H34   H     H_    0.630756 0.938037 0.539494 0.185152
H35   H     H_    0.062967 0.165921 0.387380 0.267324
H36   H     H_    0.016861 0.116493 0.484335 0.193315
H37   H     H_    0.948214 0.189657 0.416945 0.261556
H38   H     H_    0.287581 0.562640 0.674619 0.126959
H39   H     H_    0.183990 0.621401 0.702531 0.192662
H40   H     H_    0.263450 0.776689 0.695688 0.228591
H41   H     H_    0.313878 0.697452 0.771504 0.288896
H42   H     H_    0.366447 0.717324 0.669294 0.249073
H43   H     H_    0.244941 0.461625 0.317395 0.133966
H44   H     H_    0.152517 0.378985 0.304461 0.196911
H45   H     H_    0.389239 0.396056 0.069481 0.065500
H46   H     H_    0.265704 0.249022 0.285323 0.269042
H47   H     H_    0.271095 0.340333 0.204787 0.230884
H48   H     H_    0.353115 0.338242 0.288263 0.240235
H49   H     H_    0.032276 0.611194 0.369602 0.098262
H50   H     H_    0.922176 0.630050 0.324240 0.161144
H51   H     H_    0.970698 0.546630 0.193123 0.270852
H52   H     H_    0.041333 0.647343 0.216100 0.212406
H53   H     H_    0.080359 0.529677 0.238838 0.244955
H54   H     H_    0.022280 0.382501 0.655766 0.105322
H55   H     H_    0.905871 0.361118 0.684603 0.132255
H56   H     H_    0.587761 0.620010 0.071623 0.087883
H57   H     H_    0.931918 0.440989 0.822744 0.271890
H58   H     H_    0.005772 0.342092 0.807941 0.192678
H59   H     H_    0.047882 0.461063 0.793849 0.264089
H60   H     H_    0.383129 0.401649 0.928427 0.078369
H61   H     H_    0.593718 0.612964 0.930781 0.090924
H62   H     H_    0.630871 0.452977 0.070732 0.233755
N1    N     N_R   0.499980 0.252470 0.500000 -0.148648
N2    N     N_R   0.499980 0.747530 0.500000 -0.154324
O1    O     O_R   0.369070 0.579480 0.500010 -0.603357
O2    O     O_3   0.339906 0.935197 0.450746 -0.553489
O3    O     O_3   0.554871 0.247603 0.641708 -0.581071
O4    O     O_3   0.650465 0.754371 0.548311 -0.587708
O5    O     O_3   0.048146 0.643184 0.585467 -0.544747
O6    O     O_3   0.045718 0.344871 0.435252 -0.547192
O7    O     O_3   0.231481 0.646833 0.579704 -0.597992
O8    O     O_3   0.229026 0.359478 0.413409 -0.575087
O9    O     O_3   0.954760 0.490169 0.353714 -0.525926
O10   O     O_3   0.944110 0.502308 0.663051 -0.518604
O11   O     O_R   0.369070 0.420520 0.500010 -0.579249
O12   O     O_R   0.500010 0.579510 0.377140 -0.594376
O13   O     O_R   0.500010 0.420490 0.377140 -0.640550
O14   O     O_R   0.630940 0.579480 0.499990 -0.549675
O15   O     O_R   0.630940 0.420520 0.499990 -0.625719
O16   O     O_R   0.500000 0.579440 0.622860 -0.634110
O17   O     O_R   0.500000 0.420560 0.622860 -0.564007
O18   O     O_3   0.436487 0.063439 0.353001 -0.559115
Zn1   Zn    Zn3+2 0.500010 0.606140 0.500000 1.010925
Zn2   Zn    Zn3+2 0.500010 0.393860 0.500000 1.004343

loop_
_geom_bond_atom_site_label_1
_geom_bond_atom_site_label_2
_ccdc_geom_bond_type
C41   H25   S    
C54   H59   S    
C29   H61   S    
C17   O3    S    
C18   O4    S    
C7    C55   S    
C46   H35   S    
C6    C9    A    
C56   O5    S    
C2    C57   A    
C49   H43   S    
C53   C54   S    
C12   H4    S    
C12   C23   S    
C51   H49   S    
C42   O5    S    
C23   H2    S    
C36   C37   S    
C19   C21   A    
C26   H56   S    
C39   H20   S    
C5    C11   A    
C29   C32   S    
C1    O1    A    
C7    O12   A    
C33   C35   S    
C24   O15   A    
C15   H1    S    
C50   H46   S    
C43   H30   S    
C42   H27   S    
C40   H22   S    
O13   Zn2   S    
C18   N2    A    
C48   H42   S    
C28   H60   S    
C29   Cl1   S    
C24   O14   A    
C4    C57   A    
C43   H31   S    
C9    C10   A    
C18   C20   A    
C1    O11   A    
C33   H5    S    
N1    Zn2   S    
C52   H53   S    
C52   H52   S    
C41   H26   S    
C54   H58   S    
C35   H7    S    
C26   C31   S    
C47   H38   S    
C15   N1    A    
C21   C22   S    
C12   C32   S    
C13   O18   S    
O16   Zn1   S    
O12   Zn1   S    
C12   H3    S    
C44   C46   S    
C49   H44   S    
C28   Cl2   S    
C44   O6    S    
O15   Zn2   S    
C46   H37   S    
O11   Zn2   S    
C51   H50   S    
C47   H39   S    
C30   C34   T    
C27   C31   S    
C53   O10   S    
C47   C48   S    
C28   C32   S    
C27   Cl6   S    
C6    C11   A    
C53   H54   S    
C17   N1    A    
C10   C24   S    
C37   H13   S    
C2    O8    S    
C51   C52   S    
C1    C3    S    
C32   C34   S    
C40   H21   S    
C6    O10   S    
C26   Cl5   S    
C44   H32   S    
C36   H11   S    
C36   O2    S    
C37   H15   S    
C44   H33   S    
C48   H41   S    
C50   H48   S    
C13   C21   A    
C4    C11   S    
C16   N2    A    
C27   H45   S    
C36   H10   S    
C33   H6    S    
C23   H62   S    
C51   O9    S    
C40   C41   S    
C49   O8    S    
C20   C22   A    
C35   H8    S    
C13   C15   A    
C38   H17   S    
C14   C16   A    
C57   O6    S    
C25   O16   A    
C42   C43   S    
C17   C19   A    
C7    O13   A    
O17   Zn2   S    
C14   O2    S    
C52   H51   S    
C25   C30   S    
C41   H24   S    
C46   H36   S    
C35   H9    S    
C47   O7    S    
C16   H12   S    
O14   Zn1   S    
C54   H57   S    
C39   H18   S    
C5    C8    A    
C53   H55   S    
N2    Zn1   S    
C5    O9    S    
C58   O7    S    
C37   H14   S    
C8    Cl3   S    
C19   H23   S    
C9    Cl4   S    
C38   O3    S    
C14   C22   A    
C2    C3    A    
C39   H19   S    
C38   C39   S    
C38   H16   S    
C50   H47   S    
C43   H29   S    
C56   C58   A    
C42   H28   S    
C40   O4    S    
O1    Zn1   S    
C33   O18   S    
C3    C58   A    
C20   H34   S    
C45   C55   T    
C26   C29   S    
C8    C10   A    
C49   C50   S    
C31   C45   S    
C27   C28   S    
C25   O17   A    
C4    C56   A    
C23   C31   S    
C48   H40   S    
