data_mof_unit_1347.cif
_audit_creation_date              2012-12-10T17:18:57-0500
_audit_creation_method            fapswitch 2.2
_symmetry_space_group_name_H-M    P1
_symmetry_Int_Tables_number       1
_space_group_crystal_system       triclinic
_cell_length_a                    10.180676
_cell_length_b                    10.739839
_cell_length_c                    13.680557
_cell_angle_alpha                 91.906997
_cell_angle_beta                  100.217087
_cell_angle_gamma                 96.331313
_cell_volume                      1460.98161478

loop_
_atom_site_label
_atom_site_type_symbol
_atom_type_description
_atom_site_fract_x
_atom_site_fract_y
_atom_site_fract_z
_atom_type_partial_charge
C1    C     C_R   0.055285 0.733553 0.496715 0.888096
C2    C     C_R   0.947956 0.267313 0.510266 0.921889
C3    C     C_R   0.438457 0.508209 0.127896 -0.233848
C4    C     C_R   0.514750 0.386308 0.891824 -0.227005
C5    C     C_R   0.305091 0.529875 0.098388 -0.219242
C6    C     C_R   0.639705 0.346171 0.923680 -0.213451
C7    C     C_2   0.092819 0.868807 0.506289 -0.060333
C8    C     C_2   0.922579 0.135567 0.528587 -0.083519
C9    C     C_2   0.015472 0.937062 0.551221 -0.169192
C10   C     C_2   0.029818 0.071904 0.549894 -0.201292
C11   C     C_2   0.430964 0.512147 0.507822 -0.104792
C12   C     C_2   0.568976 0.488657 0.491428 -0.110941
C13   C     C_R   0.095143 0.517187 0.685632 0.915036
C14   C     C_R   0.906045 0.485686 0.314631 0.940755
C15   C     C_R   0.147331 0.528964 0.792747 -0.136435
C16   C     C_R   0.851393 0.462500 0.209308 -0.124020
C17   C     C_R   0.116256 0.555768 0.964268 0.121549
C18   C     C_R   0.839043 0.343539 0.053185 0.129552
C19   C     C_R   0.063443 0.546485 0.861839 -0.313649
C20   C     C_R   0.905401 0.379675 0.150410 -0.312254
C21   C     C_R   0.284375 0.523208 0.826166 0.365112
C22   C     C_R   0.733429 0.512283 0.171429 0.354126
C23   C     C_R   0.329442 0.501489 0.926148 -0.069445
C24   C     C_R   0.652952 0.457677 0.083267 -0.077287
C25   C     C_R   0.249410 0.529255 0.997022 0.105301
C26   C     C_R   0.711197 0.381947 0.019388 0.097995
C27   C     C_R   0.454284 0.456651 0.956982 0.078168
C28   C     C_R   0.516601 0.477019 0.056882 0.082886
H1    H     H_    0.247223 0.549367 0.155163 0.171054
H2    H     H_    0.680762 0.289376 0.872312 0.170583
H3    H     H_    0.998406 0.342915 0.180107 0.171699
H4    H     H_    0.958671 0.557634 0.836142 0.179859
H5    H     H_    0.477649 0.510017 0.206868 0.195248
H6    H     H_    0.463055 0.356771 0.817191 0.199267
H7    H     H_    0.131521 0.118766 0.556365 0.200960
H8    H     H_    0.931647 0.892701 0.581837 0.163553
H9    H     H_    0.577954 0.414660 0.437874 0.164474
H10   H     H_    0.421943 0.586845 0.560740 0.193805
H11   H     H_    0.665269 0.623281 0.589346 0.159770
H12   H     H_    0.334766 0.376113 0.411183 0.158032
N1    N     N_2   0.322180 0.446120 0.460900 -0.194189
N2    N     N_2   0.677820 0.553880 0.539100 -0.186260
O1    O     O_R   0.935190 0.693030 0.507870 -0.612288
O2    O     O_R   0.064810 0.306970 0.492130 -0.632586
O3    O     O_R   0.142080 0.658430 0.482770 -0.612440
O4    O     O_R   0.857920 0.341570 0.517230 -0.594788
O5    O     O_R   0.969700 0.527180 0.651960 -0.633876
O6    O     O_R   0.030300 0.472820 0.348040 -0.631663
O7    O     O_R   0.176600 0.492580 0.626860 -0.538470
O8    O     O_R   0.823400 0.507420 0.373140 -0.553564
Zn1   Zn    Zn3+2 0.861850 0.523100 0.516760 0.959865
Zn2   Zn    Zn3+2 0.138150 0.476900 0.483240 0.949975
O9    O     O_3   0.703521 0.617847 0.219857 -0.772122
H13   H     H_    0.653753 0.668370 0.169758 0.333230
O10   O     O_3   0.373490 0.548950 0.761867 -0.778030
H14   H     H_    0.460271 0.589140 0.800741 0.328363
N3    N     N_3   0.035280 0.590341 0.034487 -0.447246
H15   H     H_    0.938154 0.600988 0.998000 0.191368
H16   H     H_    0.077146 0.678643 0.066830 0.175232
N4    N     N_3   0.898579 0.264983 0.990391 -0.456596
H17   H     H_    0.998535 0.257826 0.022305 0.193852
H18   H     H_    0.846714 0.174863 0.986832 0.173458
N5    N     N_3   0.786465 0.078032 0.520433 -0.455334
H19   H     H_    0.775111 0.040852 0.588515 0.190986
H20   H     H_    0.768551 0.004765 0.465716 0.203151
N6    N     N_3   0.204918 0.926989 0.466344 -0.457506
H21   H     H_    0.255737 0.858525 0.438266 0.195882
H22   H     H_    0.166152 0.976811 0.405550 0.189529

loop_
_geom_bond_atom_site_label_1
_geom_bond_atom_site_label_2
_ccdc_geom_bond_type
C11   H10   S    
O5    Zn1   S    
C11   C12   S    
N5    H20   S    
C10   H7    S    
C14   C16   S    
C23   C27   A    
H11   N2    S    
C1    O1    A    
C9    C10   S    
N1    Zn2   S    
N6    H22   S    
C18   C26   A    
C15   C21   A    
N2    Zn1   S    
C16   C20   A    
O7    Zn2   S    
C17   C25   A    
O2    Zn2   S    
O10   H14   S    
C21   C23   A    
N6    H21   S    
C3    C5    A    
C14   O8    A    
O9    H13   S    
C2    O4    A    
C7    N6    S    
C15   C19   A    
C1    O3    A    
N3    H15   S    
C6    C26   A    
O1    Zn1   S    
C13   O7    A    
C19   H4    S    
C22   C24   A    
C18   N4    S    
C3    C28   A    
C17   C19   A    
C24   C26   A    
C11   N1    D    
C22   O9    S    
C5    H1    S    
C13   C15   S    
C4    H6    S    
C5    C25   A    
N3    H16   S    
C4    C6    A    
C3    H5    S    
C8    N5    S    
C12   N2    D    
N5    H19   S    
C9    H8    S    
C7    C9    D    
O6    Zn2   S    
C4    C27   A    
C18   C20   A    
N4    H18   S    
C23   C25   A    
C2    O2    A    
C12   H9    S    
C21   O10   S    
C14   O6    A    
H12   N1    S    
C16   C22   A    
O3    Zn2   S    
O8    Zn1   S    
C1    C7    S    
C13   O5    A    
O4    Zn1   S    
C6    H2    S    
C8    C10   D    
C2    C8    S    
C24   C28   A    
C17   N3    S    
N4    H17   S    
C27   C28   A    
C20   H3    S    
