data_mof_unit_1038.cif
_audit_creation_date              2012-12-11T14:58:37-0500
_audit_creation_method            fapswitch 2.2
_symmetry_space_group_name_H-M    P1
_symmetry_Int_Tables_number       1
_space_group_crystal_system       triclinic
_cell_length_a                    10.927216
_cell_length_b                    10.949631
_cell_length_c                    18.787122
_cell_angle_alpha                 90.333529
_cell_angle_beta                  90.696326
_cell_angle_gamma                 59.919897
_cell_volume                      1944.98693496

loop_
_atom_site_label
_atom_site_type_symbol
_atom_type_description
_atom_site_fract_x
_atom_site_fract_y
_atom_site_fract_z
_atom_type_partial_charge
C1    C     C_R   0.357845 0.774224 0.397889 0.610339
C2    C     C_R   0.267710 0.465803 0.192717 0.055652
C3    C     C_R   0.271380 0.475374 0.267377 0.009416
C4    C     C_R   0.416433 0.379397 0.382681 0.592574
C5    C     C_R   0.919854 0.781676 0.388699 -0.082681
C6    C     C_R   0.959289 0.639441 0.391897 -0.107542
C7    C     C_R   0.066749 0.541186 0.348193 -0.066576
C8    C     C_R   0.142492 0.583389 0.304500 0.075765
C9    C     C_R   0.394255 0.373743 0.305428 0.028326
C10   C     C_R   0.843160 0.234921 0.294340 -0.113748
C11   C     C_R   0.866088 0.223304 0.221922 -0.119327
C12   C     C_R   0.609391 0.113075 0.164978 -0.062526
C13   C     C_R   0.867683 0.333528 0.185063 0.032055
C14   C     C_R   0.850752 0.452199 0.221476 -0.086883
C15   C     C_R   0.827014 0.463704 0.293019 -0.085091
C16   C     C_R   0.774540 0.380948 0.402229 0.580691
C17   C     C_R   0.824666 0.354539 0.330230 0.069073
C18   C     C_R   0.416109 0.731138 0.271622 0.207168
C19   C     C_R   0.395290 0.778500 0.201357 -0.066071
C20   C     C_R   0.311673 0.922064 0.186108 0.022533
C21   C     C_R   0.253927 0.022255 0.242021 0.227981
C22   C     C_R   0.271547 0.974308 0.312465 0.077155
C23   C     C_R   0.369527 0.341146 0.158635 0.023432
C24   C     C_R   0.348430 0.829171 0.326631 0.029734
C25   C     C_R   0.396112 0.190049 0.692956 0.219247
C26   C     C_R   0.387717 0.181478 0.766090 -0.114831
C27   C     C_R   0.293318 0.299784 0.805993 -0.023874
C28   C     C_R   0.345193 0.768797 0.604818 0.565155
C29   C     C_R   0.193227 0.422041 0.771162 -0.133546
C30   C     C_R   0.199962 0.433092 0.697659 0.035072
C31   C     C_R   0.312480 0.321398 0.659603 0.073237
C32   C     C_R   0.785702 0.463452 0.728047 -0.132107
C33   C     C_R   0.786191 0.458591 0.800758 -0.150864
C34   C     C_R   0.507892 0.268555 0.268020 -0.159509
C35   C     C_R   0.807443 0.336653 0.836094 0.038626
C36   C     C_R   0.799246 0.230733 0.796593 0.071224
C37   C     C_R   0.791942 0.239486 0.722285 -0.116313
C38   C     C_R   0.790787 0.353424 0.687697 0.010312
C39   C     C_R   0.195609 0.851506 0.710706 -0.116486
C40   C     C_R   0.366400 0.348410 0.594084 0.603494
C41   C     C_R   0.185504 0.861087 0.783864 -0.121212
C42   C     C_R   0.300663 0.843380 0.825248 0.027576
C43   C     C_R   0.428167 0.810962 0.792706 -0.145045
C44   C     C_R   0.439429 0.798070 0.719412 -0.130966
C45   C     C_R   0.494810 0.245188 0.196713 -0.053127
C46   C     C_R   0.323423 0.817218 0.678023 0.043211
C47   C     C_R   0.913478 0.314532 0.112432 0.532590
C48   C     C_R   0.330997 0.296297 0.091484 0.556524
C49   C     C_R   0.272648 0.962808 0.112122 0.539444
C50   C     C_R   0.876288 0.312017 0.906254 0.565123
C51   C     C_R   0.289740 0.281402 0.882366 0.568881
C52   C     C_R   0.759034 0.379075 0.611970 0.559244
C53   C     C_R   0.275696 0.893327 0.898066 0.553515
C54   C     C_R   0.769769 0.884392 0.074415 -0.125314
C55   C     C_R   0.773151 0.009881 0.066711 0.222492
C56   C     C_R   0.100178 0.727067 0.300779 -0.033733
C57   C     C_R   0.689084 0.124925 0.110266 -0.074565
C58   C     C_R   0.989705 0.825171 0.342677 -0.079949
C59   C     C_R   0.619915 0.980133 0.177885 0.326764
C60   C     C_R   0.693120 0.869416 0.129691 0.312494
Cr1   Cr    Cr6+3 0.601770 0.606860 0.505860 1.062636
Cr2   Cr    Cr6+3 0.291380 0.601660 0.495070 1.072336
Cr3   Cr    Cr6+3 0.606880 0.291510 0.499120 1.058537
Cr4   Cr    Cr6+3 0.062440 0.063090 0.008210 1.076537
Cr5   Cr    Cr6+3 0.062880 0.375170 0.998920 1.032473
Cr6   Cr    Cr6+3 0.374700 0.061720 0.992470 1.044741
H1    H     H_    0.604220 0.194854 0.295864 0.132713
H2    H     H_    0.456454 0.081075 0.791683 0.150759
H3    H     H_    0.110766 0.508737 0.800885 0.160659
H4    H     H_    0.777543 0.556727 0.703769 0.164152
H5    H     H_    0.782914 0.546869 0.828900 0.145493
H6    H     H_    0.783353 0.159665 0.691919 0.163892
H7    H     H_    0.104669 0.866305 0.679974 0.168626
H8    H     H_    0.963262 0.933595 0.341720 0.106454
H9    H     H_    0.085517 0.888350 0.807651 0.174132
H10   H     H_    0.517698 0.799227 0.823726 0.126252
H11   H     H_    0.540020 0.768984 0.695488 0.136027
H12   H     H_    0.836610 0.857742 0.422444 0.124647
H13   H     H_    0.827329 0.798122 0.037615 0.101704
H14   H     H_    0.681472 0.225726 0.099762 0.141857
H15   H     H_    0.154934 0.763063 0.267068 0.123757
H16   H     H_    0.533584 0.534846 0.243054 0.320136
H17   H     H_    0.192881 0.185421 0.180115 0.314477
H18   H     H_    0.730359 0.686556 0.095259 0.319592
H19   H     H_    0.545586 0.992634 0.686109 0.321767
H20   H     H_    0.912329 0.932132 0.991954 0.338733
H21   H     H_    0.510255 0.037645 0.265606 0.335140
H22   H     H_    0.907476 0.605208 0.428753 0.151780
H23   H     H_    0.097112 0.430969 0.351645 0.165717
H24   H     H_    0.834439 0.153983 0.321924 0.108665
H25   H     H_    0.886803 0.126792 0.195626 0.139126
H26   H     H_    0.860598 0.534475 0.195592 0.198072
H27   H     H_    0.803633 0.561869 0.318057 0.163127
H28   H     H_    0.439866 0.703059 0.158183 0.147922
I1    I     I_    0.187192 0.121974 0.397438 -0.344437
I2    I     I_    0.032051 0.619274 0.650552 -0.389860
I3    I     I_    0.778069 0.066820 0.843266 -0.385420
I4    I     I_    0.111732 0.641878 0.131806 -0.401484
O1    O     O_R   0.748800 0.497470 0.428000 -0.525992
O2    O     O_R   0.417600 0.174890 0.067840 -0.521762
O3    O     O_R   0.375320 0.946260 0.070860 -0.474017
O4    O     O_R   0.476420 0.724060 0.429470 -0.462741
O5    O     O_R   0.160600 0.919630 0.926660 -0.497722
O6    O     O_R   0.933060 0.190520 0.936020 -0.428355
O7    O     O_R   0.908880 0.403460 0.925020 -0.538086
O8    O     O_R   0.179600 0.361450 0.918490 -0.496712
O9    O     O_R   0.391510 0.170860 0.907530 -0.501578
O10   O     O_R   0.351130 0.942530 0.922260 -0.511337
O11   O     O_3   0.166667 0.166667 0.999870 -0.292622
O12   O     O_R   0.300070 0.471040 0.567100 -0.483437
O13   O     O_R   0.264580 0.744340 0.416750 -0.513688
O14   O     O_R   0.309380 0.472470 0.418200 -0.491092
O15   O     O_R   0.501710 0.260430 0.414300 -0.513915
O16   O     O_R   0.728090 0.305600 0.428960 -0.519509
O17   O     O_R   0.738760 0.495930 0.588610 -0.511234
O18   O     O_R   0.467110 0.722640 0.578360 -0.501813
O19   O     O_R   0.254530 0.742800 0.577360 -0.500269
O20   O     O_3   0.495737 0.589181 0.287685 -0.718304
O21   O     O_3   0.182161 0.166116 0.230308 -0.689091
O22   O     O_3   0.682853 0.749622 0.136235 -0.677921
O23   O     O_R   0.491670 0.258900 0.574910 -0.447689
O24   O     O_3   0.489413 0.073428 0.653714 -0.664143
O25   O     O_3   0.852913 0.024829 0.015216 -0.621239
O26   O     O_3   0.554311 0.955263 0.233685 -0.669232
O27   O     O_R   0.718780 0.304180 0.577850 -0.504722
O28   O     O_3   0.500010 0.500010 0.500020 -0.287087
O29   O     O_R   0.186690 0.923650 0.086970 -0.487043
O30   O     O_R   0.957250 0.194250 0.084630 -0.487638
O31   O     O_R   0.934970 0.407490 0.085330 -0.525254
O32   O     O_R   0.203780 0.365190 0.067090 -0.470425

loop_
_geom_bond_atom_site_label_1
_geom_bond_atom_site_label_2
_ccdc_geom_bond_type
C25   C31   A    
Cr4   O5    S    
C50   O6    A    
C23   C45   A    
C27   C29   A    
C22   I1    S    
C35   C36   A    
C57   H14   S    
Cr6   O9    S    
C8    C56   A    
Cr5   O32   S    
C47   O30   A    
C39   C41   A    
C54   C60   A    
C2    I4    S    
C40   O23   A    
C28   C46   S    
C26   C27   A    
C29   C30   A    
C5    C58   A    
C47   O31   A    
C18   C24   A    
C36   C37   A    
C37   C38   A    
C28   O19   A    
C42   C53   S    
C49   O3    A    
C5    C6    A    
C38   C52   S    
C10   C17   A    
H17   O21   S    
C7    H23   S    
C43   H10   S    
C6    H22   S    
C31   C40   S    
Cr4   O6    S    
C18   C19   A    
C41   C42   A    
Cr6   O2    S    
Cr2   O19   S    
C30   I2    S    
C28   O18   A    
Cr3   O16   S    
Cr2   O13   S    
C19   C20   A    
C27   C51   S    
C16   C17   S    
Cr4   O30   S    
Cr1   O17   S    
C50   O7    A    
C60   O22   S    
Cr1   O28   S    
C32   C38   A    
C25   O24   S    
C18   O20   S    
C4    O14   A    
C59   C60   A    
C13   C14   A    
C12   C59   A    
Cr6   O3    S    
C48   O32   A    
Cr1   O1    S    
C35   C50   S    
C49   O29   A    
H21   O26   S    
Cr5   O7    S    
Cr3   O23   S    
C44   C46   A    
C29   H3    S    
C48   O2    A    
C55   O25   S    
C4    O15   A    
C56   H15   S    
C3    C8    S    
C13   C47   S    
C40   O12   A    
C25   C26   A    
C43   C44   A    
C20   C49   S    
C3    C9    A    
C41   H9    S    
Cr5   O31   S    
Cr2   O12   S    
H18   O22   S    
Cr4   O29   S    
Cr5   O11   S    
Cr1   O18   S    
H19   O24   S    
C34   C45   A    
Cr3   O27   S    
C14   H26   S    
C36   I3    S    
C19   H28   S    
C39   C46   A    
C12   C57   A    
C55   C57   A    
C9    C34   A    
C22   C24   A    
C42   C43   A    
H16   O20   S    
Cr5   O8    S    
H20   O25   S    
C58   H8    S    
Cr2   O28   S    
C54   H13   S    
C52   O17   A    
C59   O26   S    
C15   C17   A    
C54   C55   A    
C44   H11   S    
C23   C48   S    
Cr6   O10   S    
C12   C45   S    
C16   O16   A    
C34   H1    S    
C15   H27   S    
C32   H4    S    
C52   O27   A    
C16   O1    A    
C6    C7    A    
C26   H2    S    
C32   C33   A    
C2    C3    A    
C4    C9    S    
C21   O21   S    
C1    O13   A    
C11   C13   A    
C53   O10   A    
Cr4   O11   S    
C30   C31   A    
C53   O5    A    
C51   O8    A    
C33   C35   A    
C56   C58   A    
Cr1   O4    S    
C39   H7    S    
Cr6   O11   S    
Cr3   O28   S    
C7    C8    A    
C10   C11   A    
C33   H5    S    
Cr3   O15   S    
C11   H25   S    
Cr2   O14   S    
C20   C21   A    
C10   H24   S    
C1    C24   S    
C51   O9    A    
C37   H6    S    
C2    C23   A    
C14   C15   A    
C5    H12   S    
C21   C22   A    
C1    O4    A    
