data_mof_unit_835.cif
_audit_creation_date              2012-12-11T15:47:09-0500
_audit_creation_method            fapswitch 2.2
_symmetry_space_group_name_H-M    P1
_symmetry_Int_Tables_number       1
_space_group_crystal_system       triclinic
_cell_length_a                    19.993048
_cell_length_b                    7.26203
_cell_length_c                    13.908396
_cell_angle_alpha                 89.60312
_cell_angle_beta                  102.752762
_cell_angle_gamma                 89.886962
_cell_volume                      1969.48740203

loop_
_atom_site_label
_atom_site_type_symbol
_atom_type_description
_atom_site_fract_x
_atom_site_fract_y
_atom_site_fract_z
_atom_type_partial_charge
O1    O     O_R   0.449560 0.506810 0.599700 -0.535198
O2    O     O_R   0.550440 0.006810 0.400300 -0.537521
O3    O     O_R   0.587960 0.180060 0.595760 -0.524318
O4    O     O_R   0.412040 0.680060 0.404240 -0.530972
C1    C     C_R   0.614988 0.343086 0.617423 0.814545
C2    C     C_R   0.385049 0.845196 0.382710 0.830677
O5    O     O_R   0.452380 0.177430 0.611700 -0.532508
O6    O     O_R   0.547620 0.677430 0.388300 -0.539287
O7    O     O_R   0.413900 0.001890 0.416350 -0.514824
O8    O     O_R   0.586100 0.501890 0.583650 -0.528149
C3    C     C_R   0.435416 0.345234 0.635530 0.807109
C4    C     C_R   0.564439 0.846129 0.363863 0.779199
O9    O     O_3   0.487530 0.337490 0.435890 -0.375819
O10   O     O_3   0.512470 0.837490 0.564110 -0.370384
V1    V     V_3+5 0.502310 0.064660 0.511890 1.699043
V2    V     V_3+5 0.497690 0.564660 0.488110 1.679447
C5    C     C_R   0.609429 0.959596 0.121755 0.454900
C6    C     C_R   0.390740 0.391515 0.882368 0.443854
C7    C     C_R   0.603028 0.860409 0.286067 -0.200121
C8    C     C_R   0.396324 0.354025 0.712006 -0.214870
C9    C     C_R   0.927078 0.780782 0.303058 0.291589
C10   C     C_R   0.066401 0.326948 0.686155 0.281388
C11   C     C_R   0.894568 0.781246 0.382348 0.412166
C12   C     C_R   0.100202 0.343156 0.608220 0.417170
C13   C     C_R   0.827142 0.847267 0.369079 0.186556
C14   C     C_R   0.170492 0.387195 0.626946 0.203305
C15   C     C_R   0.788788 0.891853 0.273309 -0.049484
C16   C     C_R   0.210207 0.382733 0.725662 -0.044869
C17   C     C_R   0.826316 0.934642 0.201015 -0.128999
C18   C     C_R   0.173760 0.392728 0.802352 -0.131341
C19   C     C_R   0.715449 0.903063 0.247290 0.038553
C20   C     C_R   0.283972 0.377683 0.752781 0.038243
C21   C     C_R   0.682137 0.972722 0.152499 -0.184004
C22   C     C_R   0.318067 0.384986 0.854345 -0.168401
C23   C     C_R   0.722520 0.065134 0.095777 0.431914
C24   C     C_R   0.278355 0.386550 0.925394 0.461767
C25   C     C_R   0.794381 0.054622 0.123739 0.331261
C26   C     C_R   0.209907 0.435188 0.897512 0.315010
C27   C     C_R   0.674200 0.839001 0.310707 -0.179994
C28   C     C_R   0.324901 0.346158 0.684402 -0.175372
C29   C     C_R   0.570255 0.914360 0.190616 0.329665
C30   C     C_R   0.429511 0.379583 0.810365 0.329798
C31   C     C_R   0.894795 0.865117 0.213229 -0.175308
C32   C     C_R   0.102008 0.364021 0.782770 -0.192566
H1    H     H_    0.696320 0.775027 0.380724 0.184008
H2    H     H_    0.302636 0.309024 0.609655 0.217164
C33   C     C_R   0.199373 0.986289 0.267605 0.377873
C34   C     C_R   0.783539 0.513046 0.769867 0.354478
C35   C     C_R   0.266508 0.989254 0.326840 0.355636
C36   C     C_R   0.712914 0.509000 0.727969 0.370890
C37   C     C_R   0.315063 0.852270 0.316329 -0.287313
C38   C     C_R   0.684241 0.344679 0.685832 -0.292648
C39   C     C_R   0.293421 0.708280 0.248868 0.256662
C40   C     C_R   0.721809 0.180822 0.715374 0.288454
C41   C     C_R   0.224658 0.696184 0.198108 0.293667
C42   C     C_R   0.779656 0.185194 0.794192 0.307934
C43   C     C_R   0.179475 0.847744 0.196279 -0.286004
C44   C     C_R   0.815535 0.353402 0.816326 -0.270724
O11   O     O_R   0.913920 0.203370 0.916260 -0.518647
O12   O     O_R   0.086080 0.703370 0.083740 -0.510866
O13   O     O_R   0.047620 0.535540 0.888290 -0.514481
O14   O     O_R   0.952380 0.035540 0.111710 -0.506292
C45   C     C_R   0.064320 0.368889 0.863035 0.810285
C46   C     C_R   0.932465 0.869821 0.133114 0.812886
O15   O     O_R   0.912040 0.532780 0.904220 -0.521625
O16   O     O_R   0.087960 0.032780 0.095780 -0.522896
O17   O     O_R   0.949550 0.708160 0.099720 -0.529943
O18   O     O_R   0.050450 0.208160 0.900280 -0.544021
C47   C     C_R   0.885342 0.364010 0.883116 0.854979
C48   C     C_R   0.112782 0.862210 0.121244 0.842478
O19   O     O_3   0.012480 0.375300 0.064060 -0.354498
O20   O     O_3   0.987520 0.875300 0.935940 -0.375013
V3    V     V_3+5 0.997690 0.648180 0.988110 1.777005
V4    V     V_3+5 0.002310 0.148180 0.011890 1.770017
Cl1   Cl    Cl    0.479581 0.923705 0.157245 -0.429059
Cl2   Cl    Cl    0.519969 0.395041 0.843145 -0.393033
Cl3   Cl    Cl    0.287200 0.163245 0.416527 -0.537594
Cl4   Cl    Cl    0.659616 0.650267 0.781677 -0.401704
Br1   Br    Br    0.357752 0.530548 0.218225 -0.227410
Br2   Br    Br    0.701492 0.956167 0.643656 -0.337500
Br3   Br    Br    0.192576 0.454541 0.152940 -0.300217
Br4   Br    Br    0.800294 0.967187 0.875123 -0.342927
Cl5   Cl    Cl    0.686017 0.227476 0.002761 -0.403298
Cl6   Cl    Cl    0.301049 0.242724 0.029963 -0.435692
Cl7   Cl    Cl    0.565830 0.974906 0.996424 -0.328942
Cl8   Cl    Cl    0.434336 0.439976 0.004805 -0.334344
Cl9   Cl    Cl    0.012325 0.697403 0.321117 -0.423603
Cl10  Cl    Cl    0.977793 0.275265 0.661631 -0.440445
Br5   Br    Br    0.803036 0.953628 0.482625 -0.318924
Br6   Br    Br    0.201245 0.512970 0.521432 -0.318691
Cl11  Cl    Cl    0.939893 0.708482 0.500412 -0.335987
Cl12  Cl    Cl    0.053392 0.313951 0.485862 -0.305196
Cl13  Cl    Cl    0.839352 0.247537 0.092992 -0.570329
Cl14  Cl    Cl    0.191382 0.651600 0.941280 -0.585814
Cl15  Cl    Cl    0.136866 0.137084 0.296232 -0.383790
Cl16  Cl    Cl    0.833928 0.669074 0.719127 -0.427796

loop_
_geom_bond_atom_site_label_1
_geom_bond_atom_site_label_2
_ccdc_geom_bond_type
C9    Cl9   S    
C15   C17   A    
O1    C3    A    
O2    C4    A    
C30   Cl2   S    
C2    O7    A    
C33   C35   A    
O5    C3    A    
C6    Cl8   S    
C5    Cl7   S    
C39   Br1   S    
C12   C14   A    
C6    C30   A    
C8    C28   A    
C33   C43   A    
O18   V4    S    
O16   V4    S    
C12   Cl12  S    
O12   V3    S    
O15   V3    S    
C18   C26   A    
O13   C45   A    
O14   C46   A    
C9    C31   A    
C10   C32   A    
C35   Cl3   S    
C35   C37   A    
C36   C38   A    
C19   C21   A    
C1    C38   S    
O17   V3    S    
C10   Cl10  S    
C2    C37   S    
C41   Br3   S    
C22   C24   A    
C27   H1    S    
C34   C36   A    
O6    V2    S    
C17   C31   A    
C18   C32   A    
C5    C21   A    
C36   Cl4   S    
C38   C40   A    
C31   C46   S    
C40   Br2   S    
C39   C41   A    
C32   C45   S    
C40   C42   A    
C3    C8    S    
C15   C19   A    
C46   O17   A    
C16   C20   A    
O4    C2    A    
C23   Cl5   S    
O13   V3    S    
C37   C39   A    
C20   C22   A    
O4    V2    S    
C28   H2    S    
C29   Cl1   S    
O12   C48   A    
O6    C4    A    
C26   Cl14  S    
C25   Cl13  S    
O1    V2    S    
C42   Br4   S    
O2    V1    S    
C6    C22   A    
O11   V4    S    
C7    C27   A    
O11   C47   A    
C41   C43   A    
C43   C48   S    
C10   C12   A    
C13   C15   A    
C24   C26   A    
C20   C28   A    
O3    V1    S    
C45   O18   A    
C34   Cl16  S    
C23   C25   A    
C14   C16   A    
O20   V3    S    
O3    C1    A    
O19   V4    S    
C8    C30   A    
C44   C47   S    
C34   C44   A    
C14   Br6   S    
C13   Br5   S    
C9    C11   A    
O7    V1    S    
C16   C18   A    
O8    V2    S    
O16   C48   A    
C24   Cl6   S    
O15   C47   A    
C4    C7    S    
O5    V1    S    
C21   C23   A    
C42   C44   A    
C11   Cl11  S    
C11   C13   A    
C5    C29   A    
C1    O8    A    
O9    V2    S    
C17   C25   A    
C19   C27   A    
C33   Cl15  S    
O10   V1    S    
O14   V4    S    
C7    C29   A    
