data_mof_unit_3624.cif
_audit_creation_date              2012-12-10T18:42:28-0500
_audit_creation_method            fapswitch 2.2
_symmetry_space_group_name_H-M    P1
_symmetry_Int_Tables_number       1
_space_group_crystal_system       triclinic
_cell_length_a                    8.582363
_cell_length_b                    10.670446
_cell_length_c                    9.927707
_cell_angle_alpha                 89.229992
_cell_angle_beta                  97.360442
_cell_angle_gamma                 91.056511
_cell_volume                      901.45486988

loop_
_atom_site_label
_atom_site_type_symbol
_atom_type_description
_atom_site_fract_x
_atom_site_fract_y
_atom_site_fract_z
_atom_type_partial_charge
C1    C     C_R   0.500505 0.260296 0.500749 0.957727
C2    C     C_R   0.499495 0.739704 0.499251 0.957647
C3    C     C_R   0.202397 0.495100 0.466231 0.933389
C4    C     C_R   0.797605 0.504883 0.533769 0.933248
C5    C     C_2   0.040403 0.468576 0.457379 -0.290549
C6    C     C_2   0.959600 0.531389 0.542623 -0.290483
C7    C     C_R   0.423791 0.065525 0.388336 -0.280397
C8    C     C_R   0.576208 0.934475 0.611664 -0.280434
C9    C     C_R   0.423484 0.937048 0.386392 0.673072
C10   C     C_R   0.576515 0.062952 0.613608 0.673039
C11   C     C_R   0.499937 0.872224 0.498356 -0.277101
C12   C     C_R   0.500063 0.127776 0.501644 -0.277113
C13   C     C_R   0.618939 0.558355 0.082340 -0.214119
C14   C     C_R   0.381063 0.441637 0.917665 -0.214077
C15   C     C_R   0.618267 0.557430 0.939255 0.625796
C16   C     C_R   0.381736 0.442567 0.060750 0.625699
H1    H     H_    0.363109 0.116273 0.302449 0.249612
H2    H     H_    0.636891 0.883727 0.697551 0.249594
N1    N     N_R   0.499960 0.499970 0.857200 -0.161890
N2    N     N_R   0.500040 0.500030 0.142800 -0.161926
O1    O     O_R   0.499990 0.316750 0.614620 -0.520462
O2    O     O_R   0.500010 0.683250 0.385380 -0.520500
O3    O     O_R   0.499990 0.316780 0.385290 -0.615094
O4    O     O_R   0.500010 0.683220 0.614710 -0.615090
O5    O     O_R   0.271750 0.499990 0.587840 -0.662801
O6    O     O_R   0.728250 0.500010 0.412160 -0.663013
O7    O     O_R   0.271750 0.500010 0.358510 -0.520863
O8    O     O_R   0.728250 0.499990 0.641490 -0.520832
Zn1   Zn    Zn3+2 0.500000 0.499980 0.653120 1.082259
Zn2   Zn    Zn3+2 0.500000 0.500020 0.346880 1.082184
C17   C     C_2   0.981007 0.352175 0.382784 0.470658
H3    H     H_    0.871403 0.306736 0.400907 0.071330
O9    O     O_2   0.057064 0.303287 0.302488 -0.477205
C18   C     C_2   0.018991 0.647804 0.617191 0.470827
H4    H     H_    0.128450 0.693322 0.598954 0.071305
O10   O     O_2   0.943088 0.696608 0.697588 -0.477291
F1    F     F_    0.345532 0.876548 0.277723 -0.612282
F2    F     F_    0.654468 0.123452 0.722276 -0.612311
C19   C     C_2   0.752219 0.623149 0.162121 0.612000
H5    H     H_    0.871255 0.603455 0.143574 0.084662
O11   O     O_2   0.731181 0.705371 0.241458 -0.520014
C20   C     C_2   0.247780 0.376810 0.837912 0.611845
H6    H     H_    0.128776 0.396327 0.856626 0.084881
O12   O     O_2   0.268787 0.294744 0.758412 -0.520096
F3    F     F_    0.734559 0.617642 0.882514 -0.607386
F4    F     F_    0.265453 0.382352 0.117500 -0.607446

loop_
_geom_bond_atom_site_label_1
_geom_bond_atom_site_label_2
_ccdc_geom_bond_type
C2    O2    A    
C4    O6    A    
C17   O9    D    
C1    O1    A    
C17   H3    S    
C10   F2    S    
C14   C20   S    
C9    F1    S    
C20   O12   D    
C19   O11   D    
N2    Zn2   S    
O7    Zn2   S    
C15   N1    A    
C9    C11   A    
C5    C6    D    
C1    C12   S    
C10   C12   A    
C8    C11   A    
C2    C11   S    
C3    O7    A    
O8    Zn1   S    
C4    O8    A    
C1    O3    A    
C18   O10   D    
C13   C15   A    
C2    O4    A    
C7    C12   A    
C14   C16   A    
C13   C19   S    
C20   H6    S    
C15   F3    S    
C16   N2    A    
N1    Zn1   S    
O3    Zn2   S    
C3    O5    A    
O5    Zn1   S    
C4    C6    S    
C18   H4    S    
C16   F4    S    
C19   H5    S    
C7    C9    A    
O4    Zn1   S    
O2    Zn2   S    
C13   N2    A    
C5    C17   S    
O1    Zn1   S    
C14   N1    A    
C8    C10   A    
C8    H2    S    
C6    C18   S    
C3    C5    S    
O6    Zn2   S    
C7    H1    S    
