data_mof_unit_2900.cif
_audit_creation_date              2012-10-26T17:13:06-0400
_audit_creation_method            fapswitch 2.2
_symmetry_space_group_name_H-M    P1
_symmetry_Int_Tables_number       1
_space_group_crystal_system       triclinic
_cell_length_a                    16.853324
_cell_length_b                    16.853316
_cell_length_c                    16.85333
_cell_angle_alpha                 67.516658
_cell_angle_beta                  67.51681
_cell_angle_gamma                 67.51694
_cell_volume                      3927.40772355

loop_
_atom_site_label
_atom_site_type_symbol
_atom_type_description
_atom_site_fract_x
_atom_site_fract_y
_atom_site_fract_z
_atom_type_partial_charge
C1    C     C_R   0.311440 0.001068 0.436707 0.037769
C2    C     C_R   0.320323 0.451615 0.962104 -0.044501
C3    C     C_R   0.536768 0.412429 0.001311 0.035736
C4    C     C_R   0.008043 0.456035 0.589071 -0.007914
C5    C     C_R   0.001215 0.536802 0.412461 0.035770
C6    C     C_R   0.998903 0.688570 0.563305 0.037737
C7    C     C_R   0.962085 0.320327 0.451624 -0.044520
C8    C     C_R   0.454025 0.992520 0.449886 -0.057086
C9    C     C_R   0.550113 0.007476 0.545975 -0.057088
C10   C     C_R   0.992485 0.449899 0.454037 -0.057087
C11   C     C_R   0.007440 0.545987 0.550128 -0.057084
C12   C     C_R   0.449878 0.454017 0.992544 -0.057082
C13   C     C_R   0.545968 0.550105 0.007502 -0.057084
C14   C     C_R   0.015593 0.830894 0.569051 0.842275
C15   C     C_R   0.679678 0.037896 0.548382 -0.044520
C16   C     C_R   0.973247 0.171372 0.434977 0.796091
C17   C     C_R   0.830891 0.569048 0.015601 0.842259
C18   C     C_R   0.171372 0.434977 0.973247 0.796102
C19   C     C_R   0.569049 0.015599 0.830892 0.842264
C20   C     C_R   0.434977 0.973246 0.171372 0.796104
C21   C     C_R   0.430950 0.169106 0.984404 0.842284
C22   C     C_R   0.565023 0.828628 0.026753 0.796097
C23   C     C_R   0.984398 0.430952 0.169109 0.842250
C24   C     C_R   0.026752 0.565023 0.828628 0.796107
C25   C     C_R   0.169107 0.984403 0.430950 0.842268
C26   C     C_R   0.001034 0.436724 0.311450 0.037783
C27   C     C_R   0.828628 0.026752 0.565023 0.796102
C28   C     C_R   0.405629 0.984452 0.402400 -0.038800
C29   C     C_R   0.597600 0.015545 0.594370 -0.038808
C30   C     C_R   0.984426 0.402410 0.405639 -0.038798
C31   C     C_R   0.015517 0.594379 0.597611 -0.038796
C32   C     C_R   0.402394 0.405624 0.984470 -0.038796
C33   C     C_R   0.594365 0.597593 0.015564 -0.038795
C34   C     C_R   0.264012 0.986056 0.391597 -0.093577
C35   C     C_R   0.730993 0.036531 0.600125 -0.113241
C36   C     C_R   0.986043 0.391604 0.264017 -0.093588
C37   C     C_R   0.037889 0.548387 0.679678 -0.044488
C38   C     C_R   0.036530 0.600128 0.730993 -0.113256
C39   C     C_R   0.391595 0.264010 0.986062 -0.093579
C40   C     C_R   0.600124 0.730991 0.036537 -0.113246
C41   C     C_R   0.608400 0.013947 0.735987 -0.093583
C42   C     C_R   0.399874 0.963463 0.269008 -0.113251
C43   C     C_R   0.735985 0.608397 0.013953 -0.093588
C44   C     C_R   0.269007 0.399873 0.963468 -0.113255
C45   C     C_R   0.013931 0.735993 0.608407 -0.093575
C46   C     C_R   0.963461 0.269009 0.399877 -0.113244
C47   C     C_R   0.485354 0.967436 0.730681 0.362101
C48   C     C_R   0.436700 0.311435 0.001082 0.037775
C49   C     C_R   0.547302 0.944024 0.291558 0.377372
C50   C     C_R   0.967364 0.730698 0.485393 0.362102
C51   C     C_R   0.944028 0.291551 0.547307 0.377379
C52   C     C_R   0.730673 0.485344 0.967458 0.362107
C53   C     C_R   0.291556 0.547299 0.944037 0.377377
C54   C     C_R   0.269315 0.032591 0.514627 0.362097
C55   C     C_R   0.708451 0.055952 0.452699 0.377378
C56   C     C_R   0.514617 0.269307 0.032612 0.362080
C57   C     C_R   0.452695 0.708447 0.055969 0.377374
C58   C     C_R   0.032526 0.514665 0.269332 0.362120
C59   C     C_R   0.548378 0.679674 0.037910 -0.044511
C60   C     C_R   0.055958 0.452703 0.708445 0.377373
C61   C     C_R   0.308757 0.969831 0.307941 -0.269323
C62   C     C_R   0.692058 0.030167 0.691242 -0.269333
C63   C     C_R   0.969830 0.307943 0.308759 -0.269323
C64   C     C_R   0.030166 0.691244 0.692059 -0.269328
C65   C     C_R   0.307941 0.308756 0.969833 -0.269327
C66   C     C_R   0.691242 0.692057 0.030169 -0.269321
C67   C     C_R   0.672048 0.025701 0.410880 0.084753
C68   C     C_R   0.320241 0.014161 0.572459 -0.016547
C69   C     C_R   0.025708 0.410880 0.672044 0.084799
C70   C     C_R   0.563287 0.998940 0.688558 0.037791
C71   C     C_R   0.014067 0.572498 0.320268 -0.016533
C72   C     C_R   0.410875 0.672042 0.025721 0.084801
C73   C     C_R   0.572448 0.320232 0.014191 -0.016539
C74   C     C_R   0.589126 0.974268 0.327962 0.084772
C75   C     C_R   0.427523 0.985877 0.679750 -0.016528
C76   C     C_R   0.327958 0.589121 0.974286 0.084803
C77   C     C_R   0.679739 0.427511 0.985911 -0.016530
C78   C     C_R   0.974274 0.327958 0.589128 0.084781
C79   C     C_R   0.985779 0.679775 0.427564 -0.016563
C80   C     C_R   0.714675 0.015617 0.323962 -0.191421
C81   C     C_R   0.451618 0.962092 0.320326 -0.044505
C82   C     C_R   0.281816 0.009787 0.663826 -0.192622
C83   C     C_R   0.015642 0.323955 0.714666 -0.191397
C84   C     C_R   0.009646 0.663876 0.281858 -0.192716
C85   C     C_R   0.323958 0.714670 0.015634 -0.191394
C86   C     C_R   0.663812 0.281804 0.009826 -0.192599
C87   C     C_R   0.676049 0.984340 0.285338 -0.191420
C88   C     C_R   0.336149 0.990282 0.718165 -0.192671
C89   C     C_R   0.285335 0.676044 0.984356 -0.191382
C90   C     C_R   0.718152 0.336135 0.990322 -0.192687
C91   C     C_R   0.984364 0.285327 0.676043 -0.191397
C92   C     C_R   0.688553 0.563280 0.998956 0.037793
C93   C     C_R   0.990138 0.718206 0.336201 -0.192581
C94   C     C_R   0.543974 0.991923 0.410940 -0.007921
C95   C     C_R   0.463214 0.998735 0.587556 0.035762
C96   C     C_R   0.991909 0.410944 0.543981 -0.007924
C97   C     C_R   0.998667 0.587576 0.463240 0.035715
C98   C     C_R   0.410933 0.543967 0.991946 -0.007919
C99   C     C_R   0.587546 0.463204 0.998765 0.035767
C100  C     C_R   0.589065 0.008057 0.456030 -0.007928
C101  C     C_R   0.412439 0.001282 0.536778 0.035740
C102  C     C_R   0.456023 0.589057 0.008081 -0.007919
Cu1   Cu    Cu3+1 0.995180 0.995180 0.424630 1.011300
Cu2   Cu    Cu3+1 0.004820 0.004820 0.575370 1.011250
Cu3   Cu    Cu3+1 0.995180 0.424630 0.995180 1.011203
Cu4   Cu    Cu3+1 0.004820 0.575370 0.004820 1.011213
Cu5   Cu    Cu3+1 0.424630 0.995180 0.995180 1.011214
Cu6   Cu    Cu3+1 0.575370 0.004820 0.004820 1.011250
H1    H     H_    0.271163 0.965153 0.270963 0.192135
H2    H     H_    0.972527 0.220373 0.712171 0.180475
H3    H     H_    0.788953 0.305724 0.983669 0.145625
H4    H     H_    0.220389 0.712177 0.972501 0.180474
H5    H     H_    0.211009 0.016468 0.694225 0.145678
H6    H     H_    0.779627 0.027461 0.287832 0.180489
H7    H     H_    0.694209 0.210997 0.016511 0.145686
H8    H     H_    0.287830 0.779623 0.027476 0.180470
H9    H     H_    0.016297 0.694288 0.211058 0.145638
H10   H     H_    0.027501 0.287820 0.779611 0.180474
H11   H     H_    0.430595 0.876601 0.826018 0.319878
H12   H     H_    0.729036 0.034846 0.728836 0.192135
H13   H     H_    0.568160 0.847920 0.243755 0.311501
H14   H     H_    0.876390 0.825963 0.430776 0.319823
H15   H     H_    0.847924 0.243743 0.568174 0.311505
H16   H     H_    0.826014 0.430561 0.876643 0.319877
H17   H     H_    0.243760 0.568161 0.847927 0.311505
H18   H     H_    0.174015 0.123495 0.569316 0.319853
H19   H     H_    0.756229 0.152077 0.431823 0.311506
H20   H     H_    0.569286 0.174005 0.123520 0.319891
H21   H     H_    0.431829 0.756252 0.152074 0.311506
H22   H     H_    0.123354 0.569449 0.174002 0.319854
H23   H     H_    0.965162 0.270961 0.271162 0.192131
H24   H     H_    0.152071 0.431842 0.756236 0.311505
H25   H     H_    0.034854 0.728835 0.729034 0.192134
H26   H     H_    0.270965 0.271164 0.965149 0.192133
H27   H     H_    0.728838 0.729038 0.034841 0.192132
H28   H     H_    0.305740 0.983624 0.788967 0.145636
H29   H     H_    0.712181 0.972487 0.220391 0.180487
H30   H     H_    0.983443 0.789016 0.305808 0.145738
O1    O     O_R   0.124540 0.978640 0.385460 -0.600941
O2    O     O_R   0.124540 0.385460 0.978640 -0.584891
O3    O     O_R   0.021360 0.875460 0.614540 -0.600951
O4    O     O_R   0.978640 0.124540 0.385460 -0.584896
O5    O     O_R   0.013780 0.867370 0.487190 -0.534908
O6    O     O_R   0.986220 0.132630 0.512810 -0.526655
O7    O     O_R   0.867370 0.487190 0.013780 -0.534976
O8    O     O_R   0.132630 0.512810 0.986220 -0.526667
O9    O     O_R   0.487190 0.013780 0.867370 -0.534970
O10   O     O_R   0.512810 0.986220 0.132630 -0.526645
O11   O     O_R   0.512810 0.132630 0.986220 -0.534943
O12   O     O_R   0.875460 0.021360 0.614540 -0.584905
O13   O     O_R   0.487190 0.867370 0.013780 -0.526664
O14   O     O_R   0.986220 0.512810 0.132630 -0.534965
O15   O     O_R   0.013780 0.487190 0.867370 -0.526668
O16   O     O_R   0.132630 0.986220 0.512810 -0.534945
O17   O     O_R   0.867370 0.013780 0.487190 -0.526618
O18   O     O_3   0.476862 0.905572 0.813932 -0.705946
O19   O     O_3   0.602114 0.887240 0.238758 -0.718599
O20   O     O_3   0.905531 0.813964 0.476894 -0.705931
O21   O     O_3   0.887248 0.238747 0.602124 -0.718587
O22   O     O_3   0.813920 0.476852 0.905588 -0.705936
O23   O     O_R   0.978640 0.385460 0.124540 -0.600938
O24   O     O_3   0.238760 0.602114 0.887249 -0.718600
O25   O     O_3   0.186060 0.094447 0.523116 -0.705939
O26   O     O_3   0.761249 0.112737 0.397881 -0.718595
O27   O     O_3   0.523106 0.186049 0.094462 -0.705988
O28   O     O_3   0.397879 0.761249 0.112750 -0.718593
O29   O     O_3   0.094398 0.523161 0.186086 -0.705906
O30   O     O_3   0.112749 0.397889 0.761237 -0.718604
O31   O     O_R   0.021360 0.614540 0.875460 -0.584891
O32   O     O_R   0.385460 0.124540 0.978640 -0.600947
O33   O     O_R   0.614540 0.875460 0.021360 -0.584894
O34   O     O_R   0.614540 0.021360 0.875460 -0.600936
O35   O     O_R   0.385460 0.978640 0.124540 -0.584897
O36   O     O_R   0.875460 0.614540 0.021360 -0.600938

loop_
_geom_bond_atom_site_label_1
_geom_bond_atom_site_label_2
_ccdc_geom_bond_type
C52   O22   S    
Cu3   O15   S    
C23   O14   A    
H11   O18   S    
C6    C45   A    
C32   C48   A    
C74   C94   A    
C17   O7    A    
H17   O24   S    
C61   H1    S    
C50   C79   A    
C72   C85   A    
C75   C95   A    
C50   O20   S    
C89   H4    S    
C60   O30   S    
H15   O21   S    
H21   O28   S    
C90   H3    S    
C83   H10   S    
C16   O6    A    
C55   O26   S    
C79   C93   A    
C80   C87   A    
Cu1   O1    S    
C53   O24   S    
C57   C59   A    
C54   C68   A    
C47   O18   S    
C76   C98   A    
C21   O32   A    
C3    C99   A    
C2    C32   A    
C49   C81   A    
C93   H30   S    
C4    C96   A    
H22   O29   S    
C78   C96   A    
C84   H9    S    
C56   O27   S    
C1    C28   A    
C24   C38   S    
Cu5   Cu6   S    
C20   O10   A    
C3    C12   A    
C63   H23   S    
C54   O25   S    
C35   C62   A    
C36   C63   A    
C8    C101  A    
C9    C95   A    
C62   H12   S    
C22   O33   A    
C9    C29   A    
C25   C34   S    
Cu5   O13   S    
C6    C31   A    
C25   O16   A    
C14   O3    A    
C11   C31   A    
C33   C59   A    
C7    C30   A    
H13   O19   S    
C12   C32   A    
C39   C65   A    
C49   O19   S    
C44   C65   A    
C42   C81   A    
C41   C62   A    
C87   H29   S    
C15   C35   A    
C4    C69   A    
C1    C34   A    
C15   C29   A    
C14   C45   S    
C38   C64   A    
C27   O17   A    
C77   C90   A    
H19   O26   S    
Cu4   O14   S    
C7    C46   A    
C8    C94   A    
C68   C101  A    
C88   H28   S    
C86   C90   A    
C33   C92   A    
C2    C44   A    
C85   C89   A    
C52   C77   A    
C57   O28   S    
Cu5   O35   S    
C27   C35   S    
C10   C96   A    
C98   C102  A    
C34   C61   A    
C19   O9    A    
C17   O36   A    
C31   C37   A    
C86   H7    S    
C15   C55   A    
C13   C99   A    
C16   O4    A    
C1    C54   A    
C17   C43   S    
C47   C70   A    
C13   C33   A    
C37   C38   A    
C69   C83   A    
C18   C44   S    
Cu5   O9    S    
C10   C30   A    
C55   C67   A    
C20   O35   A    
C21   C39   S    
C94   C100  A    
C66   H27   S    
C22   C40   S    
C71   C84   A    
Cu2   O6    S    
Cu4   O36   S    
C19   O34   A    
C4    C11   A    
C18   O2    A    
C24   O31   A    
C26   C58   A    
C42   C61   A    
H14   O20   S    
C67   C100  A    
Cu1   O17   S    
C80   H6    S    
C26   C30   A    
C27   O12   A    
C21   O11   A    
Cu6   O34   S    
H20   O27   S    
C74   C87   A    
Cu4   O31   S    
Cu3   O23   S    
C52   C92   A    
C53   C76   A    
C22   O13   A    
C16   C46   S    
H18   O25   S    
Cu1   O4    S    
C24   O15   A    
C91   H2    S    
C29   C70   A    
C26   C36   A    
C48   C56   A    
C64   H25   S    
C23   O23   A    
C56   C73   A    
C6    C50   A    
C25   O1    A    
C28   C81   A    
Cu2   O3    S    
C12   C98   A    
C79   C97   A    
C85   H8    S    
C67   C80   A    
H24   O30   S    
C82   H5    S    
C5    C97   A    
C18   O8    A    
C2    C53   A    
Cu1   O5    S    
C20   C42   S    
Cu2   O12   S    
C78   C91   A    
C9    C100  A    
C83   C91   A    
Cu3   Cu4   S    
C76   C89   A    
C45   C64   A    
C43   C92   A    
Cu4   O8    S    
C46   C63   A    
C11   C97   A    
C68   C82   A    
C14   O5    A    
C51   C78   A    
C7    C51   A    
C5    C10   A    
C5    C71   A    
Cu3   O2    S    
C72   C102  A    
C60   C69   A    
C43   C66   A    
C82   C88   A    
H16   O22   S    
C51   O21   S    
C77   C99   A    
C65   H26   S    
C84   C93   A    
C57   C72   A    
C3    C73   A    
C73   C86   A    
C37   C60   A    
C58   C71   A    
C47   C75   A    
Cu6   O11   S    
C95   C101  A    
C75   C88   A    
C8    C28   A    
C23   C36   S    
Cu6   O33   S    
Cu1   Cu2   S    
C40   C59   A    
C58   O29   S    
C49   C74   A    
C41   C70   A    
C40   C66   A    
Cu2   O16   S    
C13   C102  A    
Cu3   O7    S    
C19   C41   S    
C39   C48   A    
Cu6   O10   S    
Cu5   O32   S    
