data_mof_unit_4661.cif
_audit_creation_date              2013-03-05T16:12:21-0500
_audit_creation_method            fapswitch 2.2
_symmetry_space_group_name_H-M    P1
_symmetry_Int_Tables_number       1
_space_group_crystal_system       triclinic
_cell_length_a                    6.935176
_cell_length_b                    21.761956
_cell_length_c                    22.18993
_cell_angle_alpha                 107.638315
_cell_angle_beta                  90.514261
_cell_angle_gamma                 90.50555
_cell_volume                      3191.16704127

loop_
_atom_site_label
_atom_site_type_symbol
_atom_site_description
_atom_site_fract_x
_atom_site_fract_y
_atom_site_fract_z
_atom_type_partial_charge
O1    O     O_R   0.505730 0.449200 0.552060 -0.602996
O2    O     O_R   0.171560 0.427840 0.423150 -0.599524
O3    O     O_R   0.005630 0.550800 0.447940 -0.593311
C1    C     C_R   0.338259 0.409398 0.398758 0.934204
O4    O     O_R   0.175730 0.441570 0.550050 -0.596379
O5    O     O_R   0.009820 0.564620 0.575740 -0.588691
C2    C     C_R   0.344761 0.427961 0.568257 0.919986
O6    O     O_R   0.501530 0.435380 0.424260 -0.592722
O7    O     O_3   0.340640 0.540360 0.508280 -0.259826
V1    V     V_3+5 0.064080 0.492510 0.498460 1.150677
O8    O     O_R   0.680360 0.572160 0.576850 -0.587045
C3    C     C_R   0.848981 0.588367 0.602638 0.967000
O9    O     O_R   0.676190 0.558430 0.449950 -0.592710
C4    C     C_R   0.845005 0.571882 0.431527 0.937576
V2    V     V_3+5 0.564610 0.507490 0.501540 1.158440
O10   O     O_3   0.837920 0.459640 0.491720 -0.280463
C5    C     C_R   0.095454 0.822147 0.170388 -0.136429
H1    H     H_    0.226646 0.803999 0.185305 0.108162
C6    C     C_R   0.107293 0.861228 0.130446 -0.147854
H2    H     H_    0.248113 0.872350 0.115531 0.129954
C7    C     C_R   0.939325 0.885763 0.110320 -0.134326
C8    C     C_R   0.759503 0.869848 0.131200 -0.145675
H3    H     H_    0.626977 0.887723 0.116923 0.131572
C9    C     C_R   0.748119 0.830810 0.171075 -0.138386
H4    H     H_    0.608102 0.819485 0.186499 0.107327
C10   C     C_R   0.915845 0.806808 0.190998 0.173854
C11   C     C_1   0.903217 0.766751 0.232637 -0.062515
C12   C     C_1   0.892079 0.733333 0.267466 -0.062317
C13   C     C_R   0.047252 0.669282 0.329020 -0.137558
H5    H     H_    0.187250 0.680611 0.313585 0.107071
C14   C     C_R   0.035926 0.630247 0.368897 -0.145353
H6    H     H_    0.168476 0.612375 0.383163 0.131479
C15   C     C_R   0.856133 0.614325 0.389791 -0.136659
C16   C     C_R   0.688131 0.638850 0.369675 -0.146928
H7    H     H_    0.547331 0.627718 0.384597 0.129941
C17   C     C_R   0.699913 0.677930 0.329729 -0.135305
H8    H     H_    0.568698 0.696070 0.314818 0.108196
C18   C     C_R   0.879496 0.693276 0.309107 0.173764
C19   C     C_R   0.852360 0.640098 0.664924 -0.226298
C20   C     C_R   0.942615 0.856119 0.838067 -0.218697
C21   C     C_R   0.101485 0.799560 0.738919 0.410047
C22   C     C_R   0.090570 0.851852 0.794376 -0.227421
C23   C     C_R   0.804868 0.806269 0.826118 -0.110033
C24   C     C_R   0.820655 0.750319 0.773085 0.012264
C25   C     C_R   0.968007 0.747483 0.728259 0.025691
C26   C     C_R   0.979904 0.692607 0.674423 -0.178823
C27   C     C_R   0.718476 0.639897 0.713090 0.014291
C28   C     C_R   0.695390 0.696560 0.765050 0.349646
H9    H     H_    0.087330 0.690172 0.638810 0.184202
H10   H     H_    0.197143 0.890362 0.802881 0.162123
H11   H     H_    0.691411 0.810407 0.860171 0.178820
C29   C     C_R   0.336328 0.353644 0.339566 -0.134555
C30   C     C_R   0.459352 0.146491 0.160348 -0.133719
C31   C     C_R   0.641279 0.216134 0.250787 -0.233152
C32   C     C_R   0.629503 0.161713 0.197450 -0.152376
C33   C     C_R   0.299504 0.187117 0.178465 -0.285519
C34   C     C_R   0.311589 0.242676 0.231756 0.219017
C35   C     C_R   0.484103 0.257467 0.268150 0.218614
C36   C     C_R   0.496180 0.313021 0.321446 -0.284733
C37   C     C_R   0.166185 0.338428 0.302460 -0.152575
C38   C     C_R   0.154414 0.284010 0.249119 -0.233757
H12   H     H_    0.627839 0.323639 0.349575 0.141030
H13   H     H_    0.040569 0.368712 0.314812 0.136314
H14   H     H_    0.774051 0.226053 0.278295 0.132151
H15   H     H_    0.021642 0.274091 0.221612 0.131461
H16   H     H_    0.755114 0.131426 0.185104 0.136686
H17   H     H_    0.167835 0.176493 0.150341 0.140734
C39   C     C_R   0.596205 0.177787 0.829473 -0.138081
H18   H     H_    0.727608 0.195998 0.814662 0.106591
C40   C     C_R   0.608006 0.138764 0.869497 -0.153777
H19   H     H_    0.748999 0.127768 0.884574 0.126739
C41   C     C_R   0.439784 0.114132 0.889508 -0.133746
C42   C     C_R   0.259766 0.129874 0.868383 -0.154680
H20   H     H_    0.127024 0.111902 0.882528 0.130462
C43   C     C_R   0.248417 0.168852 0.828428 -0.139095
H21   H     H_    0.108206 0.180026 0.812826 0.107379
C44   C     C_R   0.416373 0.192981 0.808641 0.176031
C45   C     C_1   0.403687 0.232948 0.766863 -0.065062
C46   C     C_1   0.392247 0.266220 0.731870 -0.069501
C47   C     C_R   0.541187 0.316247 0.656874 -0.144867
H22   H     H_    0.677516 0.294429 0.662264 0.113117
C48   C     C_R   0.529508 0.355231 0.616914 -0.185486
H23   H     H_    0.657836 0.362487 0.592334 0.135614
C49   C     C_R   0.355075 0.384949 0.609317 -0.118562
C50   C     C_R   0.191899 0.373744 0.642091 -0.165919
H24   H     H_    0.055379 0.395817 0.637521 0.125926
C51   C     C_R   0.203985 0.334757 0.682112 -0.145001
H25   H     H_    0.076871 0.327311 0.707187 0.110118
C52   C     C_R   0.378881 0.305999 0.689939 0.184318
O11   O     O_R   0.294110 0.064720 0.075690 -0.593367
O12   O     O_R   0.619980 0.058360 0.949870 -0.596560
O13   O     O_R   0.785810 0.935300 0.924300 -0.587322
C53   C     C_R   0.450868 0.071770 0.931370 0.930479
O14   O     O_R   0.624080 0.072230 0.076800 -0.600700
O15   O     O_R   0.789930 0.949270 0.052130 -0.594844
C54   C     C_R   0.457391 0.090705 0.101180 0.931743
O16   O     O_R   0.289980 0.050750 0.947860 -0.597521
O17   O     O_3   0.454970 0.959660 0.991750 -0.260766
V3    V     V_3+5 0.731560 0.007480 0.001530 1.156128
O18   O     O_R   0.119360 0.941610 0.050140 -0.594511
C55   C     C_R   0.950521 0.928190 0.068571 0.931736
O19   O     O_R   0.115260 0.927740 0.923220 -0.584357
C56   C     C_R   0.946318 0.910008 0.898462 0.977145
V4    V     V_3+5 0.231020 0.992470 0.998490 1.166812
O20   O     O_3   0.957740 0.040330 0.008250 -0.280430
C57   C     C_3   0.614794 0.577753 0.713303 -0.394979
C58   C     C_3   0.694387 0.552710 0.766298 -0.255395
C59   C     C_3   0.623769 0.484235 0.758966 -0.903650
H26   H     H_    0.463918 0.481130 0.755039 0.274713
H27   H     H_    0.687869 0.450431 0.716218 0.257960
H28   H     H_    0.670083 0.469787 0.800709 0.257356
H29   H     H_    0.854746 0.552820 0.765432 0.206039
H30   H     H_    0.648535 0.584175 0.813099 0.256127
H31   H     H_    0.457173 0.585669 0.718667 0.224601
H32   H     H_    0.632991 0.538702 0.668394 0.193300
N1    N     N_R   0.251561 0.799888 0.694844 0.227821
O21   O     O_R   0.425860 0.817540 0.715463 -0.395781
O22   O     O_R   0.207707 0.794842 0.636391 -0.398296
N2    N     N_R   0.545608 0.698867 0.809987 0.218952
O23   O     O_R   0.365530 0.695319 0.792231 -0.415618
O24   O     O_R   0.588630 0.704663 0.868678 -0.426996

loop_
_geom_bond_atom_site_label_1
_geom_bond_atom_site_label_2
_geom_bond_distance
_ccdc_geom_bond_type
C51   H25   1.083478 S    
C21   C22   1.403425 A    
C30   C32   1.410811 A    
C6    H2    1.082621 S    
C1    O6    1.305894 A    
C4    C15   1.495044 S    
C44   C45   1.453339 S    
N1    O21   1.301331 A    
C26   H9    1.080864 S    
C10   C11   1.452414 S    
C34   C38   1.400200 A    
C1    C29   1.493700 S    
C37   H13   1.083206 S    
C5    C10   1.402687 A    
C17   H8    1.083277 S    
C6    C7    1.409827 A    
C9    C10   1.400992 A    
O5    C3    1.304886 A    
O19   V4    1.987120 S    
O15   V3    1.972840 S    
C57   C58   1.538361 S    
V2    O10   2.151577 S    
O18   V4    1.976824 S    
C59   H26   1.111087 S    
C16   H7    1.082621 S    
C58   H29   1.112451 S    
C47   C52   1.401660 A    
C58   H30   1.107852 S    
C29   C37   1.410803 A    
O13   C56   1.304528 A    
O8    V2    1.987061 S    
C20   C23   1.400935 A    
C27   C28   1.421528 A    
N1    O22   1.301135 A    
C39   H18   1.083268 S    
C13   C18   1.400986 A    
C58   C59   1.525024 S    
C14   C15   1.410628 A    
C40   H19   1.082620 S    
O1    V2    1.973175 S    
O7    V1    2.151800 S    
C7    C55   1.495041 S    
C20   C22   1.402278 A    
C2    C49   1.492712 S    
O9    C4    1.303296 A    
C30   C54   1.493730 S    
C42   C43   1.402662 A    
V4    O20   2.151545 S    
C15   C16   1.409829 A    
C28   N2    1.437013 S    
N2    O24   1.301471 A    
C42   H20   1.082679 S    
V3    O20   1.704464 S    
C50   C51   1.404305 A    
C9    H4    1.083363 S    
C47   C48   1.402984 A    
O4    C2    1.302025 A    
C45   C46   1.214131 T    
C41   C42   1.410711 A    
C35   C36   1.413233 A    
C50   H24   1.083172 S    
C37   C38   1.398990 A    
O2    C1    1.295506 A    
C43   H21   1.083357 S    
C13   H5    1.083363 S    
C29   C36   1.407854 A    
C38   H15   1.083328 S    
O12   C53   1.303521 A    
C14   H6    1.082680 S    
C12   C18   1.452412 S    
N2    O23   1.300736 A    
C27   C57   1.527349 S    
C5    H1    1.083277 S    
C49   C50   1.409389 A    
O14   C54   1.295503 A    
C43   C44   1.401202 A    
O11   V4    1.985017 S    
O3    C4    1.298860 A    
C22   H10   1.083958 S    
C19   C26   1.401954 A    
C41   C53   1.495875 S    
C57   H31   1.109956 S    
O17   V3    2.151742 S    
O6    V2    1.984497 S    
C48   C49   1.409367 A    
O9    V2    1.976877 S    
C23   C24   1.419751 A    
C8    C9    1.402289 A    
C33   C34   1.413243 A    
C21   N1    1.436043 S    
O2    V1    1.986080 S    
C53   O16   1.299177 A    
C32   H16   1.083206 S    
C24   C25   1.421153 A    
C19   C27   1.423049 A    
C31   C35   1.400193 A    
C30   C33   1.407864 A    
C39   C44   1.402851 A    
C31   C32   1.398982 A    
C36   H12   1.084138 S    
O1    C2    1.299159 A    
C47   H22   1.083498 S    
O5    V1    1.983946 S    
O8    C3    1.295293 A    
O11   C54   1.305897 A    
C33   H17   1.084136 S    
O15   C55   1.298873 A    
C59   H28   1.110353 S    
C57   H32   1.105496 S    
C3    C19   1.494715 S    
C51   C52   1.403044 A    
O7    V2    1.704594 S    
O4    V1    1.976682 S    
C13   C14   1.402279 A    
O3    V1    1.973026 S    
V1    O10   1.704486 S    
C20   C56   1.489439 S    
C23   H11   1.081149 S    
C34   C35   1.416161 A    
C31   H14   1.083330 S    
O14   V3    1.986316 S    
O17   V4    1.703944 S    
C17   C18   1.402694 A    
O18   C55   1.303292 A    
C5    C6    1.404469 A    
C59   H27   1.108617 S    
C16   C17   1.404482 A    
O19   C56   1.294395 A    
C46   C52   1.453158 S    
O16   V4    1.974980 S    
C25   C26   1.413851 A    
C39   C40   1.404868 A    
C48   H23   1.083006 S    
C11   C12   1.213614 T    
C21   C25   1.418563 A    
C8    H3    1.082678 S    
C40   C41   1.409992 A    
O12   V3    1.976684 S    
C7    C8    1.410627 A    
C24   C28   1.417053 A    
O13   V3    1.984045 S    
