data_mof_unit_347.cif
_audit_creation_date              2012-12-10T21:37:20-0500
_audit_creation_method            fapswitch 2.2
_symmetry_space_group_name_H-M    P1
_symmetry_Int_Tables_number       1
_space_group_crystal_system       triclinic
_cell_length_a                    16.097005
_cell_length_b                    15.730029
_cell_length_c                    16.781455
_cell_angle_alpha                 90.319457
_cell_angle_beta                  87.514627
_cell_angle_gamma                 91.941459
_cell_volume                      4242.70120273

loop_
_atom_site_label
_atom_site_type_symbol
_atom_type_description
_atom_site_fract_x
_atom_site_fract_y
_atom_site_fract_z
_atom_type_partial_charge
C1    C     C_R   0.511209 0.501657 0.346829 0.880209
C2    C     C_R   0.488709 0.502724 0.653086 0.886687
C3    C     C_R   0.446662 0.500596 0.217046 -0.237451
C4    C     C_R   0.551011 0.551633 0.777067 -0.235034
C5    C     C_R   0.450055 0.517322 0.136465 -0.208219
C6    C     C_R   0.544377 0.572536 0.856953 -0.212119
C7    C     C_R   0.525152 0.546403 0.097964 0.290447
C8    C     C_R   0.467680 0.561104 0.899853 0.298327
C9    C     C_R   0.597603 0.557137 0.141552 0.159076
C10   C     C_R   0.395823 0.535422 0.859849 0.172525
C11   C     C_R   0.593420 0.539639 0.223181 -0.262447
C12   C     C_R   0.403290 0.514860 0.778826 -0.266857
C13   C     C_R   0.236124 0.539265 0.539836 -0.033639
C14   C     C_R   0.764021 0.461777 0.459336 -0.032826
C15   C     C_R   0.149224 0.536573 0.537021 -0.298851
C16   C     C_R   0.850909 0.464488 0.462258 -0.298280
C17   C     C_R   0.109234 0.482010 0.482386 0.252284
C18   C     C_R   0.890744 0.517917 0.517922 0.252121
C19   C     C_R   0.159242 0.430744 0.431338 0.061139
C20   C     C_R   0.840579 0.568052 0.569882 0.061539
C21   C     C_R   0.246882 0.436306 0.436962 -0.005041
C22   C     C_R   0.752963 0.562621 0.564017 -0.003077
C23   C     C_R   0.500470 0.337792 0.499493 0.912706
C24   C     C_R   0.499550 0.662136 0.500213 0.907161
C25   C     C_3   0.520214 0.970630 0.420349 0.514440
C26   C     C_3   0.477482 0.028470 0.564382 0.547992
C27   C     C_3   0.444274 0.025453 0.439569 0.073217
C28   C     C_3   0.553663 0.974965 0.544991 0.079682
C29   C     C_1   0.501555 0.249049 0.496266 -0.184859
C30   C     C_1   0.498683 0.750757 0.499088 -0.195022
C31   C     C_3   0.576632 0.029630 0.470414 -0.286209
C32   C     C_3   0.420804 0.970086 0.514319 -0.364017
C33   C     C_3   0.500001 0.082999 0.490861 -0.015131
C34   C     C_3   0.498376 0.916498 0.494451 -0.053781
C35   C     C_1   0.501436 0.173870 0.493253 0.010550
C36   C     C_1   0.498330 0.825842 0.497374 -0.036127
C37   C     C_R   0.517982 0.512047 0.260890 -0.061058
C38   C     C_R   0.481073 0.520779 0.738035 -0.061466
H1    H     H_    0.287253 0.398444 0.399179 0.148125
H2    H     H_    0.712482 0.599713 0.602409 0.146436
H3    H     H_    0.358459 0.942998 0.532869 0.165186
H4    H     H_    0.639416 0.055492 0.451601 0.168565
H5    H     H_    0.611138 0.559774 0.745966 0.163882
H6    H     H_    0.387854 0.478907 0.245020 0.165857
H7    H     H_    0.600024 0.594687 0.885849 0.160580
H8    H     H_    0.393916 0.506061 0.104150 0.159921
H9    H     H_    0.648413 0.549606 0.257533 0.163658
H10   H     H_    0.348645 0.493590 0.747802 0.160340
H11   H     H_    0.733957 0.420641 0.416620 0.139881
H12   H     H_    0.266315 0.581221 0.581806 0.139302
H13   H     H_    0.886292 0.424950 0.421177 0.161504
H14   H     H_    0.113958 0.577020 0.577359 0.161407
N1    N     N_2   0.531208 0.556607 0.014490 -0.202904
N2    N     N_2   0.462800 0.564381 0.983915 -0.205016
N3    N     N_R   0.283080 0.489710 0.490280 -0.107955
N4    N     N_R   0.716920 0.510290 0.509720 -0.108139
N5    N     N_2   0.020184 0.476630 0.476638 -0.191742
N6    N     N_2   0.979791 0.523324 0.523724 -0.191729
O1    O     O_R   0.577460 0.503680 0.387340 -0.625359
O2    O     O_R   0.422540 0.496320 0.612660 -0.622633
O3    O     O_R   0.438150 0.497080 0.381100 -0.627139
O4    O     O_R   0.561850 0.502920 0.618900 -0.625440
O5    O     O_R   0.569640 0.380080 0.503110 -0.610060
O6    O     O_R   0.430360 0.619920 0.496890 -0.615187
O7    O     O_R   0.430330 0.373470 0.496870 -0.616753
O8    O     O_R   0.569670 0.626530 0.503130 -0.618494
Zn1   Zn    Zn3+2 0.593020 0.504410 0.504170 0.944207
Zn2   Zn    Zn3+2 0.406980 0.495590 0.495830 0.942827
C39   C     C_3   0.384262 0.061333 0.380729 -0.387403
C40   C     C_3   0.307150 0.003659 0.371198 -0.884609
H15   H     H_    0.324302 0.938659 0.352665 0.247260
H16   H     H_    0.269628 0.000051 0.428255 0.262715
H17   H     H_    0.268199 0.030303 0.325031 0.251890
H18   H     H_    0.363420 0.124188 0.402714 0.214724
H19   H     H_    0.417451 0.071180 0.321960 0.205836
C41   C     C_3   0.615751 0.943465 0.603653 -0.395425
C42   C     C_3   0.662029 0.017309 0.643408 -0.835679
H20   H     H_    0.696688 0.057156 0.597848 0.257859
H21   H     H_    0.617805 0.057294 0.678119 0.281083
H22   H     H_    0.707132 0.992056 0.684748 0.241171
H23   H     H_    0.582316 0.903727 0.650029 0.193627
H24   H     H_    0.661431 0.903332 0.570901 0.216734
C43   C     C_3   0.116828 0.371612 0.372360 -0.397349
C44   C     C_3   0.174673 0.317929 0.319481 -0.914833
H25   H     H_    0.217445 0.359477 0.281959 0.255393
H26   H     H_    0.210909 0.275485 0.356495 0.260995
H27   H     H_    0.136937 0.277508 0.279273 0.258572
H28   H     H_    0.073076 0.327511 0.406171 0.218102
H29   H     H_    0.079625 0.410405 0.332788 0.215763
C45   C     C_3   0.882781 0.625794 0.630128 -0.396357
C46   C     C_3   0.824704 0.677667 0.684477 -0.916230
H30   H     H_    0.788290 0.721108 0.648658 0.259868
H31   H     H_    0.782084 0.634871 0.720895 0.255234
H32   H     H_    0.862277 0.716965 0.725719 0.258611
H33   H     H_    0.920298 0.586133 0.668654 0.216749
H34   H     H_    0.926224 0.671006 0.597287 0.216955
O9    O     O_3   0.550066 0.939571 0.345657 -0.643211
C47   C     C_3   0.489024 0.887900 0.309082 0.091519
H35   H     H_    0.454139 0.927861 0.268582 0.154228
H36   H     H_    0.443882 0.856084 0.352343 0.141517
C48   C     C_3   0.532204 0.818822 0.259877 -0.334923
H37   H     H_    0.574558 0.849021 0.213366 0.227776
H38   H     H_    0.570001 0.780582 0.299414 0.231604
C49   C     C_3   0.469332 0.759732 0.219778 -0.952989
H39   H     H_    0.428997 0.725591 0.265415 0.269667
H40   H     H_    0.502815 0.712091 0.182821 0.282139
H41   H     H_    0.430046 0.796525 0.180542 0.262306
O10   O     O_3   0.456794 0.065650 0.639066 -0.641899
C50   C     C_3   0.424847 0.003316 0.693681 0.078021
H42   H     H_    0.457920 0.012190 0.750025 0.162501
H43   H     H_    0.434700 0.936340 0.674044 0.122046
C51   C     C_3   0.332058 0.016272 0.710884 -0.332601
H44   H     H_    0.323139 0.081186 0.735625 0.233053
H45   H     H_    0.298488 0.010574 0.654549 0.216902
C52   C     C_3   0.295020 0.950817 0.770312 -0.972411
H46   H     H_    0.301551 0.885470 0.745906 0.263920
H47   H     H_    0.227866 0.962227 0.781835 0.267556
H48   H     H_    0.326861 0.956162 0.827630 0.265961
C53   C     C_3   0.679119 0.588227 0.102052 -0.417801
C54   C     C_3   0.678328 0.683458 0.085187 -0.862286
H49   H     H_    0.628537 0.697867 0.044031 0.266857
H50   H     H_    0.668058 0.719416 0.141731 0.260483
H51   H     H_    0.739110 0.704763 0.057012 0.248978
H52   H     H_    0.731716 0.576383 0.140902 0.202519
H53   H     H_    0.691330 0.552690 0.045567 0.211688
C55   C     C_3   0.311969 0.525408 0.903702 -0.423264
C56   C     C_3   0.277293 0.611804 0.926373 -0.856514
H54   H     H_    0.318660 0.646564 0.967621 0.267089
H55   H     H_    0.270896 0.650711 0.872062 0.257723
H56   H     H_    0.214988 0.602532 0.956705 0.247561
H57   H     H_    0.266400 0.491194 0.866054 0.202655
H58   H     H_    0.317502 0.486516 0.958180 0.208659

loop_
_geom_bond_atom_site_label_1
_geom_bond_atom_site_label_2
_ccdc_geom_bond_type
C25   C31   S    
C14   N4    A    
C26   C32   S    
C48   H37   S    
C6    H7    S    
C11   H9    S    
C16   H13   S    
C12   H10   S    
C49   H40   S    
O9    C47   S    
N5    N6    D    
C45   H33   S    
C53   H52   S    
C27   C33   S    
C55   C56   S    
O4    Zn1   S    
C23   C29   S    
C19   C21   A    
C44   H26   S    
C1    O1    A    
C2    O2    A    
C14   H11   S    
C52   H46   S    
O10   C50   S    
C15   C17   A    
C11   C37   A    
C51   H44   S    
O1    Zn1   S    
C18   N6    S    
C52   H47   S    
C32   H3    S    
C44   H27   S    
C39   H19   S    
C40   H15   S    
C18   C20   A    
C27   C39   S    
C54   H51   S    
C24   O8    A    
C25   C34   S    
C52   H48   S    
C23   O5    A    
C43   H28   S    
C28   C34   S    
C24   O6    A    
C19   C43   S    
C51   H45   S    
C49   H39   S    
C54   H50   S    
N3    Zn2   S    
C42   H21   S    
C43   H29   S    
O5    Zn1   S    
C3    H6    S    
C41   C42   S    
C4    C6    A    
C50   C51   S    
C26   O10   S    
C46   H30   S    
C21   N3    A    
C17   C19   A    
C6    C8    A    
N1    N2    D    
C20   C45   S    
C32   C34   S    
C56   H55   S    
C46   H31   S    
C2    C38   S    
C26   C33   S    
C43   C44   S    
C21   H1    S    
C55   H58   S    
O7    Zn2   S    
C22   H2    S    
C40   H17   S    
C31   C33   S    
C39   H18   S    
C16   C18   A    
C15   H14   S    
C44   H25   S    
C9    C11   A    
C3    C37   A    
C10   C12   A    
C53   H53   S    
C25   O9    S    
C4    C38   A    
C48   C49   S    
C47   H36   S    
C13   C15   A    
C9    C53   S    
C14   C16   A    
C7    N1    S    
C8    N2    S    
C56   H54   S    
C47   C48   S    
O6    Zn2   S    
C54   H49   S    
C5    C7    A    
C48   H38   S    
C42   H22   S    
C7    C9    A    
C27   C32   S    
C28   C31   S    
C20   C22   A    
C3    C5    A    
C1    O3    A    
C41   H23   S    
C22   N4    A    
C53   C54   S    
C45   H34   S    
C4    H5    S    
C1    C37   S    
C25   C27   S    
N4    Zn1   S    
C5    H8    S    
C29   C35   T    
C26   C28   S    
C30   C36   T    
C23   O7    A    
C50   H43   S    
C56   H56   S    
C50   H42   S    
C46   H32   S    
O3    Zn2   S    
C45   C46   S    
C31   H4    S    
C55   H57   S    
C41   H24   S    
C33   C35   S    
O8    Zn1   S    
C34   C36   S    
C49   H41   S    
C12   C38   A    
C39   C40   S    
C24   C30   S    
C13   H12   S    
O2    Zn2   S    
C8    C10   A    
C47   H35   S    
C42   H20   S    
C40   H16   S    
C10   C55   S    
C51   C52   S    
C2    O4    A    
C17   N5    S    
C13   N3    A    
C28   C41   S    
