data_mof_unit_3135.cif
_audit_creation_date              2012-12-10T20:52:46-0500
_audit_creation_method            fapswitch 2.2
_symmetry_space_group_name_H-M    P1
_symmetry_Int_Tables_number       1
_space_group_crystal_system       triclinic
_cell_length_a                    8.649811
_cell_length_b                    15.80986
_cell_length_c                    15.101007
_cell_angle_alpha                 90.590581
_cell_angle_beta                  98.22828
_cell_angle_gamma                 89.776219
_cell_volume                      2043.72400739

loop_
_atom_site_label
_atom_site_type_symbol
_atom_type_description
_atom_site_fract_x
_atom_site_fract_y
_atom_site_fract_z
_atom_type_partial_charge
C1    C     C_R   0.499848 0.338869 0.499458 0.877614
C2    C     C_R   0.798709 0.501012 0.522626 0.908465
C3    C     C_2   0.039744 0.485559 0.467496 -0.248731
C4    C     C_2   0.960132 0.515166 0.532098 -0.248333
C5    C     C_R   0.414846 0.957033 0.558902 0.250128
C6    C     C_R   0.596289 0.042877 0.445138 0.319022
C7    C     C_R   0.521732 0.913835 0.512390 -0.259462
C8    C     C_R   0.487620 0.085942 0.490707 -0.239330
C9    C     C_R   0.620724 0.955977 0.461041 0.238152
C10   C     C_R   0.389546 0.043777 0.542697 0.299945
C11   C     C_1   0.514845 0.824420 0.507557 0.220134
C12   C     C_R   0.500232 0.661138 0.500562 0.890991
C13   C     C_1   0.491061 0.175441 0.493852 0.243070
C14   C     C_1   0.495591 0.250408 0.497302 -0.055369
C15   C     C_1   0.507276 0.749551 0.503131 -0.032186
C16   C     C_R   0.369595 0.466424 0.942323 0.378397
C17   C     C_R   0.622038 0.542039 0.057107 0.439921
C18   C     C_1   0.976786 0.427316 0.395887 0.295612
C19   C     C_1   0.022514 0.574778 0.602446 0.328645
C20   C     C_1   0.255563 0.420842 0.076919 0.370444
C21   C     C_1   0.753888 0.570403 0.923944 0.397120
C22   C     C_R   0.495859 0.501898 0.904760 -0.185416
C23   C     C_R   0.499476 0.502967 0.094964 -0.189642
C24   C     C_R   0.621991 0.538383 0.962637 -0.177525
C25   C     C_R   0.375355 0.464486 0.037243 -0.181087
C26   C     C_1   0.498335 0.500564 0.806812 0.224658
C27   C     C_1   0.500116 0.501101 0.193091 0.260234
C28   C     C_R   0.201298 0.499185 0.477316 0.910614
H1    H     H_    0.098683 0.213413 0.541482 0.388542
H2    H     H_    0.858020 0.845483 0.553028 0.378823
H3    H     H_    0.399155 0.983027 0.754698 0.371997
H4    H     H_    0.791911 0.066916 0.245759 0.400828
H5    H     H_    0.339861 0.320254 0.817769 0.362331
H6    H     H_    0.947176 0.690877 0.114669 0.404810
N1    N     N_1   0.499960 0.500020 0.270540 -0.066007
N2    N     N_1   0.500040 0.499980 0.729460 -0.068744
N3    N     N_1   0.927161 0.381046 0.339054 -0.094878
N4    N     N_1   0.071590 0.622332 0.658138 -0.083939
N5    N     N_1   0.160489 0.385929 0.109065 -0.085445
N6    N     N_1   0.858905 0.595745 0.892567 -0.085021
O1    O     O_R   0.500000 0.378020 0.573650 -0.606340
O2    O     O_2   0.288809 0.139171 0.671170 -0.272172
O3    O     O_3   0.168066 0.178023 0.509493 -0.530788
O4    O     O_2   0.724116 0.862482 0.332019 -0.170238
O5    O     O_2   0.917224 0.955256 0.418529 -0.156704
O6    O     O_3   0.838766 0.819127 0.492681 -0.526653
O7    O     O_2   0.169892 0.867618 0.596772 -0.202370
O8    O     O_2   0.423690 0.829542 0.679056 -0.295310
O9    O     O_3   0.293330 0.966110 0.726206 -0.417013
O10   O     O_2   0.593565 0.170906 0.326210 -0.287740
O11   O     O_2   0.845003 0.131588 0.411541 -0.234737
O12   O     O_R   0.500000 0.621980 0.426350 -0.584645
O13   O     O_3   0.723747 0.034051 0.280053 -0.437921
O14   O     O_2   0.061292 0.424416 0.912942 -0.250804
O15   O     O_2   0.177593 0.465547 0.782658 -0.302472
O16   O     O_3   0.249884 0.318594 0.851586 -0.469212
O17   O     O_2   0.728681 0.625593 0.212566 -0.255171
O18   O     O_2   0.907446 0.528088 0.151070 -0.301689
O19   O     O_3   0.850450 0.673801 0.075379 -0.519641
O20   O     O_R   0.500070 0.378020 0.426320 -0.597880
O21   O     O_R   0.499930 0.621980 0.573680 -0.601005
O22   O     O_R   0.271720 0.500000 0.556430 -0.602214
O23   O     O_R   0.728280 0.500000 0.443570 -0.598553
O24   O     O_R   0.271790 0.500000 0.409110 -0.609153
O25   O     O_R   0.728210 0.500000 0.590890 -0.609820
O26   O     O_2   0.095678 0.043353 0.588574 -0.152503
S1    S     S_3+6 0.231656 0.100399 0.581185 0.117256
S2    S     S_3+6 0.779010 0.899078 0.423272 0.145683
S3    S     S_3+6 0.323752 0.902116 0.640751 0.116656
S4    S     S_3+6 0.691840 0.098035 0.365252 0.110509
S5    S     S_3+6 0.208188 0.420536 0.870620 0.059864
S6    S     S_3+6 0.779761 0.592203 0.127781 0.053517
Zn1   Zn    Zn3+2 0.499950 0.500000 0.598370 1.056220
Zn2   Zn    Zn3+2 0.500050 0.500000 0.401630 1.073664

loop_
_geom_bond_atom_site_label_1
_geom_bond_atom_site_label_2
_ccdc_geom_bond_type
C5    S3    S    
C2    C4    S    
N1    Zn2   S    
O6    S2    S    
C8    C13   S    
O11   S4    D    
C23   C27   S    
C5    C7    A    
O8    S3    D    
C4    C19   S    
C12   C15   S    
C20   C25   S    
O19   S6    S    
C2    O25   A    
C27   N1    T    
O16   S5    S    
O5    S2    D    
O26   S1    D    
O10   S4    D    
C9    S2    S    
C5    C10   A    
O22   Zn1   S    
O9    S3    S    
C10   S1    S    
H1    O3    S    
C7    C11   S    
C12   O21   A    
C21   N6    T    
O18   S6    D    
C17   C23   A    
C16   S5    S    
H5    O16   S    
O13   S4    S    
C28   O24   A    
C26   N2    T    
C3    C28   S    
C12   O12   A    
C18   N3    T    
H3    O9    S    
O12   Zn2   S    
C23   C25   A    
O17   S6    D    
O2    S1    D    
C1    O20   A    
C22   C24   A    
O4    S2    D    
C17   C24   A    
N2    Zn1   S    
O1    Zn1   S    
C3    C4    D    
C7    C9    A    
H4    O13   S    
C6    C9    A    
C19   N4    T    
O25   Zn1   S    
C2    O23   A    
C3    C18   S    
O3    S1    S    
C22   C26   S    
C21   C24   S    
O20   Zn2   S    
C16   C25   A    
C6    S4    S    
C20   N5    T    
O24   Zn2   S    
O7    S3    D    
C6    C8    A    
C1    C14   S    
O21   Zn1   S    
C17   S6    S    
C13   C14   T    
H6    O19   S    
C11   C15   T    
H2    O6    S    
C8    C10   A    
O15   S5    D    
O14   S5    D    
C1    O1    A    
C16   C22   A    
O23   Zn2   S    
C28   O22   A    
