data_mof_unit_3593.cif
_audit_creation_date              2012-12-10T19:11:22-0500
_audit_creation_method            fapswitch 2.2
_symmetry_space_group_name_H-M    P1
_symmetry_Int_Tables_number       1
_space_group_crystal_system       triclinic
_cell_length_a                    10.65175
_cell_length_b                    9.766939
_cell_length_c                    10.534097
_cell_angle_alpha                 91.148204
_cell_angle_beta                  89.155804
_cell_angle_gamma                 89.918319
_cell_volume                      1095.57409685

loop_
_atom_site_label
_atom_site_type_symbol
_atom_type_description
_atom_site_fract_x
_atom_site_fract_y
_atom_site_fract_z
_atom_type_partial_charge
Br1   Br    Br    0.676694 0.158826 0.289932 -0.344227
Br2   Br    Br    0.680691 0.836168 0.293156 -0.381280
Br3   Br    Br    0.545070 0.819945 0.931172 -0.460628
Br4   Br    Br    0.727719 0.300148 0.893255 -0.364383
Br5   Br    Br    0.134172 0.597470 0.761202 -0.484702
Br6   Br    Br    0.156060 0.398190 0.230590 -0.492602
C1    C     C_R   0.258135 0.500219 0.497331 0.965286
C2    C     C_3   0.929803 0.644662 0.459257 -0.400473
C3    C     C_3   0.376787 0.082032 0.539982 -0.337923
C4    C     C_3   0.376745 0.920207 0.539689 -0.325385
C5    C     C_3   0.525574 0.078884 0.367732 0.193518
C6    C     C_3   0.526500 0.915974 0.367860 0.213792
C7    C     C_3   0.595388 0.082493 0.583811 -0.226393
C8    C     C_3   0.595650 0.921131 0.583278 -0.241870
C9    C     C_R   0.499378 0.498471 0.257675 1.038928
C10   C     C_R   0.742254 0.500064 0.496196 1.030956
C11   C     C_R   0.501211 0.501216 0.742592 1.000153
C12   C     C_3   0.498580 0.494968 0.123421 -0.138663
C13   C     C_3   0.406097 0.578786 0.046622 -0.184379
C14   C     C_3   0.481685 0.368047 0.037161 -0.187530
C15   C     C_3   0.389581 0.452324 0.957122 -0.168278
C16   C     C_3   0.501816 0.502840 0.877606 -0.234493
C17   C     C_3   0.518203 0.628484 0.965576 0.232909
C18   C     C_3   0.593189 0.418254 0.955540 0.241678
C19   C     C_3   0.608270 0.543292 0.043250 0.417702
C20   C     C_3   0.071037 0.468729 0.631166 0.038901
C21   C     C_3   0.074859 0.388564 0.399016 0.001212
C22   C     C_3   0.925831 0.460132 0.628512 0.208727
C23   C     C_3   0.929527 0.391636 0.395639 0.223174
C24   C     C_3   0.072398 0.642918 0.454366 -0.386931
C25   C     C_3   0.121908 0.500768 0.495183 -0.095061
C26   C     C_3   0.878678 0.500474 0.494568 -0.180289
H1    H     H_    0.299662 0.413872 0.918413 0.227398
H2    H     H_    0.690380 0.120014 0.557224 0.188993
H3    H     H_    0.690728 0.882654 0.556632 0.186609
H4    H     H_    0.577203 0.121705 0.682214 0.205896
H5    H     H_    0.578165 0.885406 0.680661 0.216777
H6    H     H_    0.329283 0.643560 0.087600 0.206892
H7    H     H_    0.466422 0.262001 0.070111 0.215742
H8    H     H_    0.107553 0.366874 0.659070 0.106713
H9    H     H_    0.102979 0.286388 0.434366 0.111302
H10   H     H_    0.900040 0.351064 0.643386 0.137019
H11   H     H_    0.896716 0.288718 0.425071 0.150382
H12   H     H_    0.897645 0.725233 0.528187 0.200834
H13   H     H_    0.107313 0.726571 0.517762 0.222731
H14   H     H_    0.105962 0.665840 0.356516 0.214192
H15   H     H_    0.774828 0.612241 0.017393 0.387350
H16   H     H_    0.878735 0.634067 0.714103 0.371504
H17   H     H_    0.914859 0.498456 0.240398 0.398088
H18   H     H_    0.894242 0.676918 0.366165 0.243254
H19   H     H_    0.301025 0.118243 0.477282 0.172902
H20   H     H_    0.301353 0.881915 0.476375 0.161430
H21   H     H_    0.353105 0.122349 0.636953 0.196125
H22   H     H_    0.352664 0.883693 0.636405 0.221213
H23   H     H_    0.449151 0.111372 0.303884 0.105609
H24   H     H_    0.451542 0.879785 0.302824 0.109587
N1    N     N_3   0.499750 0.138610 0.497240 -0.094174
N2    N     N_3   0.499750 0.861390 0.497240 -0.098211
O1    O     O_R   0.314910 0.616040 0.499970 -0.628673
O2    O     O_3   0.866907 0.535169 0.728534 -0.687821
O3    O     O_3   0.881816 0.411202 0.273194 -0.613838
O4    O     O_R   0.314910 0.383960 0.499970 -0.646246
O5    O     O_R   0.500080 0.616020 0.313900 -0.605329
O6    O     O_R   0.500080 0.383980 0.313900 -0.597427
O7    O     O_R   0.685320 0.616040 0.499930 -0.611220
O8    O     O_R   0.685320 0.383960 0.499930 -0.615679
O9    O     O_R   0.500150 0.616060 0.686000 -0.597163
O10   O     O_R   0.500150 0.383940 0.686000 -0.624830
O11   O     O_3   0.722448 0.588549 0.092304 -0.673586
Zn1   Zn    Zn3+2 0.500150 0.654960 0.499940 0.983981
Zn2   Zn    Zn3+2 0.500150 0.345040 0.499940 0.980229

loop_
_geom_bond_atom_site_label_1
_geom_bond_atom_site_label_2
_ccdc_geom_bond_type
C4    H20   S    
C9    C12   S    
C13   C17   S    
C9    O6    A    
C1    O4    A    
C11   C16   S    
C13   H6    S    
C2    H18   S    
C10   C26   S    
C3    C4    S    
C21   H9    S    
C19   O11   S    
C20   C22   S    
Br6   C21   S    
C3    H19   S    
O5    Zn1   S    
C5    C6    S    
O9    Zn1   S    
Br2   C6    S    
C2    C24   S    
C14   C15   S    
C17   C19   S    
C6    N2    S    
C20   C25   S    
C14   C18   S    
C23   O3    S    
C5    N1    S    
C7    C8    S    
C18   C19   S    
C8    H5    S    
H17   O3    S    
C20   H8    S    
C6    H24   S    
C12   C19   S    
N2    Zn1   S    
C7    H4    S    
O10   Zn2   S    
Br4   C18   S    
C23   H11   S    
C22   H10   S    
C4    N2    S    
C1    C25   S    
O4    Zn2   S    
H16   O2    S    
C23   C26   S    
C12   C14   S    
C22   O2    S    
C24   C25   S    
C4    H22   S    
C16   C18   S    
C11   O9    A    
C15   H1    S    
O1    Zn1   S    
C21   C25   S    
Br5   C20   S    
C2    C26   S    
C2    H12   S    
C22   C26   S    
C5    H23   S    
C10   O8    A    
C21   C23   S    
C3    N1    S    
C3    H21   S    
C12   C13   S    
O6    Zn2   S    
C1    O1    A    
C8    H3    S    
C14   H7    S    
C9    O5    A    
C16   C17   S    
H15   O11   S    
C11   O10   A    
C7    H2    S    
C10   O7    A    
C24   H13   S    
C7    N1    S    
O7    Zn1   S    
C15   C16   S    
Br3   C17   S    
C24   H14   S    
N1    Zn2   S    
O8    Zn2   S    
C8    N2    S    
C13   C15   S    
Br1   C5    S    
