data_mof_unit_118.cif
_audit_creation_date              2012-12-10T21:00:47-0500
_audit_creation_method            fapswitch 2.2
_symmetry_space_group_name_H-M    P1
_symmetry_Int_Tables_number       1
_space_group_crystal_system       triclinic
_cell_length_a                    18.188194
_cell_length_b                    18.191731
_cell_length_c                    18.33827
_cell_angle_alpha                 119.979087
_cell_angle_beta                  89.980714
_cell_angle_gamma                 120.023729
_cell_volume                      4291.02909875

loop_
_atom_site_label
_atom_site_type_symbol
_atom_type_description
_atom_site_fract_x
_atom_site_fract_y
_atom_site_fract_z
_atom_type_partial_charge
C1    C     C_R   0.109204 0.220140 0.609791 0.498239
C2    C     C_3   0.450477 0.897457 0.947336 0.054216
C3    C     C_3   0.445993 0.032131 0.020909 -0.100341
C4    C     C_3   0.554007 0.967869 0.979091 -0.100343
C5    C     C_3   0.414344 0.423988 0.445548 0.005562
C6    C     C_3   0.585656 0.576013 0.554452 0.005544
C7    C     C_3   0.488791 0.406999 0.452252 -0.181907
C8    C     C_3   0.511209 0.593001 0.547748 -0.181925
C9    C     C_3   0.553856 0.502485 0.451304 0.058742
C10   C     C_3   0.446144 0.497516 0.548696 0.058742
C11   C     C_3   0.479987 0.518551 0.444953 0.199849
C12   C     C_R   0.890797 0.779860 0.390209 0.498219
C13   C     C_3   0.520013 0.481449 0.555047 0.199850
C14   C     C_R   0.042542 0.134917 0.829187 -0.103516
C15   C     C_R   0.957692 0.865268 0.170879 -0.103536
C16   C     C_R   0.392868 0.781094 0.888203 0.505241
C17   C     C_R   0.607132 0.218906 0.111797 0.505246
C18   C     C_R   0.048001 0.095848 0.743166 -0.068823
C19   C     C_R   0.952199 0.904329 0.256884 -0.068937
C20   C     C_R   0.003451 0.098336 0.682783 0.062287
C21   C     C_R   0.996586 0.901669 0.317231 0.062283
C22   C     C_R   0.953147 0.139914 0.709241 -0.061805
C23   C     C_3   0.982290 0.428885 0.413168 -0.128646
C24   C     C_R   0.046768 0.859931 0.290752 -0.061673
C25   C     C_R   0.947156 0.178009 0.795085 -0.104713
C26   C     C_R   0.052795 0.821844 0.204923 -0.104695
C27   C     C_R   0.991734 0.175372 0.854939 -0.109775
C28   C     C_R   0.008374 0.824647 0.145104 -0.109805
C29   C     C_R   0.954206 0.943559 0.534581 -0.146921
C30   C     C_R   0.045801 0.056442 0.465424 -0.146930
C31   C     C_R   0.948638 0.892192 0.445082 0.019596
C32   C     C_R   0.051369 0.107809 0.554921 0.019602
C33   C     C_R   0.995448 0.949203 0.409931 -0.035618
C34   C     C_3   0.017710 0.571115 0.586832 -0.128644
C35   C     C_R   0.004564 0.050799 0.590074 -0.035642
C36   C     C_R   0.666967 0.660282 0.839256 -0.138551
C37   C     C_R   0.333033 0.339710 0.160741 -0.138554
C38   C     C_R   0.616719 0.596559 0.866366 -0.106847
C39   C     C_R   0.383276 0.403434 0.133629 -0.106858
C40   C     C_R   0.111707 0.501622 0.890546 0.500654
C41   C     C_R   0.888290 0.498375 0.109451 0.500643
C42   C     C_R   0.596445 0.636242 0.945134 -0.002999
C43   C     C_R   0.403555 0.363754 0.054864 -0.003006
C44   C     C_R   0.627757 0.742448 0.997774 0.341748
C45   C     C_3   0.445038 0.966091 0.925120 -0.102235
C46   C     C_R   0.372251 0.257552 0.002227 0.341737
C47   C     C_R   0.678644 0.806166 0.969979 0.318265
C48   C     C_R   0.321370 0.193834 0.030023 0.318263
C49   C     C_R   0.697790 0.764380 0.890447 -0.158849
C50   C     C_R   0.302220 0.235616 0.109553 -0.158850
C51   C     C_R   0.593685 0.563784 0.027325 -0.152152
C52   C     C_R   0.406314 0.436216 0.972675 -0.152175
C53   C     C_R   0.550105 0.498992 0.055380 0.023675
C54   C     C_R   0.449895 0.501007 0.944619 0.023665
C55   C     C_R   0.455179 0.434316 0.027948 -0.052982
C56   C     C_3   0.554963 0.033909 0.074880 -0.102239
C57   C     C_R   0.544820 0.565683 0.972052 -0.052986
C58   C     C_R   0.170042 0.815471 0.985875 -0.096533
C59   C     C_R   0.829968 0.184511 0.014110 -0.096541
C60   C     C_R   0.142220 0.742273 0.005309 -0.068402
C61   C     C_R   0.857783 0.257703 0.994671 -0.068423
C62   C     C_R   0.055774 0.648461 0.956957 0.053911
C63   C     C_R   0.944218 0.351530 0.043035 0.053926
C64   C     C_R   0.391664 0.499243 0.607408 0.555556
C65   C     C_R   0.608336 0.500758 0.392592 0.555556
C66   C     C_R   0.997091 0.629517 0.890154 -0.089857
C67   C     C_3   0.549283 0.037942 0.957620 -0.132502
C68   C     C_R   0.002899 0.370494 0.109856 -0.089842
C69   C     C_R   0.025182 0.702941 0.870950 -0.114599
C70   C     C_R   0.974814 0.297077 0.129066 -0.114591
C71   C     C_R   0.111624 0.795710 0.918625 -0.097757
C72   C     C_R   0.888383 0.204292 0.081378 -0.097745
C73   C     C_R   0.969583 0.563191 0.025856 -0.164375
C74   C     C_R   0.030396 0.436786 0.974122 -0.164344
C75   C     C_R   0.943451 0.495646 0.051600 0.018646
C76   C     C_R   0.056537 0.504340 0.948388 0.018655
C77   C     C_R   0.973005 0.430000 0.023877 -0.035413
C78   C     C_3   0.450718 0.962058 0.042380 -0.132512
C79   C     C_R   0.026981 0.569984 0.976108 -0.035417
C80   C     C_R   0.393994 0.499960 0.888538 0.517434
C81   C     C_R   0.606006 0.500040 0.111461 0.517446
C82   C     C_R   0.108998 0.500196 0.607834 0.537353
C83   C     C_R   0.891002 0.499804 0.392166 0.537348
C84   C     C_3   0.075712 0.524285 0.482938 0.232261
C85   C     C_3   0.924288 0.475715 0.517062 0.232264
C86   C     C_3   0.043665 0.595808 0.517019 -0.146731
C87   C     C_3   0.956336 0.404192 0.482981 -0.146728
C88   C     C_3   0.949120 0.499848 0.448500 0.056755
C89   C     C_3   0.549523 0.102542 0.052665 0.054221
C90   C     C_3   0.050880 0.500152 0.551500 0.056754
C91   C     C_2   0.322681 0.337293 0.376080 0.241075
C92   C     C_2   0.677319 0.662710 0.623921 0.241052
H1    H     H_    0.079702 0.673432 0.529200 0.122745
H2    H     H_    0.082128 0.858411 0.336929 0.096941
H3    H     H_    0.907652 0.209154 0.815079 0.104272
H4    H     H_    0.092206 0.790575 0.184915 0.104274
H5    H     H_    0.917222 0.900032 0.561409 0.162379
H6    H     H_    0.082789 0.099972 0.438598 0.162359
H7    H     H_    0.736996 0.812640 0.868351 0.094589
H8    H     H_    0.263018 0.187356 0.131650 0.094583
H9    H     H_    0.682590 0.629000 0.778609 0.152604
H10   H     H_    0.317407 0.370990 0.221386 0.152623
H11   H     H_    0.593628 0.515949 0.825986 0.141684
H12   H     H_    0.920298 0.326568 0.470800 0.122749
H13   H     H_    0.406361 0.484041 0.174008 0.141684
H14   H     H_    0.666593 0.613498 0.048043 0.152428
H15   H     H_    0.333407 0.386502 0.951957 0.152404
H16   H     H_    0.133298 0.852254 0.903451 0.128647
H17   H     H_    0.866714 0.147753 0.096557 0.128646
H18   H     H_    0.236919 0.887346 0.022743 0.100304
H19   H     H_    0.763099 0.112625 0.977233 0.100299
H20   H     H_    0.188039 0.758047 0.057279 0.094194
H21   H     H_    0.811967 0.241914 0.942687 0.094183
H22   H     H_    0.930182 0.557661 0.852552 0.103630
H23   H     H_    0.986931 0.204554 0.921256 0.119949
H24   H     H_    0.069799 0.442362 0.147467 0.103617
H25   H     H_    0.980039 0.687798 0.818932 0.115463
H26   H     H_    0.019954 0.312235 0.181098 0.115453
H27   H     H_    0.946119 0.612359 0.045476 0.145803
H28   H     H_    0.053854 0.387611 0.954495 0.145809
H29   H     H_    0.969174 0.372341 0.341947 0.134296
H30   H     H_    0.030826 0.627659 0.658053 0.134302
H31   H     H_    0.590472 0.070291 0.923293 0.110542
H32   H     H_    0.409529 0.929709 0.076707 0.110537
H33   H     H_    0.399320 0.937236 0.862960 0.143688
H34   H     H_    0.013203 0.795471 0.078798 0.119967
H35   H     H_    0.600680 0.062764 0.137040 0.143686
H36   H     H_    0.401965 0.059386 0.039050 0.158027
H37   H     H_    0.598036 0.940614 0.960951 0.158022
H38   H     H_    0.480946 0.331701 0.414470 0.117545
H39   H     H_    0.519054 0.668300 0.585529 0.117535
H40   H     H_    0.571858 0.734228 0.087105 0.316185
H41   H     H_    0.428125 0.265766 0.912879 0.316183
H42   H     H_    0.153433 0.559479 0.418216 0.316014
H43   H     H_    0.846566 0.440521 0.581783 0.316018
H44   H     H_    0.743435 0.943334 0.993701 0.291978
H45   H     H_    0.077027 0.132982 0.875610 0.117877
H46   H     H_    0.256591 0.056669 0.006306 0.291975
H47   H     H_    0.317290 0.293639 0.306601 0.097058
H48   H     H_    0.682709 0.706358 0.693400 0.097061
H49   H     H_    0.410618 0.546195 0.397551 0.327764
H50   H     H_    0.589411 0.453854 0.602477 0.327758
H51   H     H_    0.923334 0.867338 0.124485 0.117901
H52   H     H_    0.086437 0.063195 0.723367 0.120225
H53   H     H_    0.913864 0.937113 0.276701 0.120237
H54   H     H_    0.917667 0.141304 0.663036 0.096985
O1    O     O_3   0.251620 0.500000 0.748430 -0.459880
O2    O     O_R   0.570330 0.268390 0.136490 -0.536882
O3    O     O_R   0.134680 0.268390 0.572240 -0.540558
O4    O     O_R   0.865320 0.731610 0.427760 -0.540557
O5    O     O_R   0.306670 0.731630 0.863510 -0.540348
O6    O     O_R   0.693330 0.268370 0.136490 -0.540343
O7    O     O_R   0.135450 0.439270 0.865360 -0.550124
O8    O     O_R   0.864550 0.560730 0.134640 -0.550132
O9    O     O_R   0.429670 0.560710 0.692610 -0.531373
O10   O     O_R   0.570330 0.439290 0.307390 -0.531371
O11   O     O_R   0.308540 0.439240 0.865360 -0.554451
O12   O     O_3   0.748380 0.500000 0.251570 -0.459883
O13   O     O_R   0.691460 0.560760 0.134640 -0.554439
O14   O     O_R   0.133580 0.439310 0.571150 -0.503876
O15   O     O_R   0.866420 0.560690 0.428850 -0.503879
O16   O     O_R   0.430770 0.560690 0.864590 -0.528797
O17   O     O_R   0.569230 0.439310 0.135410 -0.528788
O18   O     O_R   0.133580 0.560760 0.692610 -0.554493
O19   O     O_R   0.866420 0.439240 0.307390 -0.554496
O20   O     O_3   0.610446 0.787133 0.076111 -0.654330
O21   O     O_3   0.389565 0.212869 0.923890 -0.654343
O22   O     O_3   0.157184 0.549938 0.466451 -0.675192
O23   O     O_R   0.134680 0.560740 0.864590 -0.533666
O24   O     O_3   0.842816 0.450062 0.533549 -0.675192
O25   O     O_3   0.709180 0.909242 0.022225 -0.672029
O26   O     O_3   0.290843 0.090761 0.977780 -0.672035
O27   O     O_2   0.254400 0.314727 0.396054 -0.468220
O28   O     O_2   0.745600 0.685285 0.603947 -0.468213
O29   O     O_3   0.460385 0.538460 0.385843 -0.698561
O30   O     O_3   0.539614 0.461537 0.614154 -0.698554
O31   O     O_R   0.865320 0.439260 0.135410 -0.533664
O32   O     O_R   0.306670 0.439270 0.571150 -0.483281
O33   O     O_R   0.693330 0.560730 0.428850 -0.483280
O34   O     O_R   0.135450 0.268370 0.694460 -0.535959
O35   O     O_R   0.864550 0.731630 0.305540 -0.535952
O36   O     O_R   0.429670 0.731610 0.863510 -0.536887
Zn1   Zn    Zn3+2 0.207400 0.586780 0.791530 0.938814
Zn2   Zn    Zn3+2 0.792600 0.413220 0.208470 0.938810
Zn3   Zn    Zn3+2 0.208510 0.413230 0.792630 0.933427
Zn4   Zn    Zn3+2 0.791490 0.586770 0.207370 0.933436
Zn5   Zn    Zn3+2 0.383150 0.586740 0.791530 0.964458
Zn6   Zn    Zn3+2 0.616850 0.413260 0.208470 0.964472
Zn7   Zn    Zn3+2 0.207400 0.413250 0.618010 1.000322
Zn8   Zn    Zn3+2 0.792600 0.586750 0.381990 1.000317

loop_
_geom_bond_atom_site_label_1
_geom_bond_atom_site_label_2
_ccdc_geom_bond_type
C13   O30   S    
C73   H27   S    
C73   C75   A    
C82   O14   A    
C14   C18   A    
C76   C79   A    
C6    C9    S    
C80   O11   A    
C47   C49   A    
O1    Zn3   S    
C15   C19   A    
O8    Zn4   S    
C64   O9    A    
C19   H53   S    
C84   C90   S    
C84   O22   S    
O13   Zn4   S    
C60   C62   A    
C19   C21   A    
H40   O20   S    
O14   Zn7   S    
C5    C11   S    
C65   O10   A    
O12   Zn8   S    
O16   Zn5   S    
C8    C10   S    
C1    O34   A    
C86   C88   S    
C58   C71   A    
H43   O24   S    
C66   C69   A    
C49   H7    S    
C58   C60   A    
C67   C89   S    
C56   C78   S    
C91   O27   D    
C53   C81   S    
C34   C86   S    
C56   H35   S    
C69   H25   S    
C61   C63   A    
O23   Zn1   S    
C7    H38   S    
C48   O26   S    
C20   C35   S    
C22   H54   S    
C52   H15   S    
C28   H34   S    
C74   C77   A    
C45   C67   S    
C59   H19   S    
C31   C33   A    
C1    O3    A    
C51   C57   A    
C14   C27   A    
O6    Zn2   S    
C2    C16   S    
C44   C47   A    
C59   C72   A    
C53   C55   A    
C83   C88   S    
C83   O15   A    
C34   H30   S    
C23   C87   S    
C71   H16   S    
C4    C56   S    
C81   O17   A    
C42   C44   A    
O12   Zn4   S    
C42   C57   S    
C40   O23   A    
C52   C54   A    
C54   C80   S    
O10   Zn6   S    
C2    C45   S    
C26   H4    S    
C46   C48   A    
C59   C61   A    
C69   C71   A    
C46   O21   S    
C62   C66   A    
C85   C87   S    
H46   O26   S    
C32   C35   A    
C12   O4    A    
C62   C79   S    
C17   O2    A    
C17   C89   S    
C23   H29   S    
C23   C84   S    
C83   O19   A    
C45   H33   S    
C5    C7    S    
O32   Zn7   S    
C3    H36   S    
H50   O30   S    
C65   O33   A    
O1    Zn5   S    
H41   O21   S    
C22   C25   A    
C1    C32   S    
C40   C76   S    
O12   Zn6   S    
C36   H9    S    
C51   C53   A    
C34   C85   S    
C2    C4    S    
O1    Zn1   S    
C34   C90   S    
C38   H11   S    
C60   H20   S    
C86   H1    S    
C24   H2    S    
O4    Zn8   S    
C64   O32   A    
C16   O36   A    
C47   O25   S    
C12   O35   A    
C14   H45   S    
C8    C11   S    
O35   Zn4   S    
C8    H39   S    
C73   C79   A    
C44   O20   S    
C11   O29   S    
C75   C77   A    
O17   Zn6   S    
C80   O16   A    
C5    C91   S    
C74   C76   A    
C41   C75   S    
C68   H24   S    
C91   H47   S    
C43   C55   S    
C56   C89   S    
C20   C22   A    
C25   H3    S    
C23   C88   S    
C9    C11   S    
C12   C31   S    
C61   H21   S    
C15   H51   S    
C40   O7    A    
C21   C24   A    
C17   O6    A    
O2    Zn6   S    
C36   C38   A    
C92   H48   S    
C78   H32   S    
C2    C78   S    
C41   O8    A    
C63   C77   S    
C85   C88   S    
C41   O31   A    
C39   H13   S    
C30   H6    S    
C72   H17   S    
C66   H22   S    
C30   C33   A    
C63   C68   A    
C58   H18   S    
O19   Zn2   S    
O3    Zn7   S    
C38   C42   A    
C10   C64   S    
C24   C26   A    
O11   Zn3   S    
O15   Zn8   S    
C10   C13   S    
C67   H31   S    
C4    C67   S    
C6    C8    S    
C81   O13   A    
C52   C55   A    
O5    Zn1   S    
C4    H37   S    
C25   C27   A    
O31   Zn2   S    
C74   H28   S    
C29   C35   A    
C26   C28   A    
C85   O24   S    
C82   C90   S    
C29   H5    S    
C3    C89   S    
C92   O28   D    
C18   H52   S    
H44   O25   S    
C5    C10   S    
C29   C31   A    
O18   Zn1   S    
O9    Zn5   S    
H42   O22   S    
C30   C32   A    
C37   C50   A    
C15   C28   A    
C37   H10   S    
O33   Zn8   S    
O7    Zn3   S    
C70   H26   S    
C51   H14   S    
C6    C92   S    
C48   C50   A    
C3    C45   S    
C16   O5    A    
C18   C20   A    
O36   Zn5   S    
C43   C46   A    
C9    C65   S    
C50   H8    S    
O34   Zn3   S    
C87   H12   S    
C82   O18   A    
C7    C9    S    
C7    C13   S    
C21   C33   S    
O1    Zn7   S    
C39   C43   A    
C37   C39   A    
C87   C90   S    
H49   O29   S    
C68   C70   A    
C84   C86   S    
C70   C72   A    
C3    C78   S    
O12   Zn2   S    
C36   C49   A    
C6    C13   S    
C54   C57   A    
C27   H23   S    
