data_mof_unit_415.cif
_audit_creation_date              2013-03-05T16:00:37-0500
_audit_creation_method            fapswitch 2.2
_symmetry_space_group_name_H-M    P1
_symmetry_Int_Tables_number       1
_space_group_crystal_system       triclinic
_cell_length_a                    8.244457
_cell_length_b                    12.761001
_cell_length_c                    19.019645
_cell_angle_alpha                 99.337274
_cell_angle_beta                  91.714359
_cell_angle_gamma                 97.904438
_cell_volume                      1952.94264667

loop_
_atom_site_label
_atom_site_type_symbol
_atom_site_description
_atom_site_fract_x
_atom_site_fract_y
_atom_site_fract_z
_atom_type_partial_charge
P1    P     P_3+3 0.042930 0.392230 0.337410 0.466550
O1    O     O_2   0.875110 0.423180 0.326290 -0.362987
O2    O     O_3   0.123410 0.433040 0.414950 -0.417587
O3    O     O_3   0.661010 0.625070 0.369680 -0.355128
O4    O     O_2   0.711255 0.525544 0.243703 -0.404352
O5    O     O_3   0.008627 0.252093 0.318097 -0.546357
O6    O     O_3   0.716054 0.732425 0.249903 -0.463738
H1    H     H_    0.745199 0.880671 0.312621 0.136017
C1    C     C_3   0.571839 0.875932 0.224602 -0.136879
H2    H     H_    0.535464 0.952785 0.250399 0.121662
P2    P     P_3+3 0.672230 0.754900 0.555730 0.447317
P3    P     P_3+3 0.121982 0.819092 0.404408 0.500421
O7    O     O_2   0.847800 0.768730 0.534310 -0.370043
O8    O     O_3   0.082250 0.684470 0.405440 -0.373838
O9    O     O_2   0.010932 0.873910 0.458215 -0.353190
O10   O     O_3   0.691771 0.791911 0.648748 -0.575401
O11   O     O_3   0.041104 0.837543 0.322009 -0.511799
C2    C     C_3   0.107999 0.773960 0.265931 0.268822
H3    H     H_    0.036811 0.691937 0.256667 0.155715
H4    H     H_    0.239278 0.768249 0.277458 -0.019124
C3    C     C_3   0.095770 0.826506 0.199282 -0.069396
H5    H     H_    0.987063 0.868865 0.200834 0.207531
H6    H     H_    0.204481 0.888123 0.198643 0.115405
C4    C     C_3   0.236082 0.786502 0.618074 0.389342
H7    H     H_    0.359659 0.764971 0.608464 0.090526
H8    H     H_    0.152279 0.754163 0.570382 0.137983
C5    C     C_3   0.246116 0.907809 0.631004 -0.895570
H9    H     H_    0.326162 0.942519 0.679304 0.255151
H10   H     H_    0.297098 0.941288 0.584744 0.224284
H11   H     H_    0.121740 0.930107 0.639070 0.282529
Ba1   Ba    Ba6+2 0.853180 0.547790 0.465300 1.564528
C6    C     C_3   0.946999 0.210416 0.376935 0.473018
H12   H     H_    0.852108 0.255984 0.401170 0.082211
H13   H     H_    0.048098 0.213504 0.417284 0.125291
C7    C     C_3   0.870999 0.094038 0.351908 -0.920424
H14   H     H_    0.744653 0.090224 0.329115 0.260887
H15   H     H_    0.867935 0.048764 0.397011 0.228937
H16   H     H_    0.942615 0.054267 0.309735 0.305272
C8    C     C_3   0.724723 0.703889 0.679322 0.434692
H17   H     H_    0.838942 0.677127 0.659092 0.088043
H18   H     H_    0.622068 0.636602 0.667291 0.140631
C9    C     C_3   0.746012 0.737366 0.759902 -0.960410
H19   H     H_    0.852934 0.801443 0.773907 0.269968
H20   H     H_    0.766574 0.667584 0.785270 0.220130
H21   H     H_    0.633908 0.767716 0.780889 0.271237
P4    P     P_3+3 0.146790 0.607860 0.662600 0.464366
O12   O     O_2   0.314600 0.576860 0.673750 -0.360884
O13   O     O_3   0.066300 0.567050 0.585060 -0.414767
O14   O     O_3   0.528700 0.375020 0.630330 -0.360044
O15   O     O_3   0.178702 0.748262 0.679005 -0.555322
P5    P     P_3+3 0.060320 0.174909 0.590321 0.442896
O16   O     O_3   0.611760 0.365720 0.463870 -0.409612
O17   O     O_3   0.107460 0.315620 0.594570 -0.382529
O18   O     O_2   0.187174 0.122534 0.543622 -0.357131
O19   O     O_3   0.106648 0.141602 0.673484 -0.532181
Ba2   Ba    Ba6+2 0.336650 0.452300 0.534710 1.557468
P6    P     P_3+3 0.620545 0.616925 0.278530 0.476402
C10   C     C_3   0.646508 0.822508 0.281719 0.226371
H22   H     H_    0.550992 0.805374 0.320109 0.005121
H23   H     H_    0.459966 0.824289 0.199088 0.117763
O20   O     O_3   0.577950 0.634370 0.536140 -0.414360
C11   C     C_3   0.470897 0.302828 0.319413 0.478644
H24   H     H_    0.347008 0.313740 0.337260 0.081574
H25   H     H_    0.558086 0.377304 0.337765 0.129541
C12   C     C_3   0.465255 0.280006 0.238305 -0.944051
H26   H     H_    0.370210 0.210309 0.217945 0.275637
H27   H     H_    0.435994 0.350739 0.216277 0.209952
H28   H     H_    0.586444 0.261837 0.219792 0.279209
P7    P     P_3+3 0.521943 0.233951 0.438078 0.456720
O21   O     O_2   0.341900 0.231310 0.465740 -0.341928
O22   O     O_3   0.522605 0.215187 0.344718 -0.555709
C13   C     C_3   0.043903 0.212060 0.726590 0.453184
H29   H     H_    0.110078 0.294930 0.729846 0.130960
H30   H     H_    0.910468 0.210849 0.716001 0.019351
C14   C     C_3   0.069054 0.175905 0.798061 -0.948881
H31   H     H_    0.201239 0.174037 0.809611 0.285045
H32   H     H_    0.024777 0.232127 0.841543 0.218407
H33   H     H_    0.000257 0.094371 0.796835 0.263258
P8    P     P_3+3 0.567165 0.384407 0.720735 0.436094
C15   C     C_3   0.522925 0.178361 0.709580 0.452336
H34   H     H_    0.633436 0.195852 0.678815 0.018460
O23   O     O_2   0.481937 0.479318 0.753584 -0.416644
O24   O     O_3   0.467143 0.269496 0.748367 -0.511206
H35   H     H_    0.424012 0.135197 0.670478 0.147914
H36   H     H_    0.661780 0.146702 0.800539 0.264861
C16   C     C_3   0.563545 0.104375 0.760695 -1.038624
H37   H     H_    0.607155 0.032387 0.730546 0.247427
H38   H     H_    0.453044 0.078483 0.788970 0.278467
C17   C     C_R   0.061418 0.554865 0.801300 -0.296377
H39   H     H_    0.156313 0.619496 0.824267 0.160557
C18   C     C_R   0.020942 0.542220 0.726960 0.303344
C19   C     C_R   0.856369 0.403156 0.807602 -0.368944
H40   H     H_    0.803712 0.334556 0.829915 0.146787
C20   C     C_R   0.787048 0.416973 0.742554 0.235447
C21   C     C_R   0.334171 0.583227 0.186324 -0.300812
H41   H     H_    0.389164 0.645464 0.158923 0.178675
C22   C     C_R   0.400693 0.580326 0.254468 0.191252
C23   C     C_R   0.135236 0.431657 0.198855 -0.346010
H42   H     H_    0.048663 0.361090 0.177910 0.157541
C24   C     C_R   0.168914 0.455899 0.273427 0.326185
C25   C     C_R   0.985775 0.479303 0.843466 0.104445
C26   C     C_R   0.877436 0.477342 0.699664 -0.428042
H43   H     H_    0.830634 0.478363 0.646048 0.155114
C27   C     C_R   0.206600 0.502226 0.153330 0.101120
C28   C     C_R   0.307716 0.526578 0.300150 -0.430066
H44   H     H_    0.350735 0.533215 0.355231 0.155903
C29   C     C_R   0.758945 0.414453 0.957326 -0.196951
C30   C     C_R   0.654906 0.371380 0.004645 -0.110708
C31   C     C_R   0.704046 0.387123 0.075786 -0.120108
C32   C     C_R   0.859992 0.439537 0.097764 -0.076178
C33   C     C_R   0.982130 0.458511 0.048880 0.103173
C34   C     C_R   0.928362 0.449663 0.975014 0.100961
C35   C     C_R   0.150561 0.491829 0.073402 -0.006878
C36   C     C_R   0.263462 0.516207 0.020352 0.116365
C37   C     C_R   0.209405 0.506852 0.946741 0.070716
C38   C     C_R   0.040882 0.478452 0.922522 -0.050058
C39   C     C_R   0.433749 0.547805 0.037521 -0.155185
C40   C     C_R   0.538407 0.588704 0.989552 -0.010632
C41   C     C_R   0.488052 0.572305 0.918388 -0.123360
C42   C     C_R   0.330550 0.521222 0.897313 -0.155429
H45   H     H_    0.697247 0.426295 0.909728 0.151652
H46   H     H_    0.528579 0.339442 0.987920 0.140525
H47   H     H_    0.616573 0.367514 0.114562 0.142651
H48   H     H_    0.880569 0.468077 0.153505 0.185163
H49   H     H_    0.493410 0.536146 0.085894 0.142628
H50   H     H_    0.665255 0.619600 0.005844 0.185647
H51   H     H_    0.575335 0.590801 0.879240 0.155174
H52   H     H_    0.303784 0.491075 0.842066 0.191381
C43   C     C_R   0.760881 0.178937 0.520517 -0.503465
C44   C     C_R   0.426137 0.807416 0.469528 -0.526832
C45   C     C_R   0.408510 0.975071 0.428025 0.109303
C46   C     C_R   0.339309 0.870735 0.433620 0.166439
C47   C     C_R   0.575575 0.848606 0.507051 0.289343
C48   C     C_R   0.640421 0.959136 0.509743 -0.082895
C49   C     C_R   0.555312 0.024314 0.470378 -0.126813
C50   C     C_R   0.618819 0.135964 0.478200 0.292237
C51   C     C_R   0.852179 0.114581 0.551929 0.193520
C52   C     C_R   0.789436 0.006055 0.549385 -0.164635
H53   H     H_    0.859188 0.959734 0.578229 0.180332
H54   H     H_    0.806964 0.263650 0.525881 0.164128
H55   H     H_    0.372274 0.725635 0.471060 0.174873
N1    N     N_R   0.687199 0.896758 0.170230 0.286899
O25   O     O_R   0.760956 0.993815 0.170586 -0.380693
O26   O     O_R   0.692899 0.823754 0.114360 -0.314670
N2    N     N_R   0.082165 0.747739 0.134082 0.243438
O27   O     O_R   0.192978 0.754878 0.087150 -0.386481
O28   O     O_R   0.945286 0.683524 0.116799 -0.367627
I1    I     I_    0.286736 0.032638 0.343513 -0.374489

loop_
_geom_bond_atom_site_label_1
_geom_bond_atom_site_label_2
_geom_bond_distance
_ccdc_geom_bond_type
O5    C6    1.395050 S    
C5    H10   1.108170 S    
C2    C3    1.534087 S    
C29   C34   1.419929 A    
Ba1   O20   2.928204 S    
C33   C34   1.442389 A    
C4    C5    1.517784 S    
Ba1   O16   2.839867 S    
C15   H35   1.108506 S    
C36   C37   1.437654 A    
C49   C50   1.430939 A    
C8    H18   1.109371 S    
H36   C16   1.110009 S    
C24   C28   1.383448 A    
C7    H15   1.108337 S    
C4    H8    1.110450 S    
P1    O1    1.508283 D    
C45   C49   1.441117 A    
P2    C47   1.870641 S    
C15   H34   1.113847 S    
C16   H38   1.110186 S    
C37   C38   1.429321 A    
P1    Ba1   3.437963 S    
C30   C31   1.375464 A    
C2    H3    1.111792 S    
P2    O10   1.752109 S    
P7    O22   1.753097 S    
C44   H55   1.081820 S    
C32   C33   1.413884 A    
C11   H25   1.109612 S    
O16   P7    1.727593 S    
C32   H48   1.064115 S    
C40   C41   1.377929 A    
C7    H14   1.107941 S    
C12   H27   1.106800 S    
P3    O11   1.748293 S    
C15   C16   1.521184 S    
C29   C30   1.387395 A    
Ba1   Ba2   4.545163 S    
C17   C18   1.421091 A    
C1    H2    1.107271 S    
O8    Ba1   2.787838 S    
O6    C10   1.411635 S    
C2    H4    1.112425 S    
O19   C13   1.400262 S    
H1    C10   1.105486 S    
P2    Ba1   3.454243 S    
C3    H5    1.107213 S    
C5    H11   1.109710 S    
P7    O21   1.587439 D    
C9    H20   1.109291 S    
C15   O24   1.413230 S    
P1    C24   1.839632 S    
N2    O28   1.299650 A    
N2    O27   1.300778 A    
C8    C9    1.520846 S    
C4    O15   1.399189 S    
P4    O13   1.575983 S    
P1    O5    1.747683 S    
O3    Ba1   2.762153 S    
C6    C7    1.523663 S    
C7    H16   1.108260 S    
C4    H7    1.103970 S    
P8    C20   1.822920 S    
C13   H30   1.109989 S    
C8    H17   1.104044 S    
C16   H37   1.110954 S    
C31   H47   1.081075 S    
P4    C18   1.856407 S    
C10   H22   1.113518 S    
O14   P8    1.720929 S    
O1    Ba1   2.880109 S    
P1    O2    1.575957 S    
C9    H21   1.110819 S    
C6    H13   1.108202 S    
O3    P6    1.739255 S    
C44   C46   1.393082 A    
C14   H31   1.109504 S    
C11   H24   1.105621 S    
C43   C50   1.394270 A    
O2    Ba2   2.792736 S    
P3    O9    1.541043 D    
C1    N1    1.457095 S    
C12   H28   1.110988 S    
P6    C22   1.833336 S    
C19   C20   1.394474 A    
O11   C2    1.406265 S    
C45   I1    2.149598 S    
C33   C35   1.435648 A    
C21   C22   1.400200 A    
O2    Ba1   2.931685 S    
C14   H32   1.108822 S    
C19   C25   1.415621 A    
P5    C51   1.857373 S    
P3    O8    1.707478 S    
C12   H26   1.110599 S    
P7    C50   1.825272 S    
Ba2   O21   2.917521 S    
Ba1   O13   2.792150 S    
C3    H6    1.109783 S    
C47   C48   1.430172 A    
N1    O26   1.301172 A    
C44   C47   1.396805 A    
C9    H19   1.110705 S    
C29   H45   1.067286 S    
C18   C26   1.381717 A    
C45   C46   1.396500 A    
C34   C38   1.439800 A    
C21   C27   1.421067 A    
C35   C36   1.435150 A    
C51   C52   1.402702 A    
O17   Ba2   2.788437 S    
O13   Ba2   2.932513 S    
P4    O12   1.508556 D    
C1    C10   1.529592 S    
P3    C46   1.857466 S    
C11   C12   1.520816 S    
C17   C25   1.441292 A    
Ba2   O20   2.839284 S    
O7    Ba1   2.917344 S    
C30   H46   1.083222 S    
C13   H29   1.112594 S    
P2    O20   1.605178 S    
C48   C52   1.425510 A    
P8    O23   1.538101 D    
C41   C42   1.386736 A    
C42   H52   1.064160 S    
C48   C49   1.440787 A    
O14   Ba2   2.761554 S    
C28   H44   1.082224 S    
P4    O15   1.749489 S    
C23   C24   1.412395 A    
O4    P6    1.541656 D    
C1    H23   1.105777 S    
C6    H12   1.105602 S    
P5    O18   1.544201 D    
C22   C28   1.378974 A    
C31   C32   1.384088 A    
P8    O24   1.746397 S    
P2    O7    1.510190 D    
C13   C14   1.522050 S    
C43   H54   1.082721 S    
C23   C27   1.429915 A    
C19   H40   1.077948 S    
C11   O22   1.399182 S    
P5    O19   1.747884 S    
C37   C42   1.405953 A    
C26   H43   1.082185 S    
C14   H33   1.110772 S    
C36   C39   1.419290 A    
C52   H53   1.077459 S    
O10   C8    1.400024 S    
C27   C35   1.554901 S    
C43   C51   1.378505 A    
C20   C26   1.377177 A    
C23   H42   1.081138 S    
P4    Ba2   3.438465 S    
C21   H41   1.075800 S    
C25   C38   1.559859 S    
N1    O25   1.301416 A    
C40   H50   1.082920 S    
P5    O17   1.772256 S    
C17   H39   1.080871 S    
C39   C40   1.388178 A    
C39   H49   1.071460 S    
O6    P6    1.748056 S    
O16   Ba2   2.927375 S    
C3    N2    1.454967 S    
O12   Ba2   2.880483 S    
C5    H9    1.107647 S    
C41   H51   1.081805 S    
