data_mof_unit_3548.cif
_audit_creation_date              2012-10-26T20:24:19-0400
_audit_creation_method            fapswitch 2.2
_symmetry_space_group_name_H-M    P1
_symmetry_Int_Tables_number       1
_space_group_crystal_system       triclinic
_cell_length_a                    15.83398
_cell_length_b                    10.768309
_cell_length_c                    9.530666
_cell_angle_alpha                 90.795801
_cell_angle_beta                  89.589231
_cell_angle_gamma                 89.801023
_cell_volume                      1624.81913986

loop_
_atom_site_label
_atom_site_type_symbol
_atom_type_description
_atom_site_fract_x
_atom_site_fract_y
_atom_site_fract_z
_atom_type_partial_charge
C1    C     C_R   0.500880 0.260352 0.499527 0.539977
C2    C     C_3   0.517357 0.932421 0.649501 -0.228694
C3    C     C_3   0.412739 0.075083 0.452998 -0.228107
C4    C     C_R   0.340122 0.500695 0.500411 0.563343
C5    C     C_3   0.569747 0.069542 0.399777 -0.255311
C6    C     C_3   0.500317 0.122702 0.499899 0.019468
C7    C     C_3   0.499399 0.878537 0.500838 0.046508
C8    C     C_3   0.414952 0.931737 0.439544 0.038304
C9    C     C_3   0.572350 0.926104 0.405549 -0.273870
C10   C     C_3   0.468406 0.621167 0.085385 0.036728
C11   C     C_3   0.483739 0.629571 0.920848 0.041054
C12   C     C_3   0.083075 0.505109 0.500416 0.032641
C13   C     C_3   0.589214 0.470843 0.078437 0.137905
C14   C     C_3   0.443361 0.404780 0.081822 -0.131041
C15   C     C_3   0.582957 0.457439 0.911861 -0.096884
C16   C     C_R   0.499655 0.740040 0.500653 0.603931
C17   C     C_3   0.437495 0.415217 0.915519 -0.130489
C18   C     C_R   0.659857 0.500379 0.499601 0.583099
C19   C     C_3   0.972780 0.404151 0.425302 -0.095912
C20   C     C_3   0.028364 0.509906 0.369309 0.152667
C21   C     C_1   0.250406 0.502695 0.501131 -0.011246
C22   C     C_1   0.749534 0.501420 0.498642 0.050374
C23   C     C_3   0.970645 0.498909 0.632023 -0.122934
C24   C     C_3   0.028108 0.399850 0.559165 -0.126121
C25   C     C_3   0.005952 0.485706 0.116406 -0.264466
C26   C     C_3   0.317645 0.868083 0.637735 -0.283660
C27   C     C_2   0.375150 0.647554 0.120787 0.556692
C28   C     C_2   0.551406 0.728281 0.895119 0.530697
C29   C     C_2   0.655813 0.572219 0.108826 0.601618
C30   C     C_2   0.626590 0.346339 0.129878 0.584186
C31   C     C_2   0.938615 0.726728 0.379636 0.567837
C32   C     C_3   0.916810 0.503895 0.498245 0.008912
C33   C     C_3   0.027025 0.604350 0.573436 -0.127387
C34   C     C_3   0.971965 0.608649 0.440099 0.089220
C35   C     C_1   0.174799 0.504222 0.500971 -0.037531
C36   C     C_1   0.825113 0.502456 0.498237 0.002605
C37   C     C_3   0.516850 0.074278 0.649761 -0.236730
Cu1   Cu    Cu3+1 0.500040 0.499860 0.642410 0.934651
Cu2   Cu    Cu3+1 0.499960 0.500140 0.357590 1.017387
H1    H     H_    0.471585 0.899625 0.728361 0.162748
H2    H     H_    0.949349 0.322399 0.365209 0.127578
H3    H     H_    0.426450 0.667158 0.869579 0.130881
H4    H     H_    0.637374 0.502061 0.861328 0.201880
H5    H     H_    0.461549 0.309772 0.111356 0.166867
H6    H     H_    0.379374 0.411849 0.129230 0.157879
H7    H     H_    0.372917 0.444027 0.885075 0.172977
H8    H     H_    0.446230 0.321062 0.868468 0.135212
H9    H     H_    0.592153 0.360085 0.873992 0.149544
H10   H     H_    0.050445 0.685896 0.633973 0.128280
H11   H     H_    0.945381 0.494051 0.740775 0.134629
H12   H     H_    0.363516 0.106879 0.529245 0.124741
H13   H     H_    0.052557 0.314466 0.608913 0.122315
H14   H     H_    0.467033 0.108408 0.724000 0.136200
H15   H     H_    0.578598 0.109381 0.688788 0.141435
H16   H     H_    0.580943 0.901181 0.682872 0.172742
H17   H     H_    0.098082 0.595491 0.212070 0.281813
H18   H     H_    0.038841 0.495398 0.013851 0.147739
H19   H     H_    0.950317 0.548741 0.119206 0.189885
H20   H     H_    0.984459 0.388102 0.125183 0.155023
H21   H     H_    0.285072 0.900134 0.430900 0.252585
H22   H     H_    0.249942 0.844493 0.652544 0.140192
H23   H     H_    0.555348 0.097161 0.290925 0.169258
H24   H     H_    0.329425 0.958180 0.691783 0.133295
H25   H     H_    0.354421 0.792318 0.685737 0.172465
H26   H     H_    0.290315 0.730008 0.249946 0.334398
H27   H     H_    0.591105 0.902514 0.940872 0.342197
H28   H     H_    0.776297 0.628619 0.079770 0.352267
H29   H     H_    0.633705 0.159989 0.102418 0.333834
H30   H     H_    0.864488 0.877698 0.407945 0.341226
H31   H     H_    0.632622 0.108064 0.427873 0.143027
H32   H     H_    0.634569 0.895026 0.446232 0.150774
H33   H     H_    0.566893 0.887437 0.297090 0.178573
H34   H     H_    0.395726 0.115399 0.349927 0.106998
H35   H     H_    0.417835 0.912025 0.324716 0.185098
H36   H     H_    0.500559 0.699227 0.137351 0.196212
N1    N     N_3   0.501840 0.500250 0.143650 -0.309599
N2    N     N_3   0.501160 0.503300 0.856280 -0.290216
N3    N     N_2   0.063478 0.516081 0.228835 -0.498256
N4    N     N_2   0.336782 0.874522 0.489261 -0.504270
O1    O     O_R   0.500050 0.317570 0.620260 -0.532475
O2    O     O_R   0.353659 0.719713 0.238039 -0.681257
O3    O     O_2   0.613457 0.707981 0.821327 -0.492744
O4    O     O_R   0.541544 0.845427 0.958997 -0.755173
O5    O     O_2   0.640367 0.663021 0.182956 -0.515617
O6    O     O_R   0.737241 0.558091 0.052210 -0.695766
O7    O     O_2   0.688500 0.344459 0.206081 -0.496435
O8    O     O_R   0.596700 0.233041 0.076461 -0.773875
O9    O     O_2   0.960353 0.758493 0.262290 -0.534746
O10   O     O_R   0.883037 0.800534 0.459291 -0.690014
O11   O     O_R   0.499980 0.317810 0.379740 -0.511528
O12   O     O_R   0.379110 0.499870 0.620240 -0.519255
O13   O     O_R   0.379040 0.500110 0.379720 -0.477301
O14   O     O_R   0.500020 0.682190 0.620260 -0.496487
O15   O     O_R   0.499950 0.682430 0.379740 -0.466920
O16   O     O_R   0.620960 0.499890 0.620280 -0.499761
O17   O     O_R   0.620890 0.500130 0.379760 -0.444727
O18   O     O_2   0.318764 0.609436 0.044501 -0.575766

loop_
_geom_bond_atom_site_label_1
_geom_bond_atom_site_label_2
_ccdc_geom_bond_type
C10   C27   S    
C24   H13   S    
H21   N4    S    
C1    O11   A    
C18   O17   A    
C2    C7    S    
C9    H33   S    
C3    C6    S    
C7    C8    S    
C15   N2    S    
C16   O14   A    
C32   C36   S    
C13   C29   S    
C26   H22   S    
C2    H16   S    
Cu1   Cu2   S    
C33   H10   S    
H17   N3    S    
C11   H3    S    
C26   H25   S    
C11   N2    S    
H27   O4    S    
C10   N1    S    
C19   C20   S    
C31   O10   S    
Cu1   O16   S    
C8    N4    S    
C23   C24   S    
C30   O7    D    
Cu2   O11   S    
C29   O6    S    
C4    O12   A    
C37   H14   S    
C28   O4    S    
C18   O16   A    
C14   C17   S    
C25   H18   S    
C15   H9    S    
H30   O10   S    
C19   C32   S    
C17   N2    S    
C14   H6    S    
H28   O6    S    
C28   O3    D    
C25   N3    S    
C17   H8    S    
C13   C30   S    
C27   O2    S    
C17   H7    S    
C29   O5    D    
C3    C8    S    
C3    H12   S    
C23   H11   S    
C23   C33   S    
Cu1   O12   S    
C1    C6    S    
C14   N1    S    
C26   H24   S    
Cu2   O15   S    
C5    C9    S    
C5    H31   S    
C10   H36   S    
H26   O2    S    
C13   N1    S    
C12   C20   S    
C8    H35   S    
C33   C34   S    
C6    C37   S    
Cu2   N1    S    
C12   C35   S    
C37   H15   S    
C7    C16   S    
C13   C15   S    
C25   H19   S    
Cu2   O13   S    
C31   C34   S    
C14   H5    S    
C7    C9    S    
C27   O18   D    
C31   O9    D    
C18   C22   S    
C9    H32   S    
C21   C35   T    
Cu1   N2    S    
C22   C36   T    
C12   C24   S    
C16   O15   A    
C26   N4    S    
C20   N3    S    
C23   C32   S    
C19   C24   S    
C12   C33   S    
C20   C34   S    
C4    C21   S    
C2    C37   S    
C5    C6    S    
Cu1   O1    S    
C11   C28   S    
Cu1   O14   S    
C5    H23   S    
C3    H34   S    
Cu2   O17   S    
C10   C11   S    
C15   H4    S    
C2    H1    S    
H29   O8    S    
C1    O1    A    
C25   H20   S    
C30   O8    S    
C19   H2    S    
C32   C34   S    
C4    O13   A    
