data_mof_unit_799.cif
_audit_creation_date              2012-12-10T17:45:27-0500
_audit_creation_method            fapswitch 2.2
_symmetry_space_group_name_H-M    P1
_symmetry_Int_Tables_number       1
_space_group_crystal_system       triclinic
_cell_length_a                    11.535767
_cell_length_b                    10.709904
_cell_length_c                    10.038931
_cell_angle_alpha                 88.984844
_cell_angle_beta                  90.006848
_cell_angle_gamma                 95.467863
_cell_volume                      1234.44054319

loop_
_atom_site_label
_atom_site_type_symbol
_atom_type_description
_atom_site_fract_x
_atom_site_fract_y
_atom_site_fract_z
_atom_type_partial_charge
C1    C     C_R   0.515264 0.262788 0.501422 0.912056
C2    C     C_R   0.483517 0.874488 0.495384 -0.237627
C3    C     C_R   0.362580 0.304126 0.141576 0.516540
C4    C     C_R   0.282313 0.499246 0.499954 0.936130
C5    C     C_R   0.317038 0.198433 0.074137 -0.427092
C6    C     C_R   0.307091 0.202393 0.939326 -0.132465
C7    C     C_R   0.356039 0.307614 0.867108 0.461468
C8    C     C_R   0.432001 0.404595 0.929561 -0.050336
C9    C     C_R   0.432898 0.404285 0.074109 0.024605
C10   C     C_R   0.562856 0.589126 0.070208 -0.058536
C11   C     C_R   0.564966 0.588868 0.928809 0.474785
C12   C     C_R   0.520115 0.043884 0.865912 -0.257077
C13   C     C_R   0.491456 0.739516 0.498582 0.873346
C14   C     C_R   0.717708 0.500969 0.499989 0.868171
C15   C     C_1   0.161607 0.498525 0.499822 -0.166432
C16   C     C_1   0.059304 0.498509 0.499871 0.020283
C17   C     C_1   0.940518 0.499173 0.499977 0.018071
C18   C     C_1   0.838282 0.500040 0.500017 -0.153294
C19   C     C_R   0.555212 0.109788 0.749934 -0.158888
C20   C     C_1   0.601344 0.135572 0.266805 0.296233
C21   C     C_1   0.234463 0.102078 0.877105 0.216528
C22   C     C_1   0.318132 0.789763 0.724444 0.281272
C23   C     C_R   0.444112 0.934023 0.858577 0.506505
C24   C     C_R   0.417282 0.882698 0.733499 0.012300
C25   C     C_R   0.472705 0.937676 0.617127 -0.082241
C26   C     C_R   0.522962 0.061218 0.624223 0.095472
C27   C     C_R   0.539136 0.131560 0.504732 -0.270356
C28   C     C_R   0.551114 0.070151 0.383980 -0.066590
C29   C     C_R   0.518818 0.942894 0.377578 0.383978
H1    H     H_    0.609442 0.197350 0.759326 0.175605
H2    H     H_    0.544605 0.083485 0.961192 0.173263
H3    H     H_    0.615033 0.662095 0.122309 0.195045
H4    H     H_    0.272370 0.119407 0.128376 0.177432
H5    H     H_    0.240627 0.284757 0.726640 0.313687
H6    H     H_    0.646446 0.658796 0.773640 0.380224
H7    H     H_    0.404687 0.937534 0.045570 0.343539
H8    H     H_    0.446097 0.838981 0.242714 0.352390
H9    H     H_    0.274083 0.238634 0.299514 0.312875
N1    N     N_R   0.498930 0.498800 0.142780 -0.134320
N2    N     N_R   0.498900 0.498720 0.857170 -0.151923
N3    N     N_1   0.642205 0.188354 0.174067 -0.221885
N4    N     N_1   0.175703 0.022468 0.827498 -0.185762
N5    N     N_1   0.237624 0.716943 0.718607 -0.185194
O1    O     O_R   0.500000 0.316780 0.614690 -0.561533
O2    O     O_3   0.636435 0.682276 0.866816 -0.756217
O3    O     O_3   0.391249 0.878711 0.970955 -0.763879
O4    O     O_3   0.522673 0.887845 0.254895 -0.755804
O5    O     O_3   0.321768 0.315491 0.267717 -0.704696
O6    O     O_R   0.499990 0.316750 0.385360 -0.572984
O7    O     O_R   0.334450 0.500030 0.614670 -0.549499
O8    O     O_R   0.334440 0.500000 0.385330 -0.543350
O9    O     O_R   0.500010 0.683250 0.614640 -0.631648
O10   O     O_R   0.500000 0.683220 0.385310 -0.595360
O11   O     O_R   0.665560 0.500000 0.614670 -0.646926
O12   O     O_R   0.665550 0.499970 0.385330 -0.608276
O13   O     O_3   0.323839 0.315900 0.737516 -0.703190
Zn1   Zn    Zn3+2 0.500010 0.500020 0.653130 0.996291
Zn2   Zn    Zn3+2 0.499990 0.499980 0.346870 1.015288

loop_
_geom_bond_atom_site_label_1
_geom_bond_atom_site_label_2
_ccdc_geom_bond_type
C23   C24   A    
H5    O13   S    
C6    C7    A    
C3    C9    A    
H8    O4    S    
C13   O9    A    
C20   C28   S    
C14   C18   S    
C1    O1    A    
H9    O5    S    
C22   N5    T    
O1    Zn1   S    
O10   Zn2   S    
C1    C27   S    
C4    C15   S    
C14   O12   A    
C7    C8    A    
O8    Zn2   S    
C6    C21   S    
H7    O3    S    
C19   H1    S    
C12   C23   A    
C26   C27   A    
C5    C6    A    
C7    O13   S    
C29   O4    S    
C2    C29   A    
N1    Zn2   S    
C12   C19   A    
C28   C29   A    
C14   O11   A    
C20   N3    T    
C2    C25   A    
C13   O10   A    
C12   H2    S    
C11   N2    A    
C22   C24   S    
C11   O2    S    
C16   C17   S    
C10   C11   A    
C4    O8    A    
C15   C16   T    
H6    O2    S    
C10   H3    S    
C3    O5    S    
C9    N1    A    
C24   C25   A    
C19   C26   A    
C17   C18   T    
O9    Zn1   S    
O12   Zn2   S    
C27   C28   A    
C23   O3    S    
C2    C13   S    
C10   N1    A    
N2    Zn1   S    
C8    N2    A    
C25   C26   A    
O7    Zn1   S    
C1    O6    A    
O6    Zn2   S    
C21   N4    T    
C4    O7    A    
C8    C9    A    
C3    C5    A    
O11   Zn1   S    
C5    H4    S    
