data_mof_unit_2914.cif
_audit_creation_date              2012-12-10T17:18:58-0500
_audit_creation_method            fapswitch 2.2
_symmetry_space_group_name_H-M    P1
_symmetry_Int_Tables_number       1
_space_group_crystal_system       triclinic
_cell_length_a                    9.673427
_cell_length_b                    10.858035
_cell_length_c                    13.459477
_cell_angle_alpha                 93.056945
_cell_angle_beta                  73.239577
_cell_angle_gamma                 90.555117
_cell_volume                      1351.70221032

loop_
_atom_site_label
_atom_site_type_symbol
_atom_type_description
_atom_site_fract_x
_atom_site_fract_y
_atom_site_fract_z
_atom_type_partial_charge
C1    C     C_R   0.502883 0.736622 0.492955 0.843904
C2    C     C_R   0.383055 0.489153 0.813765 -0.089306
C3    C     C_R   0.289346 0.873373 0.417900 -0.073302
C4    C     C_R   0.423680 0.492579 0.699266 0.797974
C5    C     C_R   0.158775 0.929442 0.422358 -0.113823
C6    C     C_R   0.124901 0.044579 0.473167 -0.178491
C7    C     C_R   0.227866 0.109111 0.509158 -0.162468
C8    C     C_R   0.367917 0.058980 0.494377 0.096504
C9    C     C_R   0.388281 0.932729 0.464220 0.067316
C10   C     C_R   0.505258 0.870212 0.483340 -0.081656
C11   C     C_R   0.616941 0.937603 0.506645 -0.211837
C12   C     C_R   0.449935 0.503187 0.976523 -0.023199
C13   C     C_R   0.611562 0.064944 0.514170 -0.206425
C14   C     C_R   0.488376 0.127637 0.508484 -0.096796
C15   C     C_R   0.911250 0.337353 0.360378 -0.116878
C16   C     C_R   0.496180 0.262554 0.504749 0.760772
C17   C     C_R   0.009776 0.258177 0.291562 -0.206114
C18   C     C_R   0.152201 0.257679 0.291891 -0.209677
C19   C     C_R   0.197106 0.336145 0.361213 -0.170143
C20   C     C_R   0.101110 0.419408 0.431965 0.176525
C21   C     C_R   0.952167 0.419832 0.431707 0.217298
C22   C     C_R   0.899278 0.576333 0.564483 -0.064193
C23   C     C_R   0.486958 0.470303 0.868468 0.051880
C24   C     C_R   0.045792 0.577499 0.565388 0.256691
C25   C     C_R   0.577263 0.503598 0.300863 0.863224
C26   C     C_R   0.802780 0.525054 0.022167 -0.274856
C27   C     C_R   0.621105 0.507890 0.187452 -0.141234
C28   C     C_R   0.242994 0.526810 0.869893 -0.279168
C29   C     C_R   0.212775 0.567432 0.973471 -0.182397
C30   C     C_R   0.318257 0.566755 0.025116 0.326365
C31   C     C_3   0.078480 0.669793 0.642927 -0.798217
C32   C     C_R   0.555132 0.487535 0.028227 0.113879
C33   C     C_R   0.701325 0.486206 0.971516 0.106704
C34   C     C_R   0.739353 0.450497 0.866331 -0.214753
C35   C     C_R   0.630456 0.428271 0.818722 -0.173396
C36   C     C_R   0.520452 0.475021 0.134732 -0.230118
C37   C     C_R   0.756556 0.552163 0.129967 0.429176
Cu1   Cu    Cu3+1 0.359340 0.500010 0.500010 0.944594
Cu2   Cu    Cu3+1 0.640660 0.499990 0.499990 0.963928
H1    H     H_    0.312326 0.784230 0.376928 0.230106
H2    H     H_    0.308141 0.327381 0.356203 0.204268
H3    H     H_    0.851438 0.435502 0.822464 0.141941
H4    H     H_    0.911044 0.545680 0.976699 0.147824
H5    H     H_    0.413673 0.445107 0.176069 0.166864
H6    H     H_    0.160900 0.539431 0.830993 0.173732
H7    H     H_    0.111584 0.612392 0.010028 0.228277
H8    H     H_    0.662855 0.383144 0.742217 0.175182
H9    H     H_    0.709228 0.891959 0.519062 0.162550
H10   H     H_    0.784764 0.812426 0.305015 0.371144
H11   H     H_    0.189679 0.670578 0.646289 0.282828
H12   H     H_    0.082012 0.881712 0.389527 0.184556
H13   H     H_    0.053397 0.764068 0.624571 0.212377
H14   H     H_    0.009139 0.651023 0.722067 0.196121
H15   H     H_    0.190670 0.533504 0.229703 0.346443
H16   H     H_    0.019775 0.085295 0.482840 0.147220
H17   H     H_    0.192261 0.195171 0.552157 0.172298
H18   H     H_    0.703445 0.114276 0.526807 0.161271
H19   H     H_    0.821807 0.638607 0.617149 0.152690
H20   H     H_    0.804431 0.330207 0.354293 0.192796
H21   H     H_    0.974943 0.196306 0.237809 0.173808
H22   H     H_    0.228597 0.195233 0.238579 0.181090
N1    N     N_R   0.852480 0.498790 0.499000 -0.214247
N2    N     N_R   0.148360 0.498710 0.498970 -0.193621
O1    O     O_R   0.381190 0.680360 0.500010 -0.600952
O2    O     O_2   0.922527 0.753180 0.102972 -0.274217
O3    O     O_3   0.726085 0.750280 0.279078 -0.528455
O4    O     O_2   0.443140 0.733438 0.127748 -0.252541
O5    O     O_2   0.198744 0.779452 0.125054 -0.207679
O6    O     O_3   0.232602 0.612669 0.246280 -0.506137
O7    O     O_R   0.618760 0.680340 0.500000 -0.559179
O8    O     O_R   0.323240 0.499990 0.650990 -0.591799
O9    O     O_R   0.560820 0.499960 0.650980 -0.594081
O10   O     O_R   0.381240 0.319660 0.500000 -0.619184
O11   O     O_R   0.618810 0.319640 0.499990 -0.614990
O12   O     O_R   0.439180 0.500040 0.349020 -0.578896
O13   O     O_R   0.676760 0.500010 0.349010 -0.552608
O14   O     O_2   0.951400 0.607307 0.229744 -0.293636
S1    S     S_3+6 0.845942 0.667270 0.184758 0.025898
S2    S     S_3+6 0.299035 0.677506 0.131630 0.032655

loop_
_geom_bond_atom_site_label_1
_geom_bond_atom_site_label_2
_ccdc_geom_bond_type
C19   C20   A    
C34   H3    S    
C31   H13   S    
C35   H8    S    
C7    C8    A    
O14   S1    D    
C12   C23   A    
C16   O11   A    
C32   C36   A    
C28   C29   A    
C18   C19   A    
C5    C6    A    
C13   H18   S    
C34   C35   A    
Cu2   O11   S    
C8    C9    A    
Cu2   O9    S    
C9    C10   A    
C6    H16   S    
O5    S2    D    
C13   C14   A    
C12   C32   A    
C11   H9    S    
C7    H17   S    
C26   H4    S    
C33   C34   A    
Cu1   O1    S    
Cu1   O12   S    
O3    S1    S    
C28   H6    S    
H10   O3    S    
C16   O10   A    
O4    S2    D    
C25   O12   A    
C2    C4    S    
C29   C30   A    
C3    C9    A    
C22   N1    A    
C26   C33   A    
C17   C18   A    
C26   C37   A    
Cu2   O13   S    
C31   H14   S    
C21   N1    A    
C30   S2    S    
C3    H1    S    
C24   N2    A    
C23   C35   A    
C14   C16   S    
C36   H5    S    
C31   H11   S    
C1    O1    A    
C4    O9    A    
Cu1   N2    S    
C15   C17   A    
Cu2   N1    S    
Cu1   O8    S    
C8    C14   A    
O2    S1    D    
C12   C30   A    
C15   H20   S    
C1    C10   S    
C3    C5    A    
C22   H19   S    
C18   H22   S    
C6    C7    A    
C27   C36   A    
C25   C27   S    
C37   S1    S    
C1    O7    A    
C29   H7    S    
C25   O13   A    
C32   C33   A    
C20   N2    A    
C24   C31   S    
C11   C13   A    
Cu1   Cu2   S    
H15   O6    S    
C27   C37   A    
Cu2   O7    S    
C22   C24   A    
O6    S2    S    
C10   C11   A    
C17   H21   S    
C15   C21   A    
C20   C21   A    
C2    C23   A    
C5    H12   S    
C2    C28   A    
C4    O8    A    
C19   H2    S    
Cu1   O10   S    
