data_mof_unit_226.cif
_audit_creation_date              2012-12-10T16:57:46-0500
_audit_creation_method            fapswitch 2.2
_symmetry_space_group_name_H-M    P1
_symmetry_Int_Tables_number       1
_space_group_crystal_system       triclinic
_cell_length_a                    7.836085
_cell_length_b                    8.55671
_cell_length_c                    19.184277
_cell_angle_alpha                 92.212589
_cell_angle_beta                  85.57388
_cell_angle_gamma                 93.338608
_cell_volume                      1279.56193466

loop_
_atom_site_label
_atom_site_type_symbol
_atom_type_description
_atom_site_fract_x
_atom_site_fract_y
_atom_site_fract_z
_atom_type_partial_charge
C1    C     C_R   0.545231 0.794345 0.498239 0.964688
C2    C     C_R   0.454768 0.205654 0.501751 0.961560
C3    C     C_2   0.569137 0.957762 0.497241 -0.362811
C4    C     C_2   0.430860 0.042235 0.502729 -0.362924
C5    C     C_R   0.502014 0.501222 0.634225 0.882906
C6    C     C_R   0.498274 0.499433 0.365979 0.884078
C7    C     C_R   0.367708 0.555164 0.752701 -0.182118
C8    C     C_R   0.617425 0.421579 0.248573 -0.183539
C9    C     C_R   0.377381 0.567465 0.824378 -0.252789
C10   C     C_R   0.617928 0.425979 0.176645 -0.242749
C11   C     C_R   0.526622 0.528835 0.853933 -0.001733
C12   C     C_R   0.497812 0.511797 0.145991 -0.023338
C13   C     C_R   0.669487 0.479441 0.811635 0.506320
C14   C     C_R   0.370573 0.587979 0.188664 0.495866
C15   C     C_R   0.660287 0.472850 0.739016 -0.306166
C16   C     C_R   0.370506 0.581800 0.261009 -0.266416
C17   C     C_R   0.509036 0.507954 0.709738 -0.079335
C18   C     C_R   0.494536 0.500080 0.290802 -0.080985
C19   C     C_R   0.508355 0.519809 0.069945 0.282552
C20   C     C_R   0.526884 0.530461 0.929472 0.323483
H1    H     H_    0.250441 0.584314 0.730998 0.186734
H2    H     H_    0.713163 0.356898 0.271188 0.175764
H3    H     H_    0.266525 0.603760 0.856951 0.185393
H4    H     H_    0.715601 0.365137 0.145126 0.170174
H5    H     H_    0.771344 0.441655 0.705461 0.170882
H6    H     H_    0.276144 0.644258 0.293728 0.180021
H7    H     H_    0.700080 0.008009 0.492014 0.203236
H8    H     H_    0.299917 0.991988 0.507954 0.203595
N1    N     N_R   0.440970 0.638687 0.969270 -0.181802
N2    N     N_R   0.594982 0.412253 0.029904 -0.189295
N3    N     N_R   0.432881 0.633923 0.038460 -0.109193
N4    N     N_R   0.603821 0.417286 0.960783 -0.127362
N5    N     N_2   0.950330 0.457950 0.481240 0.024107
N6    N     N_2   0.049670 0.542050 0.518760 0.022389
O1    O     O_R   0.389250 0.738570 0.504600 -0.605973
O2    O     O_R   0.610750 0.261430 0.495400 -0.607560
O3    O     O_R   0.678400 0.711620 0.492580 -0.601565
O4    O     O_R   0.321600 0.288380 0.507420 -0.603920
O5    O     O_R   0.355380 0.513500 0.607880 -0.617272
O6    O     O_R   0.644620 0.486500 0.392120 -0.611324
O7    O     O_R   0.644530 0.486550 0.595850 -0.609093
O8    O     O_R   0.355470 0.513450 0.404150 -0.606419
Zn1   Zn    Zn3+2 0.306930 0.517990 0.508030 1.020855
Zn2   Zn    Zn3+2 0.693070 0.482010 0.491970 1.022110
O9    O     O_3   0.820225 0.454064 0.842375 -0.612184
C21   C     C_3   0.893741 0.314948 0.815532 0.084306
H9    H     H_    0.978138 0.340049 0.767533 0.153544
H10   H     H_    0.794894 0.220499 0.803564 0.141520
C22   C     C_3   0.003075 0.254338 0.869726 -0.764918
H11   H     H_    0.921757 0.225739 0.918054 0.263161
H12   H     H_    0.064698 0.146948 0.848707 0.210226
H13   H     H_    0.104422 0.344288 0.882888 0.253071
O10   O     O_3   0.254582 0.678840 0.160677 -0.600194
C23   C     C_3   0.105005 0.584919 0.148571 0.081566
H14   H     H_    0.035277 0.551359 0.199059 0.151642
H15   H     H_    0.135317 0.476919 0.116680 0.138727
C24   C     C_3   0.988447 0.678327 0.108199 -0.735576
H16   H     H_    0.945332 0.781265 0.140464 0.254040
H17   H     H_    0.874709 0.603857 0.094458 0.208602
H18   H     H_    0.058140 0.719333 0.059061 0.267663
I1    I     I_    0.037377 0.290877 0.407833 -0.268141
I2    I     I_    0.962946 0.710110 0.591744 -0.278085

loop_
_geom_bond_atom_site_label_1
_geom_bond_atom_site_label_2
_ccdc_geom_bond_type
C24   H17   S    
C8    H2    S    
C15   C17   A    
C14   C16   A    
O1    Zn1   S    
C2    O4    A    
C2    C4    S    
C13   C15   A    
C1    O3    A    
C22   H13   S    
C19   N3    A    
O3    Zn2   S    
C3    H7    S    
N5    N6    D    
O4    Zn1   S    
N1    N3    A    
N6    I2    S    
C21   H9    S    
O9    C21   S    
N2    N4    A    
C9    C11   A    
C21   C22   S    
C1    O1    A    
C24   H16   S    
C10   C12   A    
C7    H1    S    
C12   C19   S    
C8    C10   A    
C4    H8    S    
C12   C14   A    
C23   H15   S    
C20   N1    A    
C5    O5    A    
C16   H6    S    
C6    C18   S    
O7    Zn2   S    
C6    O6    A    
C11   C20   S    
O2    Zn2   S    
C11   C13   A    
C15   H5    S    
O8    Zn1   S    
N5    Zn2   S    
C3    C4    D    
C21   H10   S    
O6    Zn2   S    
C14   O10   S    
C5    C17   S    
C13   O9    S    
N5    I1    S    
C22   H11   S    
C20   N4    A    
C22   H12   S    
C2    O2    A    
C7    C9    A    
C5    O7    A    
C23   H14   S    
C9    H3    S    
C24   H18   S    
O5    Zn1   S    
C10   H4    S    
O10   C23   S    
C19   N2    A    
C6    O8    A    
C16   C18   A    
C8    C18   A    
N6    Zn1   S    
C1    C3    S    
C23   C24   S    
C7    C17   A    
