data_mof_unit_2654.cif
_audit_creation_date              2012-10-26T20:21:42-0400
_audit_creation_method            fapswitch 2.2
_symmetry_space_group_name_H-M    P1
_symmetry_Int_Tables_number       1
_space_group_crystal_system       triclinic
_cell_length_a                    15.666374
_cell_length_b                    14.965517
_cell_length_c                    9.623533
_cell_angle_alpha                 89.994925
_cell_angle_beta                  90.235936
_cell_angle_gamma                 89.999074
_cell_volume                      2256.27000947

loop_
_atom_site_label
_atom_site_type_symbol
_atom_type_description
_atom_site_fract_x
_atom_site_fract_y
_atom_site_fract_z
_atom_type_partial_charge
C1    C     C_R   0.123572 0.386690 0.500178 0.531398
C2    C     C_R   0.983911 0.576770 0.926534 0.370952
C3    C     C_R   0.983957 0.576770 0.073245 0.367612
C4    C     C_R   0.015649 0.423090 0.926766 0.391816
C5    C     C_R   0.483961 0.923231 0.073261 0.367596
C6    C     C_R   0.515654 0.076907 0.926746 0.391950
C7    C     C_R   0.515572 0.076920 0.073465 0.393469
C8    C     C_R   0.483914 0.923229 0.926550 0.370972
C9    C     C_R   0.776298 0.285791 0.372613 0.248171
C10   C     C_R   0.171952 0.766169 0.568980 0.260652
C11   C     C_R   0.265174 0.666917 0.433934 0.183495
C12   C     C_R   0.881151 0.618448 0.499740 0.589951
C13   C     C_R   0.775535 0.287285 0.626919 0.247600
C14   C     C_R   0.227116 0.289894 0.627269 0.256337
C15   C     C_R   0.828271 0.766383 0.432013 0.273890
C16   C     C_R   0.734826 0.666892 0.566270 0.190540
C17   C     C_R   0.228041 0.291660 0.373213 0.256521
C18   C     C_R   0.328208 0.733681 0.431782 0.273769
C19   C     C_R   0.727282 0.209903 0.627237 0.256429
C20   C     C_R   0.727908 0.208502 0.373162 0.256512
C21   C     C_R   0.234903 0.833026 0.566529 0.190603
C22   C     C_R   0.671857 0.733735 0.568657 0.260695
C23   C     C_R   0.877144 0.385635 0.499829 0.528191
C24   C     C_R   0.276449 0.214382 0.372576 0.248179
C25   C     C_R   0.275361 0.212505 0.626857 0.247533
C26   C     C_R   0.765239 0.833154 0.434172 0.183563
C27   C     C_R   0.186892 0.684450 0.501463 -0.009290
C28   C     C_R   0.805859 0.322254 0.499657 -0.109283
C29   C     C_R   0.813122 0.684446 0.498751 -0.001177
C30   C     C_R   0.196576 0.325471 0.500355 -0.117069
C31   C     C_R   0.696584 0.174516 0.500301 -0.117083
C32   C     C_R   0.313131 0.815544 0.498766 -0.001213
C33   C     C_R   0.305846 0.177729 0.499594 -0.109280
C34   C     C_R   0.118827 0.618479 0.500289 0.582076
C35   C     C_R   0.686890 0.815551 0.501468 -0.009269
C36   C     C_R   0.618828 0.881525 0.500290 0.582069
C37   C     C_R   0.377138 0.114357 0.499813 0.528208
C38   C     C_R   0.381153 0.881551 0.499746 0.589966
C39   C     C_R   0.623572 0.113310 0.500164 0.531374
C40   C     C_R   0.015578 0.423082 0.073485 0.393599
Cu1   Cu    Cu3+1 0.000000 0.500000 0.640660 1.022074
Cu2   Cu    Cu3+1 0.000000 0.500000 0.359340 1.021107
Cu3   Cu    Cu3+1 0.500000 0.000000 0.640660 1.022156
Cu4   Cu    Cu3+1 0.500000 0.000000 0.359340 1.021033
H1    H     H_    0.996361 0.340550 0.222933 0.378252
H2    H     H_    0.091857 0.838430 0.677918 0.397410
H3    H     H_    0.244592 0.538812 0.409024 0.320085
H4    H     H_    0.782473 0.390985 0.743755 0.345541
H5    H     H_    0.218359 0.393482 0.744199 0.337790
H6    H     H_    0.909118 0.839421 0.325765 0.398091
H7    H     H_    0.755623 0.538794 0.591753 0.321888
H8    H     H_    0.219399 0.396780 0.259318 0.342822
H9    H     H_    0.408861 0.660834 0.324884 0.398147
H10   H     H_    0.718564 0.106123 0.743817 0.337680
H11   H     H_    0.719239 0.103534 0.258969 0.342907
H12   H     H_    0.002751 0.659342 0.777559 0.389582
H13   H     H_    0.255603 0.961145 0.591926 0.321818
H14   H     H_    0.591410 0.661116 0.676378 0.397409
H15   H     H_    0.283858 0.112428 0.252401 0.340891
H16   H     H_    0.282249 0.108612 0.743318 0.345465
H17   H     H_    0.744609 0.961279 0.409274 0.320125
H18   H     H_    0.003304 0.659560 0.222040 0.383915
H19   H     H_    0.997159 0.340601 0.776704 0.378613
H20   H     H_    0.503322 0.840435 0.222063 0.383951
H21   H     H_    0.497157 0.159413 0.776687 0.378489
H22   H     H_    0.496362 0.159440 0.222913 0.378362
H23   H     H_    0.502765 0.840654 0.777596 0.389513
H24   H     H_    0.783622 0.387966 0.252819 0.340794
N1    N     N_R   0.000000 0.500000 0.852070 -0.333638
N2    N     N_R   0.000000 0.500000 0.147930 -0.333759
N3    N     N_R   0.500000 0.000000 0.852070 -0.333570
N4    N     N_R   0.500000 0.000000 0.147930 -0.333824
O1    O     O_R   0.090170 0.409820 0.618740 -0.489053
O2    O     O_R   0.409830 0.090180 0.381260 -0.515379
O3    O     O_R   0.409830 0.090180 0.618740 -0.516900
O4    O     O_R   0.590170 0.909820 0.381260 -0.524319
O5    O     O_R   0.409830 0.909820 0.381260 -0.471118
O6    O     O_R   0.590170 0.090180 0.618740 -0.488935
O7    O     O_R   0.590170 0.090180 0.381260 -0.489459
O8    O     O_R   0.409830 0.909820 0.618740 -0.488245
O9    O     O_3   0.030048 0.342255 0.137253 -0.554495
O10   O     O_3   0.968536 0.657339 0.862654 -0.595680
O11   O     O_3   0.968647 0.657317 0.136930 -0.586170
O12   O     O_R   0.909830 0.590180 0.381260 -0.471222
O13   O     O_3   0.030374 0.342288 0.863288 -0.554717
O14   O     O_3   0.468657 0.842681 0.136962 -0.586156
O15   O     O_3   0.530402 0.157705 0.863242 -0.554810
O16   O     O_3   0.530025 0.157750 0.137207 -0.554417
O17   O     O_3   0.468545 0.842661 0.862688 -0.595649
O18   O     O_3   0.794714 0.322912 0.245136 -0.570343
O19   O     O_3   0.093452 0.779510 0.631396 -0.654467
O20   O     O_3   0.282934 0.585512 0.372104 -0.684549
O21   O     O_3   0.793065 0.325972 0.753846 -0.569169
O22   O     O_3   0.210080 0.328122 0.754464 -0.533728
O23   O     O_R   0.909830 0.590180 0.618740 -0.488260
O24   O     O_3   0.907088 0.780053 0.370840 -0.632272
O25   O     O_3   0.717017 0.585462 0.628053 -0.678686
O26   O     O_3   0.211763 0.331515 0.246707 -0.533323
O27   O     O_3   0.406963 0.720068 0.370376 -0.632221
O28   O     O_3   0.710402 0.171481 0.754363 -0.533878
O29   O     O_3   0.711508 0.168807 0.246584 -0.533161
O30   O     O_3   0.217126 0.914420 0.628422 -0.678606
O31   O     O_3   0.593260 0.720305 0.630722 -0.654461
O32   O     O_3   0.295065 0.177476 0.245043 -0.570362
O33   O     O_3   0.292724 0.173624 0.753709 -0.569185
O34   O     O_R   0.090170 0.409820 0.381260 -0.489355
O35   O     O_3   0.783058 0.914616 0.372533 -0.684571
O36   O     O_R   0.909830 0.409820 0.381260 -0.515336
O37   O     O_R   0.090170 0.590180 0.618740 -0.504573
O38   O     O_R   0.090170 0.590180 0.381260 -0.524284
O39   O     O_R   0.909830 0.409820 0.618740 -0.516963
O40   O     O_R   0.590170 0.909820 0.618740 -0.504666

loop_
_geom_bond_atom_site_label_1
_geom_bond_atom_site_label_2
_ccdc_geom_bond_type
C10   C27   A    
H7    O25   S    
C37   O2    A    
C11   C18   A    
C12   C29   S    
Cu1   Cu2   S    
C35   C36   S    
H23   O17   S    
H18   O11   S    
C19   C31   A    
C25   O33   S    
H9    O27   S    
Cu3   O6    S    
C22   C35   A    
C40   N2    A    
H15   O32   S    
Cu4   O5    S    
C5    N4    A    
H22   O16   S    
C16   O25   S    
Cu2   N2    S    
C12   O12   A    
H3    O20   S    
Cu4   O4    S    
C36   O4    A    
C11   O20   S    
C4    C40   A    
C36   O40   A    
H24   O18   S    
C12   O23   A    
H21   O15   S    
C32   C38   S    
H5    O22   S    
C2    N1    A    
C17   O26   S    
C1    O34   A    
C37   O3    A    
C10   C21   A    
Cu1   O37   S    
H19   O13   S    
C17   C30   A    
H10   O28   S    
C14   C30   A    
H20   O14   S    
C4    N1    A    
C15   C29   A    
C27   C34   S    
Cu3   O3    S    
C6    N3    A    
C21   C32   A    
C17   C24   A    
H4    O21   S    
C13   C19   A    
C39   O6    A    
C3    N2    A    
Cu2   O12   S    
H14   O31   S    
C15   O24   S    
C15   C26   A    
H2    O19   S    
Cu3   O8    S    
C18   O27   S    
C33   C37   S    
C22   O31   S    
C13   O21   S    
C24   O32   S    
C39   O7    A    
C26   O35   S    
Cu3   Cu4   S    
H13   O30   S    
C9    C20   A    
C7    O16   S    
C11   C27   A    
C13   C28   A    
C23   C28   S    
Cu4   O2    S    
Cu2   O34   S    
C5    O14   S    
C10   O19   S    
C3    O11   S    
C34   O38   A    
C2    O10   S    
C18   C32   A    
Cu3   O40   S    
C21   O30   S    
C7    N4    A    
Cu1   N1    S    
C8    N3    A    
C16   C22   A    
C40   O9    S    
Cu4   O7    S    
H1    O9    S    
C9    O18   S    
C5    C8    A    
C19   O28   S    
H12   O10   S    
C6    C7    A    
C20   O29   S    
C38   O5    A    
C23   O39   A    
H11   O29   S    
C24   C33   A    
C1    O1    A    
C2    C3    A    
C16   C29   A    
H6    O24   S    
Cu1   O23   S    
C38   O8    A    
C23   O36   A    
H8    O26   S    
C1    C30   S    
C31   C39   S    
Cu4   N4    S    
C14   C25   A    
Cu2   O38   S    
H17   O35   S    
Cu3   N3    S    
C6    O15   S    
Cu1   O1    S    
C26   C35   A    
Cu1   O39   S    
C4    O13   S    
C34   O37   A    
C8    O17   S    
Cu2   O36   S    
C14   O22   S    
H16   O33   S    
C9    C28   A    
C25   C33   A    
C20   C31   A    
