data_mof_unit_2153.cif
_audit_creation_date              2012-10-26T21:11:05-0400
_audit_creation_method            fapswitch 2.2
_symmetry_space_group_name_H-M    P1
_symmetry_Int_Tables_number       1
_space_group_crystal_system       triclinic
_cell_length_a                    10.930934
_cell_length_b                    10.923067
_cell_length_c                    13.10518
_cell_angle_alpha                 91.099698
_cell_angle_beta                  90.798781
_cell_angle_gamma                 90.609005
_cell_volume                      1564.21647658

loop_
_atom_site_label
_atom_site_type_symbol
_atom_type_description
_atom_site_fract_x
_atom_site_fract_y
_atom_site_fract_z
_atom_type_partial_charge
C1    C     C_R   0.495458 0.259418 0.498791 0.553993
C2    C     C_R   0.654456 0.833809 0.717584 -0.064060
C3    C     C_R   0.458317 0.111468 0.304399 0.052837
C4    C     C_R   0.541683 0.888532 0.695600 0.052837
C5    C     C_R   0.545966 0.100704 0.227449 -0.096465
C6    C     C_R   0.454035 0.899297 0.772552 -0.096465
C7    C     C_R   0.521314 0.144778 0.129935 -0.119592
C8    C     C_R   0.478687 0.855224 0.870065 -0.119592
C9    C     C_R   0.408782 0.198710 0.108450 -0.103419
C10   C     C_R   0.591219 0.801290 0.891549 -0.103419
C11   C     C_R   0.487643 0.931203 0.409742 -0.160862
C12   C     C_R   0.504542 0.740581 0.501209 0.553992
C13   C     C_R   0.512357 0.068797 0.590258 -0.160862
C14   C     C_R   0.505039 0.873066 0.502934 -0.008913
C15   C     C_R   0.494960 0.126934 0.497066 -0.008913
C16   C     C_R   0.259539 0.505071 0.499045 0.553476
C17   C     C_R   0.740461 0.494929 0.500954 0.553476
C18   C     C_R   0.518419 0.942462 0.594508 -0.035633
C19   C     C_R   0.481580 0.057538 0.405492 -0.035633
C20   C     C_1   0.500041 0.500036 0.173535 0.122120
C21   C     C_1   0.499959 0.499964 0.826465 0.122120
C22   C     C_1   0.499956 0.500001 0.050691 -0.089782
C23   C     C_R   0.872945 0.494056 0.502730 -0.008513
C24   C     C_1   0.500044 0.499999 0.949309 -0.089782
C25   C     C_R   0.226672 0.684805 0.196132 -0.145927
C26   C     C_R   0.773328 0.315194 0.803867 -0.145927
C27   C     C_R   0.181706 0.657216 0.292309 -0.070759
C28   C     C_R   0.818293 0.342783 0.707691 -0.070759
C29   C     C_R   0.113108 0.549650 0.306019 0.024921
C30   C     C_R   0.886892 0.450348 0.693981 0.024921
C31   C     C_R   0.088238 0.471561 0.221681 -0.098265
C32   C     C_R   0.911762 0.528437 0.778319 -0.098266
C33   C     C_R   0.132134 0.498662 0.124279 0.177337
C34   C     C_R   0.127055 0.505944 0.497270 -0.008513
C35   C     C_R   0.867866 0.501336 0.875721 0.177337
C36   C     C_R   0.201710 0.606841 0.112375 -0.066191
C37   C     C_R   0.798289 0.393157 0.887624 -0.066191
C38   C     C_R   0.931952 0.515579 0.410646 -0.156715
C39   C     C_R   0.068048 0.484420 0.589354 -0.156714
C40   C     C_3   0.171486 0.419403 0.948529 -0.291410
C41   C     C_3   0.828514 0.580595 0.051471 -0.291409
C42   C     C_R   0.941532 0.477238 0.593588 -0.032386
C43   C     C_R   0.058467 0.522761 0.406411 -0.032386
C44   C     C_R   0.321176 0.209777 0.184686 -0.105560
C45   C     C_R   0.678824 0.790222 0.815313 -0.105560
C46   C     C_R   0.345543 0.166189 0.282415 -0.064061
Cu1   Cu    Cu3+1 0.499990 0.499990 0.592680 0.978603
Cu2   Cu    Cu3+1 0.500010 0.500010 0.407320 0.978603
H1    H     H_    0.236387 0.632543 0.038926 0.106938
H2    H     H_    0.720061 0.232262 0.813817 0.103165
H3    H     H_    0.199814 0.719814 0.355982 0.109651
H4    H     H_    0.800185 0.280185 0.644017 0.109651
H5    H     H_    0.032964 0.389837 0.231741 0.085417
H6    H     H_    0.967037 0.610161 0.768260 0.085417
H7    H     H_    0.878999 0.529954 0.341324 0.129918
H8    H     H_    0.121001 0.470045 0.658676 0.129918
H9    H     H_    0.389525 0.231489 0.032630 0.106717
H10   H     H_    0.610477 0.768511 0.967370 0.106717
H11   H     H_    0.233944 0.250920 0.167839 0.109644
H12   H     H_    0.763613 0.367455 0.961073 0.106938
H13   H     H_    0.766056 0.749078 0.832159 0.109643
H14   H     H_    0.276385 0.173798 0.340532 0.098221
H15   H     H_    0.723613 0.826199 0.659467 0.098221
H16   H     H_    0.062783 0.335149 0.058316 0.232235
H17   H     H_    0.134886 0.349166 0.893456 0.136916
H18   H     H_    0.267604 0.397033 0.967414 0.139210
H19   H     H_    0.166298 0.509275 0.910741 0.155522
H20   H     H_    0.937218 0.664849 0.941685 0.232234
H21   H     H_    0.865115 0.650831 0.106544 0.136916
H22   H     H_    0.833701 0.490723 0.089258 0.155522
H23   H     H_    0.632869 0.057569 0.242931 0.099690
H24   H     H_    0.732396 0.602966 0.032586 0.139210
H25   H     H_    0.367132 0.942433 0.757070 0.099690
H26   H     H_    0.589007 0.136214 0.070787 0.102192
H27   H     H_    0.410995 0.863789 0.929214 0.102192
H28   H     H_    0.475986 0.877853 0.339495 0.130410
H29   H     H_    0.524013 0.122146 0.660505 0.130410
H30   H     H_    0.279938 0.767737 0.186182 0.103165
N1    N     N_1   0.500030 0.500030 0.268070 -0.170992
N2    N     N_1   0.499970 0.499970 0.731930 -0.170992
N3    N     N_2   0.098730 0.419473 0.039932 -0.498675
N4    N     N_2   0.901270 0.580524 0.960068 -0.498674
O1    O     O_R   0.499980 0.319630 0.578260 -0.509521
O2    O     O_R   0.500020 0.680370 0.421740 -0.509521
O3    O     O_R   0.500000 0.319650 0.421740 -0.482338
O4    O     O_R   0.500000 0.680350 0.578260 -0.482339
O5    O     O_R   0.319630 0.500000 0.578260 -0.506979
O6    O     O_R   0.680370 0.500000 0.421740 -0.506978
O7    O     O_R   0.319650 0.500020 0.421740 -0.486176
O8    O     O_R   0.680350 0.499980 0.578260 -0.486176

loop_
_geom_bond_atom_site_label_1
_geom_bond_atom_site_label_2
_ccdc_geom_bond_type
C27   C29   A    
C17   O6    A    
C14   C18   A    
C15   C19   A    
C11   C19   A    
C17   C23   S    
C23   C42   A    
C13   C18   A    
C46   H14   S    
Cu2   N1    S    
C35   C37   A    
C11   H28   S    
C26   H2    S    
C11   C14   A    
C44   H11   S    
C33   C36   A    
C12   O2    A    
C16   C34   S    
C38   H7    S    
C39   H8    S    
C27   H3    S    
C40   H19   S    
C16   O5    A    
Cu2   O6    S    
C3    C19   S    
C1    C15   S    
Cu1   O1    S    
C39   C42   A    
C4    C18   S    
C16   O7    A    
C40   H18   S    
C29   C43   S    
Cu1   N2    S    
C32   H6    S    
C35   N4    S    
C44   C46   A    
C7    H26   S    
C2    C45   A    
C1    O3    A    
C13   H29   S    
C34   C43   A    
C34   C39   A    
Cu1   O4    S    
C4    C6    A    
C5    C7    A    
C6    C8    A    
C25   H30   S    
C8    H27   S    
Cu2   O2    S    
Cu1   O5    S    
C2    C4    A    
C32   C35   A    
Cu1   Cu2   S    
C10   C45   A    
C31   C33   A    
C31   H5    S    
C41   H24   S    
C8    C10   A    
C20   C22   S    
Cu2   O7    S    
C13   C15   A    
Cu1   O8    S    
C22   C24   T    
C25   C27   A    
C2    H15   S    
C6    H25   S    
C41   H21   S    
C7    C9    A    
C9    C44   A    
C20   N1    T    
C10   H10   S    
C40   N3    S    
C17   O8    A    
C12   C14   S    
C3    C5    A    
C26   C37   A    
C1    O1    A    
C23   C38   A    
C3    C46   A    
C26   C28   A    
C12   O4    A    
C40   H17   S    
H20   N4    S    
C28   C30   A    
C38   C43   A    
C29   C31   A    
C30   C32   A    
C28   H4    S    
C41   N4    S    
C21   N2    T    
C45   H13   S    
C9    H9    S    
H16   N3    S    
C37   H12   S    
C25   C36   A    
C5    H23   S    
C21   C24   S    
Cu2   O3    S    
C30   C42   S    
C33   N3    S    
C36   H1    S    
C41   H22   S    
