data_mof_unit_144.cif
_audit_creation_date              2012-12-11T17:44:04-0500
_audit_creation_method            fapswitch 2.2
_symmetry_space_group_name_H-M    P1
_symmetry_Int_Tables_number       1
_space_group_crystal_system       triclinic
_cell_length_a                    20.279682
_cell_length_b                    22.751809
_cell_length_c                    6.957821
_cell_angle_alpha                 89.999984
_cell_angle_beta                  86.478992
_cell_angle_gamma                 90.0
_cell_volume                      3204.27479566

loop_
_atom_site_label
_atom_site_type_symbol
_atom_type_description
_atom_site_fract_x
_atom_site_fract_y
_atom_site_fract_z
_atom_type_partial_charge
O1    O     O_R   0.751270 0.447300 0.600030 -0.515625
O2    O     O_R   0.248730 0.947300 0.399970 -0.515625
O3    O     O_R   0.613530 0.440160 0.952150 -0.555172
O4    O     O_R   0.386470 0.940160 0.047850 -0.555173
O5    O     O_R   0.613050 0.552700 0.122560 -0.544484
O6    O     O_R   0.386950 0.052700 0.877440 -0.544484
C1    C     C_R   0.591215 0.425620 0.787534 0.730830
C2    C     C_R   0.408785 0.925620 0.212466 0.730830
O7    O     O_R   0.750780 0.440350 0.929820 -0.511187
O8    O     O_R   0.249220 0.940350 0.070180 -0.511187
O9    O     O_R   0.751280 0.552900 0.100070 -0.515328
O10   O     O_R   0.248720 0.052900 0.899930 -0.515328
C3    C     C_R   0.774525 0.426536 0.756338 0.812142
C4    C     C_R   0.225475 0.926536 0.243662 0.812141
O11   O     O_R   0.613040 0.447100 0.622520 -0.539483
O12   O     O_R   0.386960 0.947100 0.377480 -0.539482
O13   O     O_3   0.682160 0.536920 0.777780 -0.371429
O14   O     O_3   0.317840 0.036920 0.222220 -0.371428
V1    V     V_3+5 0.682160 0.493150 0.052630 1.471201
V2    V     V_3+5 0.317840 0.993150 0.947370 1.471202
O15   O     O_R   0.750790 0.559840 0.429870 -0.529906
O16   O     O_R   0.249210 0.059840 0.570130 -0.529907
C5    C     C_R   0.773441 0.574465 0.257310 0.752770
C6    C     C_R   0.226559 0.074465 0.742690 0.752770
O17   O     O_R   0.613540 0.559650 0.452200 -0.547770
O18   O     O_R   0.386460 0.059650 0.547800 -0.547770
C7    C     C_R   0.591728 0.574510 0.287587 0.673207
C8    C     C_R   0.408272 0.074510 0.712413 0.673207
V3    V     V_3+5 0.682160 0.506850 0.552630 1.475030
V4    V     V_3+5 0.317840 0.006850 0.447370 1.475031
O19   O     O_3   0.682150 0.463080 0.277610 -0.361601
O20   O     O_3   0.317850 0.963080 0.722390 -0.361601
C9    C     C_R   0.577324 0.856401 0.112158 -0.184045
C10   C     C_R   0.422676 0.356401 0.887840 -0.184045
H1    H     H_    0.665208 0.771042 0.078688 0.118347
H2    H     H_    0.334791 0.271042 0.921307 0.118347
H3    H     H_    0.626331 0.869805 0.057964 0.141967
H4    H     H_    0.373668 0.369805 0.942033 0.141967
C11   C     C_R   0.464120 0.882687 0.207602 -0.166072
C12   C     C_R   0.535880 0.382688 0.792397 -0.166073
C13   C     C_R   0.472339 0.596320 0.356337 0.143796
C14   C     C_R   0.527661 0.096320 0.643665 0.143796
C15   C     C_R   0.417811 0.634026 0.352090 0.236630
C16   C     C_R   0.582189 0.134026 0.647913 0.236629
C17   C     C_R   0.426549 0.692790 0.299700 -0.200738
C18   C     C_R   0.573450 0.192791 0.700302 -0.200737
C19   C     C_R   0.489976 0.716924 0.258993 0.030776
C20   C     C_R   0.510023 0.216925 0.741007 0.030777
C21   C     C_R   0.544382 0.676803 0.240128 0.035581
C22   C     C_R   0.455618 0.176804 0.759870 0.035581
C23   C     C_R   0.500970 0.778985 0.228011 -0.003865
C24   C     C_R   0.499030 0.278985 0.771989 -0.003864
C25   C     C_R   0.564689 0.797321 0.156438 0.041934
C26   C     C_R   0.435311 0.297321 0.843560 0.041933
C27   C     C_R   0.616257 0.756780 0.130050 -0.183964
C28   C     C_R   0.383743 0.256780 0.869946 -0.183962
C29   C     C_R   0.606463 0.697726 0.171463 -0.171930
C30   C     C_R   0.393536 0.197726 0.828532 -0.171929
C31   C     C_R   0.452461 0.824125 0.270147 0.278289
C32   C     C_R   0.547539 0.324125 0.729854 0.278289
C33   C     C_R   0.527708 0.898829 0.131168 0.151601
C34   C     C_R   0.472292 0.398830 0.868832 0.151601
C35   C     C_R   0.535630 0.616556 0.291576 -0.166155
C36   C     C_R   0.464369 0.116556 0.708424 -0.166154
H5    H     H_    0.382224 0.718054 0.286923 0.201653
H6    H     H_    0.617775 0.218054 0.713081 0.201653
H7    H     H_    0.648207 0.668465 0.147726 0.092996
H8    H     H_    0.351792 0.168465 0.852267 0.092994
C37   C     C_R   0.168971 0.883691 0.266514 -0.191748
C38   C     C_R   0.831028 0.383691 0.733486 -0.191749
C39   C     C_R   0.156191 0.843562 0.117876 0.106408
C40   C     C_R   0.843808 0.343562 0.882123 0.106409
C41   C     C_R   0.102529 0.804703 0.138497 -0.221986
C42   C     C_R   0.897471 0.304703 0.861503 -0.221985
C43   C     C_R   0.062430 0.801958 0.310527 0.303428
C44   C     C_R   0.937569 0.301958 0.689474 0.303427
C45   C     C_R   0.077608 0.838596 0.464353 0.055667
C46   C     C_R   0.922392 0.338596 0.535647 0.055667
C47   C     C_R   0.127373 0.882209 0.439233 0.344717
C48   C     C_R   0.872627 0.382209 0.560767 0.344717
C49   C     C_R   0.892931 0.697745 0.374760 -0.218756
C50   C     C_R   0.107068 0.197745 0.625240 -0.218755
C51   C     C_R   0.837728 0.660285 0.386955 0.298146
C52   C     C_R   0.162272 0.160285 0.613045 0.298147
C53   C     C_R   0.938169 0.696531 0.212750 0.339287
C54   C     C_R   0.061830 0.196531 0.787250 0.339286
N1    N     N_2   0.007079 0.762968 0.336104 -0.285432
N2    N     N_2   0.992920 0.262968 0.663896 -0.285432
N3    N     N_2   0.994163 0.734532 0.189491 -0.277999
N4    N     N_2   0.005837 0.234532 0.810509 -0.277998
C55   C     C_R   0.828438 0.618345 0.239521 -0.157321
C56   C     C_R   0.171562 0.118345 0.760479 -0.157321
H9    H     H_    0.899138 0.728622 0.490708 0.161601
H10   H     H_    0.100861 0.228622 0.509292 0.161601
C57   C     C_R   0.873868 0.617909 0.076972 0.127429
C58   C     C_R   0.126132 0.117909 0.923029 0.127429
C59   C     C_R   0.927200 0.657263 0.064254 -0.255396
C60   C     C_R   0.072800 0.157263 0.935746 -0.255396
H11   H     H_    0.093868 0.775283 0.020433 0.164810
H12   H     H_    0.906131 0.275283 0.979567 0.164810
H13   H     H_    0.961523 0.656150 0.938576 0.142503
H14   H     H_    0.038477 0.156150 0.061425 0.142503
N5    N     N_3   0.545012 0.958348 0.079667 -0.654322
H15   H     H_    0.505387 0.987286 0.101914 0.214836
H16   H     H_    0.558688 0.958832 0.932569 0.229396
N6    N     N_3   0.454988 0.458348 0.920333 -0.654321
H17   H     H_    0.494613 0.487286 0.898086 0.214835
H18   H     H_    0.441312 0.458832 0.067431 0.229396
N7    N     N_3   0.044086 0.830389 0.650030 -0.667704
H19   H     H_    0.993390 0.835905 0.636479 0.238049
H20   H     H_    0.051971 0.787134 0.693826 0.241441
N8    N     N_3   0.955913 0.330389 0.349970 -0.667704
H21   H     H_    0.006610 0.335905 0.363521 0.238049
H22   H     H_    0.948029 0.287133 0.306175 0.241441
O21   O     O_3   0.139854 0.920318 0.588929 -0.555512
C61   C     C_3   0.086370 0.959467 0.629569 0.120759
H23   H     H_    0.094990 0.981548 0.768211 0.141207
H24   H     H_    0.037980 0.937002 0.651005 0.145207
C62   C     C_3   0.082646 0.006592 0.473971 -0.380298
H25   H     H_    0.130129 0.030794 0.460611 0.220241
H26   H     H_    0.074194 0.985237 0.334223 0.182023
C63   C     C_3   0.026277 0.049623 0.521874 -0.818161
H27   H     H_    0.978038 0.026488 0.522586 0.234004
H28   H     H_    0.026909 0.085062 0.412118 0.234213
H29   H     H_    0.031509 0.069828 0.665125 0.240418
O22   O     O_3   0.860146 0.420318 0.411071 -0.555512
C64   C     C_3   0.913630 0.459467 0.370431 0.120758
H30   H     H_    0.905009 0.481548 0.231789 0.141208
H31   H     H_    0.962019 0.437002 0.348995 0.145207
C65   C     C_3   0.917353 0.506591 0.526029 -0.380298
H32   H     H_    0.869871 0.530794 0.539389 0.220241
H33   H     H_    0.925805 0.485237 0.665777 0.182023
C66   C     C_3   0.973723 0.549623 0.478127 -0.818161
H34   H     H_    0.021962 0.526488 0.477414 0.234004
H35   H     H_    0.973091 0.585062 0.587882 0.234213
H36   H     H_    0.968491 0.569828 0.334875 0.240418
N9    N     N_3   0.867893 0.575850 0.926713 -0.646797
H37   H     H_    0.911258 0.550973 0.917721 0.211628
H38   H     H_    0.864723 0.598967 0.797871 0.264966
N10   N     N_3   0.132107 0.075850 0.073287 -0.646797
H39   H     H_    0.088742 0.050973 0.082279 0.211627
H40   H     H_    0.135276 0.098967 0.202129 0.264967
N11   N     N_3   0.199134 0.840094 0.947313 -0.621771
H41   H     H_    0.170628 0.846261 0.829287 0.282742
H42   H     H_    0.217467 0.797242 0.937874 0.220233
N12   N     N_3   0.800865 0.340093 0.052686 -0.621772
H43   H     H_    0.829371 0.346261 0.170712 0.282741
H44   H     H_    0.782533 0.297241 0.062124 0.220233
O23   O     O_3   0.394035 0.812685 0.376092 -0.586343
C67   C     C_3   0.406810 0.811328 0.573574 0.082189
H45   H     H_    0.413083 0.856934 0.627478 0.142725
H46   H     H_    0.452104 0.785466 0.600837 0.119385
C68   C     C_3   0.348378 0.782545 0.685897 -0.306897
H47   H     H_    0.303001 0.808759 0.667108 0.213510
H48   H     H_    0.340631 0.737638 0.628770 0.209142
C69   C     C_3   0.360589 0.777989 0.899388 -0.790304
H49   H     H_    0.408242 0.755439 0.919254 0.227679
H50   H     H_    0.320648 0.752014 0.975119 0.230007
H51   H     H_    0.361446 0.822517 0.964102 0.249824
O24   O     O_3   0.605965 0.312685 0.623910 -0.586344
C70   C     C_3   0.593191 0.311328 0.426427 0.082188
H52   H     H_    0.586920 0.356935 0.372523 0.142727
H53   H     H_    0.547896 0.285469 0.399162 0.119385
C71   C     C_3   0.651622 0.282544 0.314106 -0.306895
H54   H     H_    0.696999 0.308757 0.332891 0.213508
H55   H     H_    0.659368 0.237637 0.371237 0.209144
C72   C     C_3   0.639410 0.277986 0.100615 -0.790314
H56   H     H_    0.591757 0.255436 0.080753 0.227681
H57   H     H_    0.679351 0.252010 0.024886 0.230008
H58   H     H_    0.638553 0.322513 0.035897 0.249825
N13   N     N_3   0.462305 0.537304 0.425046 -0.665396
H59   H     H_    0.488405 0.532015 0.548806 0.244257
H60   H     H_    0.481897 0.508134 0.320785 0.211824
N14   N     N_3   0.537695 0.037304 0.574957 -0.665397
H61   H     H_    0.511595 0.032015 0.451196 0.244257
H62   H     H_    0.518103 0.008134 0.679218 0.211824
N15   N     N_3   0.352337 0.613257 0.402252 -0.667209
H63   H     H_    0.342451 0.578235 0.311054 0.254358
H64   H     H_    0.350982 0.597356 0.543437 0.255994
N16   N     N_3   0.647663 0.113257 0.597755 -0.667210
H65   H     H_    0.657548 0.078235 0.688955 0.254358
H66   H     H_    0.649019 0.097356 0.456571 0.255994
O25   O     O_3   0.793611 0.665691 0.545720 -0.565113
C73   C     C_3   0.738151 0.698401 0.493301 0.104724
H67   H     H_    0.701482 0.667945 0.435941 0.116590
H68   H     H_    0.751149 0.732937 0.382995 0.098541
C74   C     C_3   0.706219 0.728830 0.671180 -0.290863
H69   H     H_    0.691346 0.695326 0.781752 0.201724
H70   H     H_    0.742670 0.758972 0.732191 0.188877
C75   C     C_3   0.645498 0.764096 0.620797 -0.823274
H71   H     H_    0.658629 0.795905 0.503585 0.237248
H72   H     H_    0.625832 0.789346 0.747718 0.232865
H73   H     H_    0.606155 0.734123 0.575419 0.241785
O26   O     O_3   0.206388 0.165690 0.454280 -0.565113
C76   C     C_3   0.261849 0.198401 0.506696 0.104719
H74   H     H_    0.298519 0.167944 0.564045 0.116596
H75   H     H_    0.248852 0.232935 0.617010 0.098540
C77   C     C_3   0.293778 0.228833 0.328819 -0.290867
H76   H     H_    0.308650 0.195331 0.218240 0.201724
H77   H     H_    0.257325 0.258976 0.267819 0.188879
C78   C     C_3   0.354499 0.264099 0.379200 -0.823273
H78   H     H_    0.341369 0.295906 0.496416 0.237248
H79   H     H_    0.374163 0.289351 0.252280 0.232864
H80   H     H_    0.393843 0.234125 0.424570 0.241785

loop_
_geom_bond_atom_site_label_1
_geom_bond_atom_site_label_2
_ccdc_geom_bond_type
V4    O20   S    
N13   H59   S    
C75   H71   S    
C21   C35   A    
C47   O21   S    
O13   V3    S    
C78   H78   S    
C10   C34   A    
O4    C2    A    
V1    O19   S    
C16   N16   S    
N8    H22   S    
C70   H52   S    
C78   H79   S    
C31   O23   S    
C12   C34   A    
C71   H55   S    
C19   C21   A    
C61   H23   S    
N13   H60   S    
O9    V1    S    
O22   C64   S    
C42   C44   A    
C12   C32   A    
C22   C36   A    
O16   C6    A    
C69   H49   S    
C33   N5    S    
C44   C46   A    
C49   H9    S    
C18   H6    S    
O3    C1    A    
N7    H20   S    
C43   N1    S    
C46   C48   A    
C3    C38   S    
O12   V4    S    
N11   H41   S    
C56   C58   A    
C21   C29   A    
C73   H67   S    
C41   H11   S    
C17   C19   A    
C37   C39   A    
O7    C3    A    
N14   H61   S    
C74   C75   S    
C24   C32   A    
C75   H73   S    
C70   H53   S    
O5    C7    A    
C69   H50   S    
O7    V1    S    
C15   N15   S    
C52   O26   S    
N15   H64   S    
C67   C68   S    
C58   C60   A    
C66   H36   S    
C1    C12   S    
O3    V1    S    
C77   H76   S    
O14   V4    S    
C2    C11   S    
C68   H48   S    
O16   V4    S    
C44   N2    S    
N9    H38   S    
C76   C77   S    
C62   H26   S    
O26   C76   S    
C2    O12   A    
C9    C25   A    
C41   C43   A    
C48   O22   S    
C14   C16   A    
C29   H7    S    
C54   C60   A    
C6    C56   S    
N8    H21   S    
C49   C51   A    
C24   C26   A    
O11   V3    S    
C72   H58   S    
N12   H44   S    
C25   C27   A    
O17   V3    S    
C11   C33   A    
C18   C20   A    
C57   N9    S    
C38   C40   A    
C38   C48   A    
C22   C30   A    
C61   C62   S    
N10   H39   S    
C72   H57   S    
C14   N14   S    
O8    V2    S    
C72   H56   S    
C39   C41   A    
C53   N3    S    
O13   V1    S    
C19   C23   A    
C1    O11   A    
C16   C18   A    
C50   C54   A    
O15   V3    S    
H1    C27   S    
C9    H3    S    
C23   C25   A    
C65   H33   S    
O25   C73   S    
C64   H31   S    
H2    C28   S    
C67   H46   S    
C46   N8    S    
C13   N13   S    
C59   H13   S    
C11   C31   A    
O10   V2    S    
C77   C78   S    
O1    V3    S    
C45   C47   A    
C51   O25   S    
N5    H16   S    
C68   C69   S    
C45   N7    S    
C20   C22   A    
C43   C45   A    
C7    C35   S    
C61   H24   S    
C34   N6    S    
C8    C36   S    
C40   C42   A    
N2    N4    D    
C10   C26   A    
C50   C52   A    
C27   C29   A    
C54   N4    S    
C66   H34   S    
C78   H80   S    
C5    C55   S    
C37   C47   A    
C65   C66   S    
O1    C3    A    
C13   C35   A    
C63   H28   S    
C64   H30   S    
C14   C36   A    
C70   C71   S    
C51   C55   A    
N16   H65   S    
C39   N11   S    
N12   H43   S    
V2    O20   S    
C62   C63   S    
C30   H8    S    
N11   H42   S    
C50   H10   S    
C71   H54   S    
C75   H72   S    
N16   H66   S    
C10   H4    S    
C69   H51   S    
C13   C15   A    
C32   O24   S    
N10   H40   S    
C58   N10   S    
C42   H12   S    
C62   H25   S    
C57   C59   A    
C26   C28   A    
O18   V4    S    
O5    V1    S    
O17   C7    A    
O6    V2    S    
N9    H37   S    
O10   C6    A    
O18   C8    A    
C73   H68   S    
C73   C74   S    
O2    V4    S    
O24   C70   S    
C63   H29   S    
O15   C5    A    
C65   H32   S    
C68   H47   S    
C64   C65   S    
C74   H69   S    
V3    O19   S    
C60   H14   S    
N7    H19   S    
C17   H5    S    
N6    H18   S    
C40   N12   S    
O9    C5    A    
C4    C37   S    
C28   C30   A    
O14   V2    S    
C71   C72   S    
O2    C4    A    
N14   H62   S    
C74   H70   S    
C53   C59   A    
C55   C57   A    
C76   H74   S    
O4    V2    S    
O6    C8    A    
C20   C24   A    
C23   C31   A    
C9    C33   A    
N15   H63   S    
N6    H17   S    
N5    H15   S    
C66   H35   S    
N1    N3    D    
C67   H45   S    
C77   H77   S    
C52   C56   A    
C63   H27   S    
O23   C67   S    
C15   C17   A    
C49   C53   A    
O21   C61   S    
O8    C4    A    
C76   H75   S    
