data_mof_unit_3838.cif
_audit_creation_date              2012-12-11T14:36:16-0500
_audit_creation_method            fapswitch 2.2
_symmetry_space_group_name_H-M    P1
_symmetry_Int_Tables_number       1
_space_group_crystal_system       triclinic
_cell_length_a                    13.538028
_cell_length_b                    13.498667
_cell_length_c                    27.457801
_cell_angle_alpha                 90.550579
_cell_angle_beta                  90.021874
_cell_angle_gamma                 60.077224
_cell_volume                      4348.64967927

loop_
_atom_site_label
_atom_site_type_symbol
_atom_type_description
_atom_site_fract_x
_atom_site_fract_y
_atom_site_fract_z
_atom_type_partial_charge
C1    C     C_R   0.621477 0.103021 0.569311 0.540532
C2    C     C_1   0.636578 0.721526 0.614409 -0.028908
C3    C     C_3   0.622015 0.599328 0.769393 -0.101793
C4    C     C_3   0.687377 0.637846 0.803155 0.055146
C5    C     C_3   0.571898 0.714830 0.742958 -0.099917
C6    C     C_3   0.674612 0.662113 0.707938 0.053465
C7    C     C_3   0.637462 0.753000 0.777409 -0.107785
C8    C     C_3   0.740314 0.700299 0.741840 -0.108546
C9    C     C_1   0.693471 0.622352 0.856011 -0.063729
C10   C     C_1   0.658576 0.687417 0.655676 -0.068160
C11   C     C_3   0.068977 0.135840 0.735436 -0.125086
C12   C     C_R   0.600572 0.777602 0.568227 0.538884
C13   C     C_3   0.164139 0.069657 0.773393 -0.112424
C14   C     C_1   0.086544 0.207010 0.899693 -0.016764
C15   C     C_1   0.214752 0.143685 0.614422 -0.029083
C16   C     C_3   0.025497 0.247308 0.766555 -0.093323
C17   C     C_3   0.122154 0.180520 0.803453 0.034047
C18   C     C_3   0.107235 0.275292 0.738315 0.020190
C19   C     C_3   0.148885 0.166037 0.707592 0.066619
C20   C     C_3   0.202859 0.210316 0.775797 -0.079053
C21   C     C_3   0.243092 0.100574 0.745062 0.024073
C22   C     C_1   0.106564 0.191315 0.856578 -0.062823
C23   C     C_R   0.275248 0.122812 0.568957 0.544371
C24   C     C_1   0.176637 0.156079 0.655223 -0.062780
C25   C     C_3   0.575651 0.281875 0.741488 0.029999
C26   C     C_3   0.575777 0.196379 0.778606 -0.107799
C27   C     C_1   0.697336 0.211942 0.901086 -0.021267
C28   C     C_1   0.641532 0.141378 0.615407 -0.037126
C29   C     C_3   0.675167 0.283135 0.768664 -0.114486
C30   C     C_3   0.676010 0.196355 0.805036 0.050456
C31   C     C_3   0.761547 0.183058 0.735673 -0.112216
C32   C     C_3   0.661693 0.182695 0.709186 0.050606
C33   C     C_3   0.761984 0.097453 0.772718 0.031869
C34   C     C_R   0.621579 0.098684 0.430809 0.544969
C35   C     C_3   0.663032 0.095829 0.745807 -0.107513
C36   C     C_1   0.684623 0.204092 0.858046 -0.066846
C37   C     C_1   0.653194 0.164873 0.656784 -0.072220
C38   C     C_R   0.729456 0.709439 0.357363 -0.139078
C39   C     C_R   0.741212 0.696203 0.306783 0.014901
C40   C     C_R   0.762245 0.669109 0.205280 0.012602
C41   C     C_R   0.855537 0.653123 0.233398 -0.134806
C42   C     C_R   0.844874 0.667153 0.283918 -0.138660
C43   C     C_R   0.775275 0.641827 0.155785 -0.135905
C44   C     C_R   0.684228 0.645892 0.129543 -0.006028
C45   C     C_R   0.599795 0.779245 0.429429 0.545444
C46   C     C_R   0.534206 0.747686 0.350938 -0.126042
C47   C     C_R   0.542653 0.740655 0.300783 0.008605
C48   C     C_R   0.646550 0.714317 0.278437 0.065439
C49   C     C_R   0.447749 0.761892 0.272729 -0.129425
C50   C     C_R   0.456822 0.752917 0.222330 -0.129843
C51   C     C_R   0.561446 0.720560 0.199815 0.012800
C52   C     C_R   0.656270 0.703359 0.227763 0.065284
C53   C     C_R   0.575466 0.694977 0.150426 -0.133336
C54   C     C_R   0.625374 0.736845 0.379391 -0.000353
C55   C     C_R   0.205155 0.067335 0.357065 -0.141202
C56   C     C_R   0.282869 0.118924 0.429639 0.546351
C57   C     C_R   0.184975 0.075107 0.306821 0.017467
C58   C     C_R   0.140236 0.096690 0.206619 0.004767
C59   C     C_R   0.118754 0.022672 0.234458 -0.131408
C60   C     C_R   0.142000 0.011154 0.284218 -0.135429
C61   C     C_R   0.106297 0.117364 0.158355 -0.148256
C62   C     C_R   0.121104 0.196783 0.131151 0.006742
C63   C     C_R   0.265544 0.208820 0.350739 -0.124279
C64   C     C_R   0.250301 0.213966 0.300860 0.006968
C65   C     C_R   0.208580 0.148228 0.278600 0.065364
C66   C     C_R   0.277190 0.283541 0.273070 -0.135426
C67   C     C_3   0.724719 0.546478 0.733657 -0.105726
C68   C     C_R   0.260813 0.290153 0.223057 -0.127305
C69   C     C_R   0.214167 0.229265 0.199977 0.032058
C70   C     C_R   0.188551 0.157354 0.228267 0.051128
C71   C     C_R   0.187505 0.242428 0.149933 -0.009609
C72   C     C_R   0.244632 0.134936 0.379110 0.000559
C73   C     C_R   0.568333 0.236161 0.362327 -0.141871
C74   C     C_R   0.572389 0.254179 0.312428 0.012460
C75   C     C_R   0.581665 0.286926 0.211975 0.010871
C76   C     C_R   0.508524 0.378865 0.242318 -0.136919
C77   C     C_R   0.503415 0.362406 0.292234 -0.141841
C78   C     C_3   0.790503 0.584435 0.768439 -0.102587
C79   C     C_R   0.595242 0.303928 0.162880 -0.140747
C80   C     C_R   0.675560 0.212285 0.134167 -0.007152
C81   C     C_R   0.716391 0.037506 0.351416 -0.127066
C82   C     C_R   0.717995 0.052793 0.301736 0.009182
C83   C     C_R   0.645796 0.161339 0.281972 0.065577
C84   C     C_R   0.789295 0.960228 0.271502 -0.129282
C85   C     C_R   0.790302 0.975168 0.221581 -0.130238
C86   C     C_R   0.721956 0.083528 0.201695 0.012446
C87   C     C_R   0.648593 0.177068 0.231780 0.065210
C88   C     C_R   0.732198 0.101370 0.152782 -0.133585
C89   C     C_1   0.699972 0.601663 0.898854 -0.018741
C90   C     C_R   0.639480 0.127440 0.381727 -0.000864
C91   C     C_R   0.047265 0.237322 0.949134 0.541323
C92   C     C_R   0.712091 0.561849 0.947874 0.542677
C93   C     C_R   0.723355 0.226179 0.950397 0.543011
C94   C     C_R   0.051450 0.242707 0.087251 0.546318
C95   C     C_R   0.707409 0.576716 0.085519 0.547998
C96   C     C_R   0.717994 0.233813 0.088993 0.547990
Cr1   Cr    Cr6+3 0.417550 0.169090 0.500530 1.013714
Cr2   Cr    Cr6+3 0.669180 0.913420 0.499920 1.017175
Cr3   Cr    Cr6+3 0.413260 0.917540 0.499520 1.016011
Cr4   Cr    Cr6+3 0.909170 0.177380 0.020380 1.014665
Cr5   Cr    Cr6+3 0.912710 0.429210 0.018220 1.013544
Cr6   Cr    Cr6+3 0.657170 0.432570 0.019030 1.017139
H1    H     H_    0.879759 0.531337 0.780684 0.105911
H2    H     H_    0.258615 0.240140 0.792154 0.093029
H3    H     H_    0.935146 0.308601 0.775888 0.104129
H4    H     H_    0.499495 0.202674 0.796684 0.090501
H5    H     H_    0.662788 0.015876 0.736674 0.098987
H6    H     H_    0.834114 0.181407 0.716649 0.095268
H7    H     H_    0.681704 0.359218 0.778881 0.098188
H8    H     H_    0.859006 0.606280 0.139204 0.128501
H9    H     H_    0.760736 0.461714 0.715333 0.099433
H10   H     H_    0.799360 0.702206 0.379277 0.115513
H11   H     H_    0.937325 0.627035 0.216469 0.103648
H12   H     H_    0.918020 0.653562 0.305139 0.101485
H13   H     H_    0.504477 0.701259 0.129598 0.125488
H14   H     H_    0.383508 0.766695 0.201163 0.106203
H15   H     H_    0.367028 0.784108 0.289802 0.106874
H16   H     H_    0.452760 0.770116 0.367402 0.134661
H17   H     H_    0.060147 0.077789 0.143249 0.134798
H18   H     H_    0.191177 0.008735 0.378779 0.112364
H19   H     H_    0.081824 0.975449 0.217918 0.106370
H20   H     H_    0.789597 0.741429 0.729972 0.098525
H21   H     H_    0.124058 0.954271 0.305169 0.102461
H22   H     H_    0.280568 0.347082 0.203288 0.113245
H23   H     H_    0.309769 0.334009 0.290164 0.113903
H24   H     H_    0.299492 0.259084 0.367038 0.136075
H25   H     H_    0.550597 0.389655 0.148291 0.127616
H26   H     H_    0.508285 0.305273 0.385705 0.114080
H27   H     H_    0.456691 0.463698 0.227586 0.106835
H28   H     H_    0.446485 0.434419 0.315090 0.103857
H29   H     H_    0.792413 0.030237 0.130254 0.125059
H30   H     H_    0.602561 0.837455 0.795879 0.094429
H31   H     H_    0.847169 0.902954 0.198774 0.105255
H32   H     H_    0.844876 0.876629 0.286552 0.109161
H33   H     H_    0.770406 0.952660 0.365865 0.132826
H34   H     H_    0.481446 0.765090 0.731988 0.095416
H35   H     H_    0.570928 0.560359 0.781439 0.095354
H36   H     H_    0.189008 0.984255 0.788346 0.098962
H37   H     H_    0.019778 0.100226 0.717901 0.096048
O1    O     O_R   0.301710 0.195650 0.554160 -0.509394
O2    O     O_R   0.658900 0.818120 0.449760 -0.501918
O3    O     O_R   0.503220 0.801620 0.445520 -0.523817
O4    O     O_R   0.319370 0.022040 0.450020 -0.500801
O5    O     O_3   0.499990 0.000010 0.499990 -0.245546
O6    O     O_R   0.818720 0.150820 0.967160 -0.511209
O7    O     O_R   0.006410 0.181720 0.970200 -0.496392
O8    O     O_R   0.027890 0.334070 0.964920 -0.512447
O9    O     O_R   0.809600 0.521790 0.967960 -0.497218
O10   O     O_R   0.635520 0.542770 0.964420 -0.509182
O11   O     O_R   0.665950 0.325030 0.970100 -0.495248
O12   O     O_R   0.522390 0.158990 0.550460 -0.496489
O13   O     O_R   0.816620 0.158530 0.074540 -0.522117
O14   O     O_R   0.004460 0.188870 0.069750 -0.505857
O15   O     O_R   0.025800 0.341780 0.072300 -0.516069
O16   O     O_R   0.807650 0.528950 0.067500 -0.502315
O17   O     O_R   0.633420 0.550490 0.071810 -0.521200
O18   O     O_R   0.664000 0.332180 0.069640 -0.501147
O19   O     O_3   0.826350 0.346390 0.019210 -0.242207
O20   O     O_R   0.694390 0.003530 0.554040 -0.505541
O21   O     O_R   0.657700 0.819660 0.549320 -0.493221
O22   O     O_R   0.501930 0.803280 0.552920 -0.509671
O23   O     O_R   0.318170 0.023580 0.549580 -0.494967
O24   O     O_R   0.303010 0.193990 0.446760 -0.523737
O25   O     O_R   0.523600 0.157450 0.450900 -0.503745
O26   O     O_R   0.695690 0.001860 0.446640 -0.521940
C97   C     C_3   0.075239 0.391342 0.717663 -0.418289
H38   H     H_    0.066136 0.451132 0.747585 0.121353
H39   H     H_    0.143400 0.381630 0.692527 0.135813
H40   H     H_    0.994033 0.425731 0.697314 0.138175
C98   C     C_3   0.473149 0.393047 0.724428 -0.255970
C99   C     C_3   0.385100 0.372992 0.697807 -0.296574
C100  C     C_3   0.289409 0.485097 0.677728 -0.450700
H41   H     H_    0.238921 0.543526 0.708085 0.146468
H42   H     H_    0.324902 0.527454 0.654831 0.157613
H43   H     H_    0.232281 0.468088 0.654557 0.145516
H44   H     H_    0.425845 0.312256 0.666939 0.179731
H45   H     H_    0.348560 0.335940 0.723229 0.151311
H46   H     H_    0.432543 0.449483 0.756654 0.135563
H47   H     H_    0.504781 0.436182 0.699807 0.144823
C101  C     C_3   0.870633 0.991128 0.789289 -0.255661
C102  C     C_3   0.843828 0.913890 0.820593 -0.293281
C103  C     C_3   0.952742 0.806445 0.835657 -0.450328
H48   H     H_    0.000476 0.756327 0.802949 0.145203
H49   H     H_    0.007706 0.829613 0.857338 0.157222
H50   H     H_    0.930726 0.752334 0.858253 0.148928
H51   H     H_    0.796413 0.960903 0.853897 0.173952
H52   H     H_    0.789941 0.887761 0.799805 0.152953
H53   H     H_    0.919533 0.942973 0.756420 0.135523
H54   H     H_    0.923284 0.018519 0.810281 0.149188
C104  C     C_3   0.230112 0.303248 0.117272 -0.384944
H55   H     H_    0.321495 0.272640 0.124641 0.120055
H56   H     H_    0.226539 0.284125 0.078151 0.151313
H57   H     H_    0.179541 0.396976 0.123765 0.132188
C105  C     C_3   0.364370 0.011876 0.731453 -0.258928
C106  C     C_3   0.426789 0.066159 0.706721 -0.305130
C107  C     C_3   0.521303 0.979562 0.673809 -0.431474
H58   H     H_    0.584146 0.906527 0.695426 0.154319
H59   H     H_    0.484870 0.949472 0.644915 0.170108
H60   H     H_    0.565620 0.019223 0.656104 0.152495
H61   H     H_    0.368917 0.140879 0.684449 0.173326
H62   H     H_    0.462237 0.097601 0.735183 0.148784
H63   H     H_    0.410674 0.966937 0.764821 0.128451
H64   H     H_    0.359150 0.949281 0.706567 0.147481

loop_
_geom_bond_atom_site_label_1
_geom_bond_atom_site_label_2
_ccdc_geom_bond_type
Cr4   O14   S    
C59   H19   S    
C5    H34   S    
C66   C68   A    
C99   C100  S    
Cr5   O9    S    
C104  H55   S    
C61   H17   S    
C41   C42   A    
Cr3   O3    S    
C83   C87   A    
C74   C83   A    
C43   C44   A    
C2    C12   S    
Cr6   O19   S    
C91   O8    A    
C81   C82   A    
C102  H52   S    
C7    C8    S    
C97   H39   S    
C25   C98   S    
C102  C103  S    
Cr4   O13   S    
C56   O24   A    
C84   H32   S    
C20   C21   S    
C98   H46   S    
C50   H14   S    
C28   C37   T    
C29   H7    S    
C19   C21   S    
C73   C90   A    
C95   O17   A    
C34   O25   A    
C101  H54   S    
C107  H60   S    
C5    C6    S    
C86   C88   A    
C92   O9    A    
C98   C99   S    
Cr5   O16   S    
C65   C70   A    
C105  H63   S    
C17   C20   S    
C46   H16   S    
C18   C19   S    
C73   C74   A    
C69   C71   A    
C11   H37   S    
C103  H48   S    
C101  H53   S    
C104  H57   S    
C12   O22   A    
Cr3   O22   S    
C56   O4    A    
C44   C53   A    
C42   H12   S    
C40   C43   A    
C49   H15   S    
C31   C32   S    
Cr4   O7    S    
C16   C17   S    
Cr1   O24   S    
C74   C77   A    
C1    C28   S    
C31   C33   S    
C93   O6    A    
C3    H35   S    
C43   H8    S    
C21   C105  S    
C80   C96   S    
C34   O26   A    
Cr1   O1    S    
C18   C20   S    
C55   C72   A    
C100  H43   S    
C23   O23   A    
C25   C32   S    
C15   C23   S    
C96   O18   A    
C59   C60   A    
C71   C104  S    
C33   C101  S    
C8    C78   S    
C26   H4    S    
C93   O11   A    
C61   C62   A    
C67   C78   S    
C4    C7    S    
Cr6   O18   S    
C100  H42   S    
C81   H33   S    
C39   C42   A    
C55   H18   S    
C25   C29   S    
C38   C39   A    
C51   C52   A    
C63   H24   S    
C32   C35   S    
C23   O1    A    
C1    O20   A    
C84   C85   A    
C76   C77   A    
C107  H59   S    
C9    C89   T    
C5    C7    S    
C86   C87   A    
C58   C70   A    
C57   C60   A    
C6    C8    S    
C106  C107  S    
Cr6   O10   S    
C18   C97   S    
C56   C72   S    
C58   C59   A    
C85   C86   A    
C79   C80   A    
C51   C53   A    
C103  H50   S    
C64   C66   A    
C60   H21   S    
C75   C76   A    
C34   C90   S    
Cr1   O5    S    
C4    C78   S    
C29   C30   S    
Cr3   O23   S    
C11   C16   S    
Cr3   O5    S    
C47   C48   A    
C38   C54   A    
Cr4   O6    S    
C94   O15   A    
Cr1   O25   S    
C11   C19   S    
C68   H22   S    
C46   C54   A    
C76   H27   S    
C50   C51   A    
Cr1   O12   S    
C13   C21   S    
C16   C18   S    
C32   C37   S    
C12   O21   A    
C89   C92   S    
C7    H30   S    
C16   H3    S    
C45   O2    A    
C20   H2    S    
C81   C90   A    
C75   C87   A    
C15   C24   T    
Cr6   O11   S    
Cr5   O19   S    
C26   C30   S    
C82   C84   A    
C62   C94   S    
Cr2   O2    S    
C45   O3    A    
C49   C50   A    
C27   C93   S    
C38   H10   S    
C3    C4    S    
C2    C10   T    
C31   H6    S    
Cr6   O17   S    
C6    C67   S    
C100  H41   S    
C106  H61   S    
C67   H9    S    
C79   H25   S    
C46   C47   A    
C40   C41   A    
C104  H56   S    
C30   C33   S    
Cr2   O5    S    
C78   H1    S    
C68   C69   A    
C3    C67   S    
Cr2   O21   S    
C107  H58   S    
C3    C5    S    
C45   C54   S    
C6    C10   S    
C102  H51   S    
C106  H62   S    
C30   C36   S    
C27   C36   T    
C47   C49   A    
C73   H26   S    
C99   H44   S    
C17   C22   S    
C66   H23   S    
C13   C17   S    
C98   H47   S    
C13   H36   S    
C14   C22   T    
C55   C57   A    
C19   C24   S    
C25   C26   S    
C80   C88   A    
C44   C95   S    
C40   C52   A    
C64   C65   A    
C105  C106  S    
C11   C13   S    
Cr5   O8    S    
C97   H38   S    
Cr5   O15   S    
C58   C61   A    
C94   O14   A    
C105  H64   S    
C41   H11   S    
C63   C72   A    
C33   C35   S    
C62   C71   A    
C1    O12   A    
C95   O16   A    
C77   H28   S    
C8    H20   S    
C69   C70   A    
C103  H49   S    
C14   C91   S    
Cr2   O26   S    
C35   H5    S    
Cr3   O4    S    
C63   C64   A    
Cr4   O19   S    
C26   C35   S    
C48   C52   A    
Cr2   O20   S    
C97   H40   S    
C29   C31   S    
C82   C83   A    
C92   O10   A    
C99   H45   S    
C88   H29   S    
C4    C9    S    
C75   C79   A    
C91   O7    A    
C101  C102  S    
C53   H13   S    
C85   H31   S    
C39   C48   A    
C57   C65   A    
C96   O13   A    
