data_mof_unit_2441.cif
_audit_creation_date              2012-12-10T20:51:47-0500
_audit_creation_method            fapswitch 2.2
_symmetry_space_group_name_H-M    P1
_symmetry_Int_Tables_number       1
_space_group_crystal_system       triclinic
_cell_length_a                    8.112247
_cell_length_b                    8.923301
_cell_length_c                    16.704533
_cell_angle_alpha                 89.452304
_cell_angle_beta                  94.842588
_cell_angle_gamma                 90.116494
_cell_volume                      1204.83573113

loop_
_atom_site_label
_atom_site_type_symbol
_atom_type_description
_atom_site_fract_x
_atom_site_fract_y
_atom_site_fract_z
_atom_type_partial_charge
C1    C     C_R   0.499812 0.218031 0.499711 0.973046
C2    C     C_R   0.534766 0.333690 0.147697 -0.046780
C3    C     C_R   0.542711 0.557943 0.904431 0.235970
C4    C     C_R   0.457184 0.441828 0.095579 0.235996
C5    C     C_R   0.629882 0.437950 0.874034 -0.173085
C6    C     C_R   0.369865 0.561743 0.125957 -0.172982
C7    C     C_R   0.626314 0.413772 0.791641 -0.081324
C8    C     C_R   0.373482 0.586004 0.208344 -0.081268
C9    C     C_1   0.499804 0.065215 0.499883 -0.162183
C10   C     C_1   0.500194 0.934785 0.500110 -0.162193
C11   C     C_2   0.617568 0.198385 0.118113 0.952591
C12   C     C_R   0.500187 0.781969 0.500284 0.972954
C13   C     C_2   0.382780 0.801649 0.881940 0.952679
C14   C     C_2   0.708151 0.277614 0.762701 0.945474
C15   C     C_2   0.291495 0.722101 0.237261 0.945512
C16   C     C_R   0.521846 0.498249 0.653790 0.946245
C17   C     C_R   0.478153 0.501747 0.346210 0.946211
C18   C     C_R   0.536196 0.515365 0.739872 -0.120479
C19   C     C_R   0.463800 0.484570 0.260129 -0.120497
C20   C     C_R   0.460920 0.641683 0.769942 -0.259175
C21   C     C_R   0.539247 0.358323 0.230081 -0.259155
C22   C     C_R   0.465360 0.666239 0.852333 -0.046821
H1    H     H_    0.602029 0.279003 0.271729 0.197025
H2    H     H_    0.398297 0.721112 0.728303 0.196994
H3    H     H_    0.692593 0.358401 0.915513 0.212802
H4    H     H_    0.307013 0.641181 0.084460 0.212714
H5    H     H_    0.766226 0.020379 0.144812 0.374287
H6    H     H_    0.234644 0.980010 0.855247 0.374243
H7    H     H_    0.714865 0.117752 0.678295 0.347614
H8    H     H_    0.284684 0.882057 0.321611 0.347644
N1    N     N_1   0.073640 0.500030 0.499990 -0.020200
N2    N     N_1   0.926360 0.499970 0.500010 -0.020200
N3    N     N_2   0.519799 0.562266 0.986783 -0.135411
N4    N     N_2   0.480074 0.437487 0.013227 -0.135503
O1    O     O_R   0.636850 0.285340 0.500000 -0.608098
O2    O     O_R   0.717880 0.109623 0.171741 -0.788919
O3    O     O_2   0.403405 0.837351 0.952587 -0.577284
O4    O     O_R   0.282846 0.890713 0.828302 -0.788903
O5    O     O_2   0.825430 0.221898 0.803207 -0.597317
O6    O     O_R   0.649170 0.209985 0.690707 -0.812310
O7    O     O_2   0.174083 0.777633 0.196773 -0.597372
O8    O     O_R   0.350488 0.789884 0.309211 -0.812294
O9    O     O_R   0.363150 0.714660 0.500000 -0.608086
O10   O     O_R   0.363100 0.285350 0.500000 -0.615852
O11   O     O_R   0.636900 0.714650 0.500000 -0.615876
O12   O     O_R   0.652140 0.498630 0.616140 -0.605662
O13   O     O_R   0.347860 0.501370 0.383860 -0.605658
O14   O     O_R   0.378390 0.498650 0.616130 -0.611597
O15   O     O_R   0.621610 0.501350 0.383870 -0.611624
O16   O     O_2   0.596807 0.162507 0.047497 -0.577323
Zn1   Zn    Zn3+2 0.682780 0.499990 0.500010 1.030705
Zn2   Zn    Zn3+2 0.317220 0.500010 0.499990 1.030725

loop_
_geom_bond_atom_site_label_1
_geom_bond_atom_site_label_2
_ccdc_geom_bond_type
C2    C4    A    
N2    Zn1   S    
O13   Zn2   S    
H5    O2    S    
C12   O9    A    
C9    C10   T    
C1    O10   A    
C13   O3    D    
N1    N2    T    
H6    O4    S    
N1    Zn2   S    
C3    C5    A    
C7    C18   A    
O10   Zn2   S    
C2    C21   A    
N3    N4    D    
C11   O16   D    
C16   O14   A    
C13   O4    S    
C6    H4    S    
C10   C12   S    
C5    H3    S    
C2    C11   S    
H7    O6    S    
C4    C6    A    
C11   O2    S    
C17   C19   S    
C20   C22   A    
C13   C22   S    
C8    C15   S    
C18   C20   A    
C21   H1    S    
O1    Zn1   S    
C4    N4    S    
O9    Zn2   S    
C8    C19   A    
C3    N3    S    
C14   O6    S    
C17   O13   A    
O14   Zn2   S    
C1    C9    S    
C15   O7    D    
C16   C18   S    
C16   O12   A    
C5    C7    A    
C1    O1    A    
O11   Zn1   S    
H8    O8    S    
C3    C22   A    
C6    C8    A    
C19   C21   A    
C14   O5    D    
O12   Zn1   S    
C7    C14   S    
C17   O15   A    
C20   H2    S    
C15   O8    S    
C12   O11   A    
O15   Zn1   S    
