data_mof_unit_3488.cif
_audit_creation_date              2012-12-11T15:07:08-0500
_audit_creation_method            fapswitch 2.2
_symmetry_space_group_name_H-M    P1
_symmetry_Int_Tables_number       1
_space_group_crystal_system       triclinic
_cell_length_a                    19.931744
_cell_length_b                    11.298869
_cell_length_c                    18.718587
_cell_angle_alpha                 89.999919
_cell_angle_beta                  89.943664
_cell_angle_gamma                 89.999654
_cell_volume                      4215.53914338

loop_
_atom_site_label
_atom_site_type_symbol
_atom_type_description
_atom_site_fract_x
_atom_site_fract_y
_atom_site_fract_z
_atom_type_partial_charge
C1    C     C_R   0.761551 0.523375 0.639258 0.536331
C2    C     C_3   0.253081 0.056629 0.563207 0.066001
C3    C     C_R   0.738582 0.032917 0.150996 0.535115
C4    C     C_R   0.774949 0.135994 0.859522 0.536964
C5    C     C_R   0.225037 0.136028 0.140469 0.537001
C6    C     C_R   0.274957 0.636011 0.859527 0.536989
C7    C     C_R   0.725052 0.635991 0.140479 0.536964
C8    C     C_R   0.964509 0.352162 0.855695 0.542096
C9    C     C_R   0.035447 0.352154 0.144336 0.542061
C10   C     C_R   0.464560 0.852153 0.855660 0.542057
C11   C     C_R   0.535487 0.852164 0.144306 0.542095
C12   C     C_3   0.687824 0.131046 0.465877 -0.235329
C13   C     C_3   0.246918 0.556630 0.436793 0.065999
C14   C     C_3   0.312174 0.131043 0.534124 -0.235333
C15   C     C_3   0.187824 0.631046 0.465877 -0.235330
C16   C     C_3   0.812174 0.631043 0.534124 -0.235332
C17   C     C_3   0.693572 0.144276 0.546996 -0.230416
C18   C     C_3   0.306425 0.144278 0.453006 -0.230419
C19   C     C_3   0.193572 0.644276 0.546996 -0.230416
C20   C     C_3   0.806425 0.644278 0.453006 -0.230419
C21   C     C_3   0.756287 0.938937 0.480521 -0.217109
C22   C     C_3   0.243711 0.938937 0.519477 -0.217117
C23   C     C_3   0.256287 0.438937 0.480521 -0.217113
C24   C     C_3   0.753081 0.556629 0.563207 0.066004
C25   C     C_3   0.743711 0.438937 0.519477 -0.217114
C26   C     C_3   0.630738 0.146258 0.926009 -0.401590
C27   C     C_3   0.369262 0.146320 0.073904 -0.401607
C28   C     C_3   0.130735 0.646288 0.926075 -0.401617
C29   C     C_3   0.869261 0.646257 0.073988 -0.401583
C30   C     C_3   0.964220 0.130990 0.078776 -0.389753
C31   C     C_3   0.035863 0.131153 0.921206 -0.389762
C32   C     C_3   0.464125 0.631174 0.078796 -0.389771
C33   C     C_3   0.535777 0.630985 0.921228 -0.389761
C34   C     C_3   0.760591 0.090275 0.574273 0.066799
C35   C     C_3   0.239406 0.090279 0.425728 0.066793
C36   C     C_3   0.260591 0.590275 0.574273 0.066797
C37   C     C_3   0.739406 0.590279 0.425728 0.066797
C38   C     C_3   0.754218 0.957627 0.561931 -0.262256
C39   C     C_3   0.245779 0.957632 0.438068 -0.262250
C40   C     C_3   0.254218 0.457627 0.561931 -0.262255
C41   C     C_R   0.238450 0.523377 0.360741 0.536340
C42   C     C_3   0.745779 0.457632 0.438068 -0.262252
C43   C     C_3   0.822453 0.133678 0.529697 -0.215731
C44   C     C_3   0.177544 0.133680 0.470305 -0.215740
C45   C     C_3   0.322454 0.633678 0.529697 -0.215733
C46   C     C_3   0.677544 0.633680 0.470305 -0.215737
C47   C     C_3   0.004402 0.204352 0.459041 -0.232735
C48   C     C_3   0.995596 0.204351 0.540957 -0.232735
C49   C     C_3   0.504402 0.704352 0.459041 -0.232737
C50   C     C_3   0.495596 0.704351 0.540957 -0.232734
C51   C     C_3   0.063990 0.405730 0.474405 -0.212824
C52   C     C_R   0.261551 0.023375 0.639258 0.536345
C53   C     C_3   0.936007 0.405730 0.525594 -0.212828
C54   C     C_3   0.563990 0.905730 0.474405 -0.212826
C55   C     C_3   0.436007 0.905730 0.525594 -0.212826
C56   C     C_3   0.942468 0.390236 0.444563 -0.262490
C57   C     C_3   0.057529 0.390236 0.555435 -0.262490
C58   C     C_3   0.442468 0.890236 0.444563 -0.262490
C59   C     C_3   0.557530 0.890236 0.555435 -0.262490
C60   C     C_3   0.010639 0.333009 0.430968 0.065651
C61   C     C_3   0.989359 0.333008 0.569031 0.065644
C62   C     C_3   0.510639 0.833009 0.430968 0.065644
C63   C     C_R   0.738449 0.023377 0.360741 0.536328
C64   C     C_3   0.489359 0.833008 0.569031 0.065651
C65   C     C_3   0.811439 0.022511 0.044295 -0.255251
C66   C     C_3   0.188570 0.022500 0.955702 -0.255386
C67   C     C_3   0.311425 0.522480 0.044294 -0.255362
C68   C     C_3   0.688560 0.522512 0.955705 -0.255255
C69   C     C_R   0.774555 0.121242 0.649545 0.537107
C70   C     C_R   0.225441 0.121252 0.350458 0.537134
C71   C     C_R   0.274555 0.621242 0.649545 0.537117
C72   C     C_R   0.725441 0.621252 0.350458 0.537120
C73   C     C_3   0.810386 0.019063 0.964399 -0.259243
C74   C     C_3   0.809875 0.131160 0.448862 -0.259437
C75   C     C_3   0.189596 0.019062 0.035605 -0.259278
C76   C     C_3   0.310400 0.519047 0.964391 -0.259271
C77   C     C_3   0.689615 0.519060 0.035601 -0.259247
C78   C     C_3   0.684802 0.025047 0.030739 -0.199154
C79   C     C_3   0.315165 0.024770 0.969343 -0.199272
C80   C     C_3   0.184826 0.524800 0.030670 -0.199248
C81   C     C_3   0.815197 0.525049 0.969259 -0.199154
C82   C     C_3   0.743818 0.204700 0.062894 -0.253036
C83   C     C_3   0.256327 0.204594 0.937118 -0.252903
C84   C     C_3   0.243694 0.704596 0.062879 -0.252943
C85   C     C_3   0.190124 0.131160 0.551140 -0.259433
C86   C     C_3   0.756180 0.704701 0.937106 -0.253035
C87   C     C_3   0.744668 0.071641 0.074836 0.051334
C88   C     C_3   0.255378 0.071534 0.925188 0.051421
C89   C     C_3   0.244626 0.571538 0.074813 0.051405
C90   C     C_3   0.755331 0.571642 0.925163 0.051333
C91   C     C_3   0.758224 0.109899 0.936209 0.078182
C92   C     C_3   0.241768 0.109893 0.063793 0.078183
C93   C     C_3   0.258227 0.609874 0.936204 0.078180
C94   C     C_3   0.741777 0.609897 0.063791 0.078180
C95   C     C_3   0.687657 0.059016 0.949365 -0.105681
C96   C     C_3   0.309875 0.631160 0.448862 -0.259435
C97   C     C_3   0.312341 0.058992 0.050678 -0.105542
C98   C     C_3   0.187655 0.558974 0.949327 -0.105566
C99   C     C_3   0.812343 0.559016 0.050633 -0.105681
C100  C     C_3   0.761629 0.224321 0.983055 -0.224053
C101  C     C_3   0.238373 0.224273 0.016908 -0.224311
C102  C     C_3   0.261624 0.724258 0.983083 -0.224292
C103  C     C_3   0.738368 0.724319 0.016945 -0.224054
C104  C     C_3   0.998917 0.467570 0.040224 -0.278918
C105  C     C_3   0.000953 0.467593 0.959855 -0.278893
C106  C     C_3   0.499048 0.967603 0.040141 -0.278894
C107  C     C_3   0.690124 0.631160 0.551140 -0.259434
C108  C     C_3   0.501095 0.967574 0.959771 -0.278931
C109  C     C_3   0.069174 0.284425 0.021237 -0.197384
C110  C     C_3   0.930821 0.284294 0.978820 -0.197467
C111  C     C_3   0.569174 0.784287 0.021184 -0.197462
C112  C     C_3   0.430822 0.784446 0.978756 -0.197360
C113  C     C_3   0.951910 0.263592 0.058209 -0.100068
C114  C     C_3   0.048106 0.263754 0.941829 -0.100051
C115  C     C_3   0.451885 0.763777 0.058168 -0.100050
C116  C     C_3   0.548089 0.763585 0.941794 -0.100084
C117  C     C_R   0.969024 0.342104 0.644994 0.538065
C118  C     C_3   0.746918 0.056631 0.436793 0.066002
C119  C     C_R   0.030975 0.342104 0.355005 0.538044
C120  C     C_R   0.469024 0.842104 0.644994 0.538040
C121  C     C_R   0.530975 0.842104 0.355005 0.538065
C122  C     C_3   0.013905 0.341771 0.068730 0.067175
C123  C     C_3   0.986051 0.341786 0.931319 0.067118
C124  C     C_3   0.513944 0.841794 0.068681 0.067122
C125  C     C_3   0.486099 0.841775 0.931267 0.067180
C126  C     C_R   0.761418 0.532916 0.849004 0.535115
C127  C     C_R   0.238561 0.532852 0.150973 0.535185
C128  C     C_R   0.261443 0.032841 0.849031 0.535199
Cr1   Cr    Cr6+3 0.885690 0.492860 0.745310 0.991020
Cr2   Cr    Cr6+3 0.111880 0.178590 0.246990 0.985855
Cr3   Cr    Cr6+3 0.388120 0.678590 0.753010 0.985857
Cr4   Cr    Cr6+3 0.611880 0.678590 0.246990 0.985866
Cr5   Cr    Cr6+3 0.114310 0.492860 0.254690 0.991017
Cr6   Cr    Cr6+3 0.385690 0.992860 0.745310 0.991019
Cr7   Cr    Cr6+3 0.614310 0.992860 0.254690 0.991021
Cr8   Cr    Cr6+3 0.729880 0.332270 0.748190 0.984393
Cr9   Cr    Cr6+3 0.270120 0.332270 0.251810 0.984411
Cr10  Cr    Cr6+3 0.229880 0.832270 0.748190 0.984407
Cr11  Cr    Cr6+3 0.770120 0.832270 0.251810 0.984396
Cr12  Cr    Cr6+3 0.888120 0.178590 0.753010 0.985868
H1    H     H_    0.639750 0.092483 0.451760 0.130858
H2    H     H_    0.192204 0.908160 0.531177 0.127055
H3    H     H_    0.551694 0.986895 0.941978 0.133235
H4    H     H_    0.605567 0.852792 0.018253 0.084879
H5    H     H_    0.394438 0.853006 0.981571 0.084789
H6    H     H_    0.105555 0.352979 0.018403 0.084805
H7    H     H_    0.894432 0.352805 0.981754 0.084883
H8    H     H_    0.589283 0.796430 0.906622 0.103122
H9    H     H_    0.410706 0.796773 0.093319 0.103164
H10   H     H_    0.089284 0.296739 0.906674 0.103164
H11   H     H_    0.910720 0.296447 0.093385 0.103124
H12   H     H_    0.908651 0.205729 0.954188 0.127367
H13   H     H_    0.307796 0.408161 0.468822 0.127053
H14   H     H_    0.091357 0.205862 0.045857 0.127379
H15   H     H_    0.408645 0.705874 0.954140 0.127386
H16   H     H_    0.591341 0.705720 0.045818 0.127371
H17   H     H_    0.650475 0.099784 0.573154 0.106959
H18   H     H_    0.349522 0.099791 0.426846 0.106967
H19   H     H_    0.150475 0.599784 0.573154 0.106963
H20   H     H_    0.849522 0.599791 0.426846 0.106963
H21   H     H_    0.721363 0.869772 0.464142 0.109623
H22   H     H_    0.278636 0.869768 0.535854 0.109619
H23   H     H_    0.221363 0.369772 0.464142 0.109622
H24   H     H_    0.692204 0.408160 0.531177 0.127055
H25   H     H_    0.778635 0.369768 0.535854 0.109621
H26   H     H_    0.706802 0.923222 0.585040 0.103835
H27   H     H_    0.293197 0.923230 0.414959 0.103845
H28   H     H_    0.206802 0.423222 0.585040 0.103839
H29   H     H_    0.793197 0.423231 0.414959 0.103840
H30   H     H_    0.853776 0.091776 0.421004 0.123658
H31   H     H_    0.146222 0.091779 0.578998 0.123661
H32   H     H_    0.353776 0.591776 0.421004 0.123661
H33   H     H_    0.646222 0.591779 0.578998 0.123659
H34   H     H_    0.803185 0.221797 0.427596 0.104370
H35   H     H_    0.796213 0.909790 0.588164 0.120784
H36   H     H_    0.196816 0.221797 0.572405 0.104374
H37   H     H_    0.303185 0.721797 0.427596 0.104373
H38   H     H_    0.696816 0.721797 0.572405 0.104371
H39   H     H_    0.840956 0.219809 0.547428 0.110755
H40   H     H_    0.159042 0.219813 0.452578 0.110747
H41   H     H_    0.340956 0.719809 0.547428 0.110755
H42   H     H_    0.659042 0.719813 0.452578 0.110747
H43   H     H_    0.606096 0.112388 0.876881 0.132056
H44   H     H_    0.592980 0.160812 0.968624 0.105423
H45   H     H_    0.646735 0.235770 0.910787 0.158486
H46   H     H_    0.203786 0.909792 0.411834 0.120790
H47   H     H_    0.394051 0.112485 0.122942 0.131941
H48   H     H_    0.406887 0.161012 0.031172 0.105542
H49   H     H_    0.353235 0.235754 0.089234 0.158531
H50   H     H_    0.105967 0.612440 0.877027 0.131957
H51   H     H_    0.093092 0.660975 0.968790 0.105523
H52   H     H_    0.146757 0.735728 0.910752 0.158532
H53   H     H_    0.893902 0.612392 0.123119 0.132059
H54   H     H_    0.907022 0.660806 0.031374 0.105420
H55   H     H_    0.853264 0.735773 0.089204 0.158479
H56   H     H_    0.935325 0.109045 0.127805 0.127940
H57   H     H_    0.296214 0.409790 0.588164 0.120786
H58   H     H_    0.951027 0.069634 0.034928 0.103717
H59   H     H_    0.015865 0.106147 0.092862 0.160038
H60   H     H_    0.064769 0.109317 0.872164 0.127974
H61   H     H_    0.049062 0.069770 0.965036 0.103736
H62   H     H_    0.984227 0.106248 0.907108 0.160062
H63   H     H_    0.435213 0.609341 0.127835 0.127968
H64   H     H_    0.450936 0.569789 0.034964 0.103736
H65   H     H_    0.515758 0.606268 0.092904 0.160071
H66   H     H_    0.564669 0.609037 0.872199 0.127944
H67   H     H_    0.548972 0.569630 0.965077 0.103715
H68   H     H_    0.703786 0.409792 0.411834 0.120788
H69   H     H_    0.484130 0.606144 0.907144 0.160030
H70   H     H_    0.047419 0.151240 0.443279 0.130703
H71   H     H_    0.952579 0.151239 0.556719 0.130700
H72   H     H_    0.547419 0.651240 0.443279 0.130702
H73   H     H_    0.360248 0.092478 0.548240 0.130858
H74   H     H_    0.452580 0.651239 0.556719 0.130701
H75   H     H_    0.960958 0.159638 0.433770 0.107241
H76   H     H_    0.039040 0.159635 0.566229 0.107242
H77   H     H_    0.460958 0.659638 0.433770 0.107243
H78   H     H_    0.539040 0.659635 0.566229 0.107240
H79   H     H_    0.615348 0.889634 0.456227 0.110384
H80   H     H_    0.384649 0.889633 0.543772 0.110384
H81   H     H_    0.115348 0.389634 0.456227 0.110385
H82   H     H_    0.884649 0.389633 0.543772 0.110383
H83   H     H_    0.598788 0.834632 0.576622 0.104373
H84   H     H_    0.139750 0.592483 0.451760 0.130858
H85   H     H_    0.401210 0.834633 0.423376 0.104377
H86   H     H_    0.098788 0.334632 0.576622 0.104377
H87   H     H_    0.901210 0.334633 0.423376 0.104373
H88   H     H_    0.939120 0.477724 0.417701 0.121727
H89   H     H_    0.060877 0.477723 0.582297 0.121731
H90   H     H_    0.439120 0.977724 0.417701 0.121731
H91   H     H_    0.560877 0.977723 0.582297 0.121727
H92   H     H_    0.947438 0.500104 0.536162 0.130222
H93   H     H_    0.052561 0.500104 0.463837 0.130222
H94   H     H_    0.447437 0.000104 0.536162 0.130223
H95   H     H_    0.860248 0.592478 0.548240 0.130859
H96   H     H_    0.552561 0.000104 0.463837 0.130222
H97   H     H_    0.830289 0.936709 0.063845 0.134127
H98   H     H_    0.169701 0.936703 0.936157 0.134152
H99   H     H_    0.330293 0.436684 0.063841 0.134143
H100  H     H_    0.669708 0.436713 0.936153 0.134129
H101  H     H_    0.687358 0.219489 0.440447 0.107928
H102  H     H_    0.312641 0.219484 0.559555 0.107931
H103  H     H_    0.187358 0.719488 0.440447 0.107930
H104  H     H_    0.812642 0.719484 0.559555 0.107929
H105  H     H_    0.848176 0.086781 0.061245 0.138817
H106  H     H_    0.862911 0.068572 0.539717 0.125842
H107  H     H_    0.151883 0.086832 0.938720 0.138845
H108  H     H_    0.348116 0.586800 0.061274 0.138839
H109  H     H_    0.651823 0.586785 0.938758 0.138818
H110  H     H_    0.862782 0.033005 0.946712 0.134054
H111  H     H_    0.137197 0.033066 0.053271 0.134044
H112  H     H_    0.362798 0.533063 0.946728 0.134045
H113  H     H_    0.637219 0.532999 0.053289 0.134058
H114  H     H_    0.796700 0.930188 0.945290 0.115854
H115  H     H_    0.203257 0.930173 0.054734 0.115891
H116  H     H_    0.296744 0.430158 0.945258 0.115891
H117  H     H_    0.137087 0.068575 0.460286 0.125842
H118  H     H_    0.703303 0.430185 0.054708 0.115855
H119  H     H_    0.691178 0.931643 0.036271 0.088734
H120  H     H_    0.308554 0.931382 0.964006 0.088650
H121  H     H_    0.191397 0.431408 0.036048 0.088658
H122  H     H_    0.808821 0.431646 0.963725 0.088734
H123  H     H_    0.681615 0.976391 0.917534 0.105940
H124  H     H_    0.318400 0.976469 0.082607 0.105956
H125  H     H_    0.181600 0.476431 0.917417 0.105956
H126  H     H_    0.818387 0.476390 0.082464 0.105940
H127  H     H_    0.693048 0.240012 0.075273 0.127053
H128  H     H_    0.362911 0.568572 0.539717 0.125842
H129  H     H_    0.307152 0.239781 0.924861 0.127235
H130  H     H_    0.192879 0.739810 0.075155 0.127203
H131  H     H_    0.806949 0.740014 0.924728 0.127054
H132  H     H_    0.780555 0.250267 0.098229 0.095223
H133  H     H_    0.219699 0.250252 0.901696 0.095225
H134  H     H_    0.280340 0.750239 0.098286 0.095233
H135  H     H_    0.719442 0.750270 0.901772 0.095221
H136  H     H_    0.811879 0.251045 0.982587 0.097566
H137  H     H_    0.188083 0.250887 0.017200 0.097664
H138  H     H_    0.311915 0.750872 0.982766 0.097677
H139  H     H_    0.637087 0.568575 0.460286 0.125842
H140  H     H_    0.688116 0.751034 0.017414 0.097571
H141  H     H_    0.732832 0.296621 0.960812 0.120993
H142  H     H_    0.267121 0.296608 0.039186 0.120978
H143  H     H_    0.232858 0.796579 0.960813 0.120979
H144  H     H_    0.767161 0.796622 0.039190 0.120992
H145  H     H_    0.637173 0.051529 0.055779 0.135309
H146  H     H_    0.362900 0.050647 0.944277 0.135216
H147  H     H_    0.137111 0.550790 0.055732 0.135237
H148  H     H_    0.862825 0.551533 0.944218 0.135309
H149  H     H_    0.688109 0.236547 0.562487 0.139012
H150  H     H_    0.807796 0.908161 0.468822 0.127052
H151  H     H_    0.311887 0.236549 0.437518 0.139006
H152  H     H_    0.188109 0.736547 0.562487 0.139011
H153  H     H_    0.811887 0.736549 0.437518 0.139007
H154  H     H_    0.031186 0.540007 0.059781 0.139030
H155  H     H_    0.968616 0.539921 0.940308 0.138959
H156  H     H_    0.531382 0.039929 0.059692 0.138959
H157  H     H_    0.468842 0.040027 0.940206 0.139042
H158  H     H_    0.948323 0.486914 0.058029 0.133238
H159  H     H_    0.051532 0.487085 0.942078 0.133282
H160  H     H_    0.448466 0.987104 0.057905 0.133278
O1    O     O_R   0.957210 0.449410 0.665480 -0.533222
O2    O     O_R   0.167480 0.095300 0.164000 -0.541323
O3    O     O_R   0.332520 0.595300 0.836000 -0.541322
O4    O     O_R   0.667480 0.595300 0.164000 -0.541323
O5    O     O_R   0.946380 0.253940 0.826940 -0.517840
O6    O     O_R   0.053620 0.253940 0.173060 -0.517849
O7    O     O_R   0.446380 0.753940 0.826940 -0.517846
O8    O     O_R   0.553620 0.753940 0.173060 -0.517846
O9    O     O_3   0.834560 0.334570 0.748840 -0.277425
O10   O     O_3   0.165440 0.334570 0.251160 -0.277445
O11   O     O_3   0.334560 0.834570 0.748840 -0.277438
O12   O     O_R   0.042790 0.449410 0.334520 -0.533235
O13   O     O_3   0.665440 0.834570 0.251160 -0.277425
O14   O     O_R   0.820730 0.541240 0.668250 -0.515457
O15   O     O_R   0.179270 0.541240 0.331750 -0.515450
O16   O     O_R   0.320730 0.041240 0.668250 -0.515450
O17   O     O_R   0.679270 0.041240 0.331750 -0.515456
O18   O     O_R   0.714240 0.455060 0.663710 -0.532385
O19   O     O_R   0.285760 0.455060 0.336290 -0.532378
O20   O     O_R   0.214240 0.955060 0.663710 -0.532377
O21   O     O_R   0.785760 0.955060 0.336290 -0.532385
O22   O     O_R   0.736780 0.204870 0.675910 -0.514938
O23   O     O_R   0.457210 0.949410 0.665480 -0.533236
O24   O     O_R   0.263220 0.204870 0.324090 -0.514931
O25   O     O_R   0.236780 0.704870 0.675910 -0.514931
O26   O     O_R   0.763220 0.704870 0.324090 -0.514941
O27   O     O_R   0.833070 0.087590 0.673490 -0.529622
O28   O     O_R   0.166930 0.087590 0.326510 -0.529619
O29   O     O_R   0.333070 0.587590 0.673490 -0.529619
O30   O     O_R   0.666930 0.587590 0.326510 -0.529624
O31   O     O_R   0.946890 0.246800 0.676300 -0.512359
O32   O     O_R   0.053110 0.246800 0.323700 -0.512372
O33   O     O_R   0.446890 0.746800 0.676300 -0.512371
O34   O     O_R   0.542790 0.949410 0.334520 -0.533223
O35   O     O_R   0.553110 0.746800 0.323700 -0.512362
O36   O     O_R   0.956650 0.457120 0.827980 -0.536890
O37   O     O_R   0.043350 0.457120 0.172020 -0.536943
O38   O     O_R   0.456650 0.957120 0.827980 -0.536948
O39   O     O_R   0.543350 0.957120 0.172020 -0.536886
O40   O     O_R   0.820220 0.548390 0.818890 -0.513509
O41   O     O_R   0.179780 0.548390 0.181110 -0.513463
O42   O     O_R   0.320220 0.048390 0.818890 -0.513456
O43   O     O_R   0.679780 0.048390 0.181110 -0.513508
O44   O     O_R   0.713680 0.462770 0.826210 -0.536332
O45   O     O_R   0.736260 0.212010 0.826560 -0.512608
O46   O     O_R   0.286320 0.462770 0.173790 -0.536355
O47   O     O_R   0.213680 0.962770 0.826210 -0.536357
O48   O     O_R   0.786320 0.962770 0.173790 -0.536331
O49   O     O_R   0.263740 0.212010 0.173440 -0.512625
O50   O     O_R   0.236260 0.712010 0.826560 -0.512629
O51   O     O_R   0.763740 0.712010 0.173440 -0.512605
O52   O     O_R   0.832520 0.095300 0.836000 -0.541324

loop_
_geom_bond_atom_site_label_1
_geom_bond_atom_site_label_2
_ccdc_geom_bond_type
C68   H109  S    
C84   H134  S    
C113  H11   S    
Cr9   O24   S    
Cr1   O14   S    
C101  H142  S    
C110  H12   S    
C26   H45   S    
C40   H57   S    
C98   H125  S    
C82   C87   S    
Cr10  O25   S    
C105  C123  S    
Cr12  O31   S    
C37   C42   S    
C113  C122  S    
C112  H15   S    
C2    C22   S    
C68   C90   S    
C78   H119  S    
C82   H127  S    
C51   C57   S    
C91   C100  S    
C10   C125  S    
C78   H145  S    
C36   C71   S    
C79   H146  S    
C95   H123  S    
C83   C88   S    
Cr11  O26   S    
C63   O17   A    
C20   H153  S    
C128  O47   A    
C104  C105  S    
C65   C87   S    
C56   H88   S    
C21   H21   S    
C68   H100  S    
C63   C118  S    
Cr2   O6    S    
Cr3   O11   S    
C8    O5    A    
C14   H73   S    
C49   H77   S    
C25   C42   S    
C110  C123  S    
C31   H60   S    
Cr12  O9    S    
C16   C20   S    
Cr5   O41   S    
C46   H139  S    
C90   C126  S    
C81   H148  S    
C27   H47   S    
C109  H14   S    
C34   C69   S    
C112  C125  S    
C2    C52   S    
C81   C90   S    
C19   H152  S    
C23   H13   S    
C17   C34   S    
C114  H10   S    
C76   H112  S    
Cr5   O10   S    
C89   C127  S    
C68   C77   S    
C69   O27   A    
C27   C97   S    
C33   C116  S    
C49   C62   S    
C111  C124  S    
C102  H143  S    
C79   C97   S    
C8    C123  S    
C57   C61   S    
C64   C120  S    
C51   H93   S    
C86   H135  S    
C32   H63   S    
Cr10  O11   S    
C51   H81   S    
C29   H53   S    
C2    C14   S    
C3    O43   A    
C73   H114  S    
C72   O30   A    
C20   H20   S    
C106  C124  S    
C43   H106  S    
C21   H150  S    
C25   H24   S    
C104  H154  S    
Cr10  O20   S    
C30   C113  S    
C78   C87   S    
C84   C102  S    
C11   C124  S    
C54   H96   S    
C59   H91   S    
C126  O40   A    
C108  H157  S    
C85   H31   S    
Cr3   O3    S    
C86   H131  S    
C74   H34   S    
C75   H115  S    
C66   C88   S    
Cr3   O29   S    
C104  C122  S    
C120  O33   A    
C77   C94   S    
C112  H5    S    
C13   C23   S    
C60   C119  S    
C15   H84   S    
Cr9   O10   S    
C14   H102  S    
C53   C61   S    
Cr7   O13   S    
C127  O41   A    
C9    O6    A    
Cr8   O18   S    
Cr7   O39   S    
C17   H17   S    
C18   C35   S    
Cr5   O12   S    
C4    C91   S    
Cr11  O13   S    
C1    O14   A    
C66   H98   S    
Cr1   O40   S    
C22   H2    S    
C103  H140  S    
C92   C97   S    
C54   C59   S    
C74   C118  S    
C15   H103  S    
C13   C96   S    
C77   H113  S    
C8    O36   A    
Cr1   O9    S    
C21   C38   S    
C70   O28   A    
C16   H95   S    
C29   H55   S    
C46   C107  S    
C119  O32   A    
C9    O37   A    
C12   C17   S    
C58   H90   S    
C115  H9    S    
C109  C114  S    
Cr2   O28   S    
C114  C123  S    
C16   H104  S    
C104  H158  S    
C30   H58   S    
C116  C125  S    
C55   C58   S    
C55   H94   S    
C117  O1    A    
C44   C85   S    
C28   H51   S    
C103  H144  S    
Cr2   O10   S    
C53   C56   S    
Cr3   O7    S    
C33   H67   S    
C31   C114  S    
C34   C43   S    
C127  O46   A    
C128  O42   A    
Cr8   O44   S    
Cr5   O37   S    
C46   H42   S    
C32   H65   S    
C20   C37   S    
C106  C108  S    
C22   C39   S    
C49   H72   S    
C67   H99   S    
Cr6   O23   S    
C76   H116  S    
C121  O35   A    
C53   H92   S    
C91   C95   S    
Cr2   O32   S    
C41   O15   A    
C1    C24   S    
C49   C50   S    
Cr1   O1    S    
C51   C60   S    
C83   H133  S    
C10   O38   A    
C3    O48   A    
Cr8   O9    S    
C58   C62   S    
C99   H126  S    
Cr6   O16   S    
Cr6   O42   S    
C44   H40   S    
C13   C41   S    
C45   H41   S    
C54   H79   S    
C15   C19   S    
C43   H39   S    
C100  H136  S    
C101  H137  S    
C22   H22   S    
C72   O26   A    
C23   C40   S    
C85   H36   S    
C2    C85   S    
C80   C89   S    
Cr12  O52   S    
C31   H62   S    
Cr8   O45   S    
C117  O31   A    
C39   H46   S    
C30   H56   S    
C47   H75   S    
C100  H141  S    
C5    O49   A    
C42   H68   S    
C111  C116  S    
C96   H37   S    
C7    O51   A    
Cr6   O11   S    
C26   H43   S    
Cr2   O2    S    
C10   O7    A    
Cr4   O8    S    
C75   H111  S    
C79   C88   S    
C66   H107  S    
C61   C117  S    
C116  H8    S    
C29   C99   S    
Cr7   O17   S    
C54   C62   S    
C25   H25   S    
C53   H82   S    
Cr11  O48   S    
Cr7   O43   S    
C56   C60   S    
Cr4   O13   S    
C32   H64   S    
C35   C39   S    
C63   O21   A    
C21   C118  S    
C18   H18   S    
C42   H29   S    
C76   C93   S    
C57   H89   S    
Cr4   O30   S    
C48   H71   S    
C78   C95   S    
C6    C93   S    
C1    O18   A    
C9    C122  S    
C58   H85   S    
C59   H83   S    
C92   C101  S    
C12   C118  S    
C94   C103  S    
C71   O25   A    
C86   C90   S    
C40   H28   S    
Cr5   O15   S    
Cr4   O35   S    
C70   O24   A    
C28   C98   S    
C38   H26   S    
C7    C94   S    
C65   H105  S    
C115  C124  S    
C52   O16   A    
C56   H87   S    
C80   C98   S    
C4    O52   A    
C105  H155  S    
C6    O50   A    
C106  H156  S    
C93   C102  S    
C81   C99   S    
C18   H151  S    
Cr9   O46   S    
C84   H130  S    
C19   H19   S    
C38   H35   S    
C66   C75   S    
C27   H48   S    
C32   C115  S    
C121  O34   A    
C12   H101  S    
Cr4   O4    S    
C37   C72   S    
Cr11  O51   S    
C71   O29   A    
C41   O19   A    
C37   C46   S    
C108  H3    S    
C48   H76   S    
C50   C64   S    
C14   C18   S    
C109  H6    S    
C12   H1    S    
C59   C64   S    
C17   H149  S    
C79   H120  S    
C19   C36   S    
C109  C122  S    
C120  O23   A    
C50   H74   S    
C29   H54   S    
C67   C89   S    
C65   C73   S    
C82   H132  S    
C4    O45   A    
C83   H129  S    
Cr1   O36   S    
C97   H124  S    
C44   H117  S    
C33   H69   S    
C45   H128  S    
Cr11  O21   S    
C35   C70   S    
Cr8   O22   S    
Cr6   O38   S    
C108  C125  S    
C5    O2    A    
C7    O4    A    
C43   C74   S    
Cr12  O5    S    
C47   C60   S    
C81   H122  S    
C16   C24   S    
C65   H97   S    
C102  H138  S    
C86   C103  S    
C28   H52   S    
C23   H23   S    
C33   H66   S    
C31   H61   S    
Cr10  O50   S    
C3    C87   S    
C36   C40   S    
C24   C25   S    
C73   C91   S    
C24   C107  S    
C107  H33   S    
C50   H78   S    
C67   H108  S    
C47   C48   S    
C55   C64   S    
C36   C45   S    
C35   C44   S    
C110  C113  S    
C111  H4    S    
C57   H86   S    
C69   O22   A    
C77   H118  S    
C13   C15   S    
C107  H38   S    
C96   H32   S    
C84   C89   S    
C110  H7    S    
C75   C92   S    
C73   H110  S    
C111  H16   S    
C26   C95   S    
C80   H147  S    
C11   O8    A    
C34   C38   S    
C82   C100  S    
C80   H121  S    
C55   H80   S    
C105  H159  S    
C119  O12   A    
C88   C128  S    
Cr9   O19   S    
C28   H50   S    
C48   C61   S    
C126  O44   A    
C94   C99   S    
Cr7   O34   S    
Cr12  O27   S    
Cr10  O47   S    
C30   H59   S    
C62   C121  S    
C39   H27   S    
C74   H30   S    
C5    C92   S    
C6    O3    A    
Cr3   O33   S    
Cr9   O49   S    
C52   O20   A    
C47   H70   S    
C83   C101  S    
C67   C76   S    
C27   H49   S    
C11   O39   A    
C45   C96   S    
C106  H160  S    
C93   C98   S    
C112  C115  S    
C26   H44   S    
