data_mof_unit_4497.cif
_audit_creation_date              2012-12-10T19:10:07-0500
_audit_creation_method            fapswitch 2.2
_symmetry_space_group_name_H-M    P1
_symmetry_Int_Tables_number       1
_space_group_crystal_system       triclinic
_cell_length_a                    10.868129
_cell_length_b                    10.841281
_cell_length_c                    9.537985
_cell_angle_alpha                 90.512665
_cell_angle_beta                  90.441752
_cell_angle_gamma                 89.676325
_cell_volume                      1123.71186035

loop_
_atom_site_label
_atom_site_type_symbol
_atom_type_description
_atom_site_fract_x
_atom_site_fract_y
_atom_site_fract_z
_atom_type_partial_charge
C1    C     C_R   0.492342 0.262649 0.499187 0.788204
C2    C     C_R   0.231826 0.728400 0.035767 -0.193459
C3    C     C_R   0.932731 0.548452 0.389016 -0.257332
C4    C     C_R   0.872428 0.495277 0.502997 -0.084024
C5    C     C_R   0.942515 0.447566 0.616535 0.002748
C6    C     C_R   0.069746 0.454233 0.611985 -0.250748
C7    C     C_R   0.129123 0.505683 0.497841 -0.049078
C8    C     C_R   0.060405 0.554276 0.385047 0.057175
C9    C     C_R   0.907868 0.436499 0.873833 -0.182674
C10   C     C_R   0.878107 0.370089 0.993699 -0.143419
C11   C     C_R   0.840949 0.247634 0.981350 -0.097724
C12   C     C_R   0.262564 0.503793 0.499189 0.812331
C13   C     C_R   0.832437 0.192155 0.849103 -0.166219
C14   C     C_R   0.854718 0.260560 0.728072 -0.147055
C15   C     C_R   0.891856 0.383945 0.739673 0.151251
C16   C     C_R   0.463412 0.065736 0.622628 0.036484
C17   C     C_R   0.471680 0.130341 0.497240 -0.076599
C18   C     C_R   0.464269 0.063907 0.369928 -0.230700
C19   C     C_R   0.468304 0.934854 0.370355 -0.196955
C20   C     C_R   0.482179 0.871268 0.497758 -0.066549
C21   C     C_R   0.476236 0.938969 0.622064 0.038953
C22   C     C_3   0.558919 0.943755 0.749038 0.325240
C23   C     C_R   0.496966 0.737919 0.499911 0.821484
C24   C     C_3   0.536260 0.081985 0.754631 -0.513915
C25   C     C_R   0.542443 0.599449 0.075504 0.283502
C26   C     C_R   0.446288 0.407495 0.072996 -0.064961
C27   C     C_R   0.446403 0.407417 0.924105 -0.081204
C28   C     C_R   0.540975 0.600381 0.927988 0.233652
C29   C     C_3   0.667096 0.652709 0.925341 -0.486556
C30   C     C_3   0.669181 0.649430 0.083717 -0.529541
C31   C     C_R   0.738013 0.496113 0.501019 0.796442
C32   C     C_R   0.218686 0.793288 0.162052 -0.223181
C33   C     C_R   0.160859 0.738235 0.276905 0.542645
C34   C     C_R   0.118518 0.615936 0.264679 0.030347
C35   C     C_R   0.132799 0.551406 0.137550 -0.223149
C36   C     C_R   0.188744 0.607695 0.023475 -0.128689
Cu1   Cu    Cu3+1 0.499990 0.499980 0.640670 0.955322
Cu2   Cu    Cu3+1 0.500010 0.500020 0.359330 0.947810
H1    H     H_    0.276480 0.771306 0.947777 0.144185
H2    H     H_    0.809608 0.095577 0.841069 0.181959
H3    H     H_    0.463233 0.110967 0.270242 0.151926
H4    H     H_    0.468343 0.885898 0.270915 0.153907
H5    H     H_    0.517067 0.896244 0.839605 0.078241
H6    H     H_    0.477218 0.111002 0.843791 0.151131
H7    H     H_    0.618034 0.140115 0.739803 0.221251
H8    H     H_    0.404242 0.331751 0.127494 0.129369
H9    H     H_    0.253825 0.886245 0.170962 0.136153
H10   H     H_    0.404146 0.331818 0.867409 0.136701
H11   H     H_    0.733257 0.590489 0.873766 0.233416
H12   H     H_    0.668442 0.747433 0.886837 0.247389
H13   H     H_    0.736377 0.581610 0.125448 0.215504
H14   H     H_    0.671895 0.742427 0.133682 0.190076
H15   H     H_    0.103003 0.456657 0.127908 0.142333
H16   H     H_    0.199916 0.557203 0.925933 0.151200
H17   H     H_    0.943750 0.529092 0.885346 0.140532
H18   H     H_    0.887132 0.412243 0.096422 0.128027
N1    N     N_R   0.500790 0.500930 0.147930 -0.179553
N2    N     N_R   0.500790 0.500890 0.852020 -0.180499
O1    O     O_R   0.500000 0.319640 0.618810 -0.583246
O2    O     O_R   0.500010 0.319680 0.381230 -0.594934
O3    O     O_R   0.319640 0.499990 0.618790 -0.595218
O4    O     O_R   0.319650 0.500030 0.381210 -0.579589
O5    O     O_R   0.499990 0.680320 0.618770 -0.574274
O6    O     O_R   0.500000 0.680360 0.381190 -0.589869
O7    O     O_R   0.680350 0.499970 0.618790 -0.568287
O8    O     O_R   0.680360 0.500010 0.381210 -0.588961
H19   H     H_    0.821393 0.194926 0.074338 0.122005
H20   H     H_    0.849304 0.215830 0.626253 0.100710
O9    O     O_3   0.685676 0.910668 0.732503 -0.589233
C37   C     C_3   0.739875 0.941504 0.602989 -0.305134
H21   H     H_    0.707170 0.030300 0.559304 0.156180
H22   H     H_    0.726774 0.865566 0.525783 0.163534
H23   H     H_    0.840434 0.950600 0.620050 0.168657
O10   O     O_3   0.154153 0.799788 0.404203 -0.590090
C38   C     C_3   0.059548 0.888955 0.396376 -0.354732
H24   H     H_    0.969205 0.845675 0.371275 0.153717
H25   H     H_    0.081067 0.961598 0.318790 0.159782
H26   H     H_    0.051351 0.934832 0.500308 0.192382
H27   H     H_    0.880402 0.588952 0.304013 0.140761
H28   H     H_    0.123248 0.415032 0.697433 0.152728

loop_
_geom_bond_atom_site_label_1
_geom_bond_atom_site_label_2
_ccdc_geom_bond_type
C27   H10   S    
C31   O8    A    
C30   H13   S    
C16   C21   A    
C35   H15   S    
C19   C20   A    
C3    H27   S    
C7    C8    A    
C29   H11   S    
C25   C28   A    
C26   C27   A    
Cu1   Cu2   S    
C24   H7    S    
C28   C29   S    
C18   C19   A    
C1    O1    A    
C5    C6    A    
C2    C32   A    
C34   C35   A    
C13   H2    S    
C2    H1    S    
Cu2   O8    S    
C16   C17   A    
Cu1   O7    S    
C37   H21   S    
C9    H17   S    
C10   H18   S    
C9    C10   A    
C22   O9    S    
Cu1   N2    S    
C19   H4    S    
C23   O5    A    
C16   C24   S    
C21   C22   S    
C25   N1    A    
Cu1   O5    S    
C11   H19   S    
C33   C34   A    
Cu2   O6    S    
C29   H12   S    
C7    C12   S    
O10   C38   S    
C3    C8    A    
C18   H3    S    
C38   H26   S    
C35   C36   A    
C38   H24   S    
C29   C30   S    
Cu2   N1    S    
C12   O4    A    
C6    H28   S    
C22   H5    S    
C20   C23   S    
C37   H23   S    
C17   C18   A    
C8    C34   S    
C38   H25   S    
Cu1   O1    S    
Cu2   O2    S    
C23   O6    A    
C24   H6    S    
C32   H9    S    
C22   C24   S    
C1    O2    A    
C3    C4    A    
C2    C36   A    
C25   C30   S    
C31   O7    A    
C30   H14   S    
C4    C5    A    
C27   N2    A    
Cu1   O3    S    
C6    C7    A    
C28   N2    A    
C1    C17   S    
C32   C33   A    
C9    C15   A    
C12   O3    A    
C11   C13   A    
O9    C37   S    
C26   N1    A    
C5    C15   S    
C4    C31   S    
C36   H16   S    
C10   C11   A    
C26   H8    S    
C33   O10   S    
C20   C21   A    
C14   H20   S    
C14   C15   A    
C37   H22   S    
C13   C14   A    
Cu2   O4    S    
