data_mof_unit_3592.cif
_audit_creation_date              2013-03-05T16:04:52-0500
_audit_creation_method            fapswitch 2.2
_symmetry_space_group_name_H-M    P1
_symmetry_Int_Tables_number       1
_space_group_crystal_system       triclinic
_cell_length_a                    16.11712
_cell_length_b                    14.684979
_cell_length_c                    9.586937
_cell_angle_alpha                 89.999687
_cell_angle_beta                  90.000025
_cell_angle_gamma                 89.999987
_cell_volume                      2269.03211467

loop_
_atom_site_label
_atom_site_type_symbol
_atom_site_description
_atom_site_fract_x
_atom_site_fract_y
_atom_site_fract_z
_atom_type_partial_charge
O1    O     O_R   0.090170 0.409820 0.618740 -0.523712
O2    O     O_R   0.909830 0.590180 0.381260 -0.535355
O3    O     O_R   0.909830 0.590180 0.618740 -0.523716
O4    O     O_R   0.090170 0.409820 0.381260 -0.535353
O5    O     O_R   0.909830 0.409820 0.381260 -0.523714
O6    O     O_R   0.090170 0.590180 0.618740 -0.535361
O7    O     O_R   0.090170 0.590180 0.381260 -0.523713
O8    O     O_R   0.909830 0.409820 0.618740 -0.535351
O9    O     O_R   0.590170 0.909820 0.618740 -0.535351
O10   O     O_R   0.409830 0.090180 0.381260 -0.523713
O11   O     O_R   0.409830 0.090180 0.618740 -0.535353
O12   O     O_R   0.590170 0.909820 0.381260 -0.523714
O13   O     O_R   0.409830 0.909820 0.381260 -0.535353
O14   O     O_R   0.590170 0.090180 0.618740 -0.523714
O15   O     O_R   0.590170 0.090180 0.381260 -0.535351
O16   O     O_R   0.409830 0.909820 0.618740 -0.523713
C1    C     C_R   0.122777 0.385869 0.500733 0.905135
C2    C     C_R   0.877222 0.614129 0.500733 0.905126
C3    C     C_R   0.877223 0.385869 0.499267 0.905133
C4    C     C_R   0.122777 0.614130 0.499267 0.905126
C5    C     C_R   0.622777 0.885869 0.499267 0.905133
C6    C     C_R   0.377223 0.114131 0.499267 0.905134
C7    C     C_R   0.377223 0.885869 0.500733 0.905134
C8    C     C_R   0.622777 0.114131 0.500733 0.905132
N1    N     N_R   0.000000 0.500000 0.852070 -0.305064
N2    N     N_R   0.000000 0.500000 0.147930 -0.305062
N3    N     N_R   0.500000 0.000000 0.852070 -0.305061
N4    N     N_R   0.500000 0.000000 0.147930 -0.305061
Cu1   Cu    Cu3+1 0.000000 0.500000 0.640660 1.160857
Cu2   Cu    Cu3+1 1.000000 0.500000 0.359340 1.160857
Cu3   Cu    Cu3+1 0.500000 0.000000 0.640660 1.160859
Cu4   Cu    Cu3+1 0.500000 0.000000 0.359340 1.160859
C9    C     C_R   0.005823 0.419996 0.073322 0.329965
C10   C     C_R   0.005823 0.580003 0.926677 0.329970
C11   C     C_R   0.994177 0.580004 0.073320 0.329967
C12   C     C_R   0.994177 0.419996 0.926680 0.329963
C13   C     C_R   0.494177 0.919996 0.073322 0.329965
C14   C     C_R   0.494177 0.080003 0.926678 0.329965
C15   C     C_R   0.505823 0.080003 0.073320 0.329962
C16   C     C_R   0.505823 0.919996 0.926680 0.329961
C17   C     C_R   0.783225 0.277936 0.371784 0.353225
C18   C     C_R   0.233261 0.700835 0.622484 0.324587
C19   C     C_R   0.216775 0.722063 0.371783 0.353227
C20   C     C_R   0.766742 0.299159 0.622486 0.324588
C21   C     C_R   0.216773 0.277933 0.628216 0.353225
C22   C     C_R   0.766741 0.700839 0.377513 0.324589
C23   C     C_R   0.783220 0.722057 0.628217 0.353229
C24   C     C_R   0.233259 0.299161 0.377515 0.324587
C25   C     C_R   0.266742 0.799159 0.377515 0.324586
C26   C     C_R   0.716775 0.222063 0.628216 0.353224
C27   C     C_R   0.733258 0.200841 0.377514 0.324588
C28   C     C_R   0.283228 0.777931 0.628216 0.353224
C29   C     C_R   0.733255 0.799155 0.622487 0.324587
C30   C     C_R   0.283226 0.222065 0.371784 0.353225
C31   C     C_R   0.266741 0.200838 0.622485 0.324587
C32   C     C_R   0.716774 0.777936 0.371784 0.353225
C33   C     C_R   0.193671 0.677207 0.496756 -0.360158
C34   C     C_R   0.806331 0.322791 0.496757 -0.360158
C35   C     C_R   0.806328 0.677206 0.503243 -0.360160
C36   C     C_R   0.193669 0.322791 0.503243 -0.360158
C37   C     C_R   0.693670 0.177209 0.503243 -0.360159
C38   C     C_R   0.306332 0.822789 0.503243 -0.360157
C39   C     C_R   0.306330 0.177209 0.496756 -0.360158
C40   C     C_R   0.693668 0.822789 0.496758 -0.360159
N5    N     N_R   0.031163 0.335813 0.137513 0.185458
O17   O     O_R   0.087406 0.286430 0.076234 -0.195188
O18   O     O_R   0.986938 0.297728 0.234192 -0.263016
N6    N     N_R   0.031162 0.664185 0.862484 0.185448
O19   O     O_R   0.087414 0.713564 0.923751 -0.195194
O20   O     O_R   0.986922 0.702279 0.765829 -0.263006
N7    N     N_R   0.968838 0.664187 0.137509 0.185454
O21   O     O_R   0.912593 0.713569 0.076232 -0.195185
O22   O     O_R   0.013067 0.702274 0.234183 -0.263013
N8    N     N_R   0.968836 0.335813 0.862491 0.185459
O23   O     O_R   0.912595 0.286428 0.923774 -0.195184
O24   O     O_R   0.013058 0.297730 0.765805 -0.263018
N9    N     N_R   0.468837 0.835813 0.137513 0.185457
O25   O     O_R   0.513062 0.797728 0.234191 -0.263016
O26   O     O_R   0.412593 0.786430 0.076235 -0.195187
N10   N     N_R   0.468836 0.164187 0.862487 0.185457
O27   O     O_R   0.513062 0.202272 0.765808 -0.263016
O28   O     O_R   0.412593 0.213570 0.923765 -0.195188
N11   N     N_R   0.531164 0.164187 0.137509 0.185459
O29   O     O_R   0.486940 0.202270 0.234192 -0.263016
O30   O     O_R   0.587405 0.213571 0.076228 -0.195185
N12   N     N_R   0.531164 0.835813 0.862491 0.185461
O31   O     O_R   0.486943 0.797731 0.765804 -0.263018
O32   O     O_R   0.587403 0.786427 0.923776 -0.195181
Cl1   Cl    Cl    0.804798 0.322342 0.203700 -0.306946
Cl2   Cl    Cl    0.231899 0.627695 0.769810 -0.341893
Cl3   Cl    Cl    0.195204 0.677659 0.203699 -0.306941
Cl4   Cl    Cl    0.768107 0.372294 0.769817 -0.341888
Cl5   Cl    Cl    0.195198 0.322335 0.796300 -0.306943
Cl6   Cl    Cl    0.768106 0.627705 0.230182 -0.341887
Cl7   Cl    Cl    0.804786 0.677645 0.796299 -0.306941
Cl8   Cl    Cl    0.231895 0.372299 0.230185 -0.341894
Cl9   Cl    Cl    0.268105 0.872297 0.230185 -0.341896
Cl10  Cl    Cl    0.695202 0.177658 0.796300 -0.306948
Cl11  Cl    Cl    0.731893 0.127705 0.230183 -0.341892
Cl12  Cl    Cl    0.304803 0.822332 0.796300 -0.306945
Cl13  Cl    Cl    0.731891 0.872288 0.769820 -0.341890
Cl14  Cl    Cl    0.304800 0.177663 0.203700 -0.306945
Cl15  Cl    Cl    0.268105 0.127700 0.769814 -0.341897
Cl16  Cl    Cl    0.695203 0.822343 0.203701 -0.306947

loop_
_geom_bond_atom_site_label_1
_geom_bond_atom_site_label_2
_geom_bond_distance
_ccdc_geom_bond_type
C17   Cl1   1.772775 S    
C21   C36   1.417047 A    
C8    C37   1.471092 S    
C22   C35   1.407274 A    
O2    C2    1.308352 A    
O13   Cu4   1.977356 S    
C20   C34   1.407275 A    
C27   C37   1.407275 A    
O14   Cu3   1.977354 S    
C21   Cl5   1.772776 S    
C9    N5    1.440055 S    
O15   Cu4   1.977355 S    
N9    O25   1.296116 A    
O10   C6    1.296064 A    
O16   Cu3   1.977357 S    
C24   C30   1.390442 A    
N8    O24   1.296121 A    
O8    Cu1   1.977357 S    
C17   C34   1.417048 A    
C13   C16   1.418328 A    
C14   C15   1.418328 A    
C29   C40   1.407276 A    
N12   O32   1.301055 A    
C30   C39   1.417046 A    
N3    C14   1.378653 A    
O14   C8    1.296063 A    
C31   Cl15  1.774538 S    
C9    C12   1.418329 A    
O13   C7    1.308352 A    
O3    C2    1.296063 A    
C10   C11   1.418329 A    
C16   N12   1.440058 S    
O3    Cu1   1.977354 S    
C5    C40   1.471096 S    
C6    C39   1.471092 S    
C7    C38   1.471094 S    
N11   O29   1.296116 A    
C29   Cl13  1.774535 S    
N6    O19   1.301058 A    
N5    O18   1.296114 A    
C31   C39   1.407275 A    
C32   C40   1.417048 A    
C20   Cl4   1.774537 S    
N1    C10   1.378647 A    
C23   C29   1.390442 A    
O11   Cu3   1.977354 S    
O7    Cu2   1.977355 S    
O12   Cu4   1.977354 S    
C27   Cl11  1.774537 S    
C18   C33   1.407272 A    
C24   C36   1.407276 A    
N9    O26   1.301055 A    
C3    C34   1.471093 S    
N1    Cu1   2.026774 S    
C26   Cl10  1.772777 S    
O8    C3    1.308351 A    
N8    O23   1.301056 A    
N3    Cu3   2.026774 S    
N4    Cu4   2.026775 S    
C32   Cl16  1.772776 S    
N10   O28   1.301056 A    
C10   N6    1.440049 S    
N7    O22   1.296123 A    
O9    Cu3   1.977356 S    
N12   O31   1.296115 A    
C19   C25   1.390441 A    
N1    C12   1.378657 A    
N4    C15   1.378654 A    
C13   N9    1.440055 S    
O12   C5    1.296064 A    
C28   Cl12  1.772775 S    
C19   Cl3   1.772777 S    
C18   Cl2   1.774536 S    
Cu1   Cu2   2.696997 S    
N2    C11   1.378656 A    
N2    C9    1.378654 A    
Cu3   Cu4   2.696997 S    
C22   Cl6   1.774535 S    
N3    C16   1.378657 A    
O1    Cu1   1.977356 S    
C12   N8    1.440056 S    
O4    C1    1.308351 A    
O15   C8    1.308352 A    
N11   O30   1.301054 A    
N2    Cu2   2.026775 S    
O16   C7    1.296063 A    
O5    Cu2   1.977356 S    
C20   C26   1.390442 A    
C25   C38   1.407276 A    
C24   Cl8   1.774538 S    
C30   Cl14  1.772776 S    
N10   O27   1.296116 A    
O5    C3    1.296063 A    
O6    C4    1.308351 A    
O11   C6    1.308350 A    
O1    C1    1.296064 A    
O2    Cu2   1.977356 S    
C15   N11   1.440057 S    
N7    O21   1.301057 A    
C28   C38   1.417048 A    
O9    C5    1.308351 A    
C14   N10   1.440055 S    
N4    C13   1.378654 A    
N5    O17   1.301054 A    
C23   C35   1.417045 A    
C25   Cl9   1.774537 S    
C19   C33   1.417046 A    
C1    C36   1.471092 S    
C11   N7    1.440052 S    
O10   Cu4   1.977356 S    
C2    C35   1.471093 S    
O6    Cu1   1.977354 S    
C21   C31   1.390443 A    
N6    O20   1.296127 A    
O7    C4    1.296063 A    
C22   C32   1.390444 A    
C26   C37   1.417048 A    
C23   Cl7   1.772779 S    
C4    C33   1.471093 S    
C17   C27   1.390441 A    
O4    Cu2   1.977354 S    
C18   C28   1.390443 A    
