data_mof_unit_3680.cif
_audit_creation_date              2012-12-10T17:44:28-0500
_audit_creation_method            fapswitch 2.2
_symmetry_space_group_name_H-M    P1
_symmetry_Int_Tables_number       1
_space_group_crystal_system       triclinic
_cell_length_a                    9.915448
_cell_length_b                    10.700315
_cell_length_c                    15.426905
_cell_angle_alpha                 91.10082
_cell_angle_beta                  67.324249
_cell_angle_gamma                 87.572688
_cell_volume                      1507.77332163

loop_
_atom_site_label
_atom_site_type_symbol
_atom_type_description
_atom_site_fract_x
_atom_site_fract_y
_atom_site_fract_z
_atom_type_partial_charge
C1    C     C_R   0.500467 0.739991 0.493010 0.915080
C2    C     C_R   0.750001 0.486017 0.024121 0.057983
C3    C     C_R   0.607407 0.540152 0.079811 0.014937
C4    C     C_R   0.408149 0.502308 0.676246 0.843376
C5    C     C_R   0.845733 0.450272 0.069633 0.135698
C6    C     C_R   0.795758 0.460488 0.167724 -0.257296
C7    C     C_R   0.561415 0.545405 0.177641 -0.230734
C8    C     C_R   0.226683 0.904986 0.520669 -0.211827
C9    C     C_R   0.097010 0.979000 0.564328 0.422303
C10   C     C_R   0.097917 0.089394 0.612975 -0.181193
C11   C     C_R   0.230739 0.134368 0.606580 -0.178276
C12   C     C_R   0.429939 0.552596 0.907408 0.071939
C13   C     C_R   0.364007 0.069611 0.549525 0.081810
C14   C     C_R   0.361826 0.946294 0.519119 -0.016770
C15   C     C_R   0.496982 0.873941 0.483207 -0.219277
C16   C     C_R   0.498426 0.260819 0.507016 0.897140
C17   C     C_R   0.630697 0.933044 0.451321 0.424064
C18   C     C_R   0.629967 0.060008 0.466275 -0.208062
C19   C     C_R   0.498180 0.127943 0.514862 -0.182989
C20   C     C_R   0.776162 0.654692 0.632418 -0.084898
C21   C     C_R   0.802588 0.720718 0.702408 -0.131247
C22   C     C_R   0.942250 0.718293 0.702523 -0.140087
C23   C     C_R   0.298193 0.624499 0.957911 0.142389
C24   C     C_R   0.055865 0.649608 0.632729 -0.141301
C25   C     C_R   0.030382 0.574109 0.565564 0.167403
C26   C     C_R   0.885936 0.575239 0.565366 0.198310
C27   C     C_R   0.969253 0.428108 0.437540 -0.098040
C28   C     C_R   0.592091 0.500343 0.323750 0.889129
C29   C     C_R   0.112361 0.428277 0.437482 -0.091675
C30   C     C_R   0.352137 0.525243 0.777686 -0.031234
C31   C     C_R   0.652423 0.503432 0.221391 -0.065470
C32   C     C_R   0.195343 0.646079 0.916518 -0.180017
C33   C     C_R   0.224483 0.599614 0.825642 -0.133638
C34   C     C_R   0.540465 0.538938 0.943919 0.004124
C35   C     C_R   0.447150 0.494888 0.821635 -0.248479
C36   C     C_R   0.508062 0.577085 0.037833 0.058720
C37   C     C_R   0.376629 0.649888 0.087127 -0.252256
C38   C     C_R   0.273344 0.674467 0.047686 0.044342
C39   C     C_R   0.683462 0.491314 0.888338 -0.287172
C40   C     C_R   0.787678 0.466552 0.926351 0.381649
Cl1   Cl    Cl    0.800138 0.854811 0.382122 -0.574340
Cl2   Cl    Cl    0.935230 0.938878 0.552672 -0.613657
Cl3   Cl    Cl    0.958381 0.402607 0.846033 -0.658955
H1    H     H_    0.220719 0.822237 0.481563 0.203510
H2    H     H_    0.162969 0.659863 0.631578 0.190861
H3    H     H_    0.199256 0.369464 0.386462 0.155202
H4    H     H_    0.867544 0.429141 0.201984 0.153548
H5    H     H_    0.094950 0.702347 0.952644 0.174823
H6    H     H_    0.150425 0.625536 0.791991 0.164551
H7    H     H_    0.538039 0.429002 0.785173 0.161841
H8    H     H_    0.353486 0.693463 0.155394 0.155791
H9    H     H_    0.719094 0.475612 0.813314 0.188173
H10   H     H_    0.086978 0.705033 0.163164 0.222835
H11   H     H_    0.171694 0.835945 0.116446 0.211050
H12   H     H_    0.997142 0.144545 0.650483 0.190922
H13   H     H_    0.063521 0.451465 0.036695 0.194387
H14   H     H_    0.998373 0.307694 0.040701 0.197334
H15   H     H_    0.229017 0.223280 0.641834 0.195826
H16   H     H_    0.732093 0.106375 0.436160 0.203101
H17   H     H_    0.948698 0.369312 0.386595 0.139436
H18   H     H_    0.669702 0.671469 0.632241 0.195443
H19   H     H_    0.715537 0.778569 0.754333 0.158199
H20   H     H_    0.450389 0.574735 0.222128 0.160686
H21   H     H_    0.963990 0.774250 0.754437 0.146401
N1    N     N_R   0.856800 0.501200 0.500850 -0.113134
N2    N     N_R   0.142390 0.501280 0.500880 -0.124316
N3    N     N_3   0.142020 0.748723 0.100060 -0.457097
N4    N     N_3   0.991352 0.398635 0.018573 -0.375972
O1    O     O_R   0.385310 0.683220 0.500000 -0.660695
O2    O     O_R   0.614640 0.683250 0.500010 -0.571034
O3    O     O_R   0.319840 0.499980 0.632240 -0.618259
O4    O     O_R   0.549160 0.500000 0.632250 -0.646407
O5    O     O_R   0.385360 0.316750 0.499990 -0.610289
O6    O     O_R   0.614690 0.316780 0.500000 -0.613234
O7    O     O_R   0.450840 0.500000 0.367750 -0.622227
O8    O     O_R   0.680160 0.500020 0.367760 -0.597384
Zn1   Zn    Zn3+2 0.346880 0.499980 0.499990 0.939766
Zn2   Zn    Zn3+2 0.653120 0.500020 0.500010 0.974858

loop_
_geom_bond_atom_site_label_1
_geom_bond_atom_site_label_2
_ccdc_geom_bond_type
O2    Zn2   S    
O1    Zn1   S    
C4    O4    A    
C12   C23   A    
C9    Cl2   S    
C30   C35   A    
C16   O6    A    
C24   H2    S    
C36   C37   A    
O8    Zn2   S    
C3    C7    A    
C27   H17   S    
C5    C6    A    
C37   H8    S    
C27   C29   A    
C33   H6    S    
C18   C19   A    
C20   H18   S    
O4    Zn2   S    
C40   Cl3   S    
C8    C9    A    
C1    C15   S    
C11   H15   S    
C9    C10   A    
C6    C31   A    
C13   C14   A    
C32   H5    S    
C5    N4    S    
C7    C31   A    
C6    H4    S    
C13   C19   A    
C16   O5    A    
C24   C25   A    
C39   C40   A    
H11   N3    S    
C25   C26   A    
H13   N4    S    
C1    O1    A    
C34   C39   A    
C37   C38   A    
C27   N1    A    
C35   H7    S    
C17   C18   A    
C20   C21   A    
C12   C35   A    
C10   H12   S    
O7    Zn1   S    
C7    H20   S    
C21   H19   S    
C22   C24   A    
C2    C5    A    
H14   N4    S    
C12   C34   A    
C28   O8    A    
O3    Zn1   S    
C15   C17   A    
N2    Zn1   S    
C8    C14   A    
N1    Zn2   S    
C30   C33   A    
C26   N1    A    
C28   C31   S    
C25   N2    A    
C8    H1    S    
C23   C38   A    
C1    O2    A    
C29   H3    S    
C23   C32   A    
C2    C3    A    
C32   C33   A    
C11   C13   A    
C20   C26   A    
C3    C36   A    
C16   C19   S    
C39   H9    S    
C34   C36   A    
H10   N3    S    
C17   Cl1   S    
C10   C11   A    
C22   H21   S    
C29   N2    A    
C2    C40   A    
C18   H16   S    
C38   N3    S    
O6    Zn2   S    
O5    Zn1   S    
C14   C15   A    
C21   C22   A    
C28   O7    A    
C4    O3    A    
C4    C30   S    
