data_mof_unit_957.cif
_audit_creation_date              2012-12-11T17:08:34-0500
_audit_creation_method            fapswitch 2.2
_symmetry_space_group_name_H-M    P1
_symmetry_Int_Tables_number       1
_space_group_crystal_system       triclinic
_cell_length_a                    6.981742
_cell_length_b                    14.561157
_cell_length_c                    16.047971
_cell_angle_alpha                 89.939366
_cell_angle_beta                  89.942425
_cell_angle_gamma                 89.984061
_cell_volume                      1631.4709018

loop_
_atom_site_label
_atom_site_type_symbol
_atom_type_description
_atom_site_fract_x
_atom_site_fract_y
_atom_site_fract_z
_atom_type_partial_charge
O1    O     O_R   0.505700 0.583890 0.413310 -0.531247
O2    O     O_R   0.175960 0.594920 0.586080 -0.549884
O3    O     O_R   0.005660 0.416110 0.586690 -0.541219
C1    C     C_R   0.344677 0.616767 0.614887 0.687515
O4    O     O_R   0.175980 0.594920 0.413930 -0.543646
O5    O     O_R   0.005680 0.416110 0.413310 -0.526829
C2    C     C_R   0.344941 0.617793 0.385998 0.742257
O6    O     O_R   0.505680 0.583890 0.586690 -0.546142
O7    O     O_3   0.339200 0.441330 0.500000 -0.356440
V1    V     V_3+5 0.064350 0.510880 0.500000 1.442319
O8    O     O_R   0.675960 0.405080 0.413920 -0.529724
C3    C     C_R   0.844924 0.383484 0.384835 0.726929
O9    O     O_R   0.675940 0.405080 0.586070 -0.530246
C4    C     C_R   0.844259 0.385068 0.616268 0.709457
V2    V     V_3+5 0.564340 0.489120 0.500000 1.470708
O10   O     O_3   0.839360 0.558670 0.500000 -0.384677
C5    C     C_R   0.991803 0.248712 0.685778 0.065134
C6    C     C_R   0.851621 0.317684 0.685677 -0.187882
C7    C     C_R   0.712230 0.315448 0.750891 0.368481
C8    C     C_R   0.722334 0.246962 0.813114 -0.157499
H1    H     H_    0.616836 0.247409 0.862677 0.144891
C9    C     C_R   0.875956 0.184309 0.816516 -0.160384
C10   C     C_R   0.005111 0.184684 0.749904 0.073303
C11   C     C_3   0.218840 0.185637 0.748924 -0.428641
C12   C     C_3   0.205161 0.256234 0.678761 -0.172863
H2    H     H_    0.278939 0.118022 0.730018 0.176382
H3    H     H_    0.280023 0.214319 0.807272 0.185920
H4    H     H_    0.258445 0.325365 0.696364 0.157671
C13   C     C_R   0.718606 0.187047 0.237588 0.092649
C14   C     C_R   0.881039 0.180978 0.186349 -0.077009
C15   C     C_R   0.034961 0.240030 0.204063 -0.163325
H5    H     H_    0.159634 0.240305 0.164310 0.137665
C16   C     C_R   0.023416 0.304259 0.269299 -0.143806
H6    H     H_    0.138748 0.351282 0.278851 0.164411
C17   C     C_R   0.857621 0.313396 0.317796 -0.098165
C18   C     C_R   0.704931 0.255132 0.298948 0.056442
C19   C     C_3   0.508559 0.281562 0.271529 -0.213697
C20   C     C_3   0.516996 0.201733 0.210428 -0.447969
H7    H     H_    0.403532 0.272530 0.322877 0.136398
H8    H     H_    0.504702 0.220689 0.143474 0.201070
H9    H     H_    0.424230 0.143137 0.229089 0.158274
C21   C     C_R   0.510417 0.746225 0.689803 -0.005505
C22   C     C_R   0.353235 0.687015 0.681696 -0.101621
C23   C     C_R   0.203727 0.696134 0.740090 -0.130914
H10   H     H_    0.081535 0.650677 0.737371 0.130486
C24   C     C_R   0.217437 0.759116 0.806489 -0.096654
H11   H     H_    0.107686 0.760239 0.853654 0.187550
C25   C     C_R   0.378165 0.816142 0.815774 -0.154840
C26   C     C_R   0.522090 0.809630 0.755304 0.028407
C27   C     C_3   0.729393 0.788004 0.767826 0.627003
C28   C     C_3   0.717376 0.721382 0.695063 -0.399406
H12   H     H_    0.739686 0.648168 0.712352 0.128037
H13   H     H_    0.797919 0.744123 0.638908 0.179020
C29   C     C_R   0.500905 0.681511 0.256954 0.100771
C30   C     C_R   0.352993 0.683963 0.315873 -0.117004
C31   C     C_R   0.204505 0.747799 0.301973 -0.188613
H14   H     H_    0.084384 0.751380 0.344436 0.125854
C32   C     C_R   0.216070 0.811999 0.236207 -0.124803
H15   H     H_    0.104430 0.863144 0.230264 0.124477
C33   C     C_R   0.375418 0.813550 0.181876 -0.113257
C34   C     C_R   0.510675 0.743350 0.191183 0.080096
C35   C     C_3   0.724580 0.744781 0.193518 -0.214073
C36   C     C_3   0.713103 0.677032 0.266347 -0.440398
H16   H     H_    0.781999 0.813160 0.211312 0.114245
H17   H     H_    0.760792 0.706861 0.326525 0.160210
H18   H     H_    0.770068 0.607225 0.252997 0.197561
O11   O     O_R   0.229000 0.916070 0.913330 -0.534712
O12   O     O_R   0.558770 0.905070 0.086080 -0.543240
O13   O     O_R   0.729000 0.083900 0.086690 -0.541357
C37   C     C_R   0.389677 0.883248 0.114867 0.702565
O14   O     O_R   0.558720 0.905070 0.913930 -0.531215
O15   O     O_R   0.728960 0.083900 0.913310 -0.546568
C38   C     C_R   0.389916 0.882785 0.885484 0.721001
O16   O     O_R   0.229050 0.916070 0.086710 -0.523076
O17   O     O_3   0.395460 0.058650 0.000020 -0.380887
V3    V     V_3+5 0.670340 0.989120 0.000000 1.459349
O18   O     O_R   0.058670 0.094960 0.913900 -0.540123
C39   C     C_R   0.889665 0.116850 0.885292 0.714569
O19   O     O_R   0.058720 0.094960 0.086050 -0.549499
C40   C     C_R   0.889855 0.116221 0.115224 0.685501
V4    V     V_3+5 0.170330 0.010930 0.999970 1.442451
O20   O     O_3   0.895340 0.941350 0.999980 -0.346166
O21   O     O_3   0.572815 0.381836 0.760296 -0.654054
H19   H     H_    0.613247 0.438435 0.731053 0.274970
O22   O     O_3   0.768771 0.746227 0.845285 -0.655588
H20   H     H_    0.682134 0.692676 0.852401 0.280569
O23   O     O_3   0.848890 0.863237 0.751145 -0.636664
H21   H     H_    0.837768 0.905115 0.799624 0.301846
C41   C     C_2   0.813099 0.705445 0.115552 0.835535
O24   O     O_2   0.758241 0.631820 0.087644 -0.539580
O25   O     O_R   0.958163 0.754137 0.075029 -0.649764
H22   H     H_    0.006576 0.721604 0.023302 0.295669
C42   C     C_2   0.285303 0.222557 0.597037 0.822256
O26   O     O_2   0.180445 0.210152 0.537044 -0.563706
O27   O     O_R   0.482236 0.207342 0.589993 -0.657605
H23   H     H_    0.521019 0.186388 0.532157 0.288449
C43   C     C_2   0.505898 0.375014 0.229348 0.785987
O28   O     O_2   0.590389 0.387298 0.163374 -0.534409
O29   O     O_R   0.411506 0.448180 0.267446 -0.675615
H24   H     H_    0.409895 0.504811 0.230855 0.289905

loop_
_geom_bond_atom_site_label_1
_geom_bond_atom_site_label_2
_ccdc_geom_bond_type
C30   C31   A    
C36   H17   S    
C12   C42   S    
C42   O26   D    
O27   H23   S    
C4    C6    S    
C7    C8    A    
C11   H3    S    
C2    C30   S    
O23   H21   S    
C19   C43   S    
V4    O20   S    
O18   C39   A    
C12   H4    S    
C13   C18   A    
C5    C10   A    
C18   C19   S    
C19   C20   S    
C11   H2    S    
O5    C3    A    
C14   C15   A    
C29   C36   S    
C32   C33   A    
V2    O10   S    
C35   C41   S    
C31   H14   S    
O13   V3    S    
C5    C6    A    
C6    C7    A    
C1    O6    A    
C35   H16   S    
C27   O22   S    
C24   H11   S    
O8    V2    S    
O29   H24   S    
C13   C20   S    
C37   O16   A    
O15   C39   A    
C10   C11   S    
C15   C16   A    
O11   C38   A    
C33   C37   S    
C41   O25   S    
O7    V1    S    
O15   V3    S    
C21   C28   S    
C14   C40   S    
C36   H18   S    
C42   O27   S    
O9    C4    A    
C7    O21   S    
C43   O29   S    
C23   C24   A    
C43   O28   D    
C24   C25   A    
C28   H12   S    
C11   C12   S    
C9    C39   S    
C20   H9    S    
V3    O20   S    
O25   H22   S    
O19   V4    S    
O17   V4    S    
C27   C28   S    
C32   H15   S    
O22   H20   S    
C33   C34   A    
C28   H13   S    
C17   C18   A    
O2    C1    A    
O17   V3    S    
C13   C14   A    
O21   H19   S    
O18   V4    S    
C35   C36   S    
C16   H6    S    
C3    C17   S    
O3    C4    A    
C27   O23   S    
O1    V2    S    
C25   C26   A    
C1    C22   S    
C8    C9    A    
O11   V4    S    
O6    V2    S    
O9    V2    S    
C22   C23   A    
C21   C22   A    
O16   V4    S    
O2    V1    S    
C23   H10   S    
O4    C2    A    
C29   C30   A    
O1    C2    A    
C25   C38   S    
C15   H5    S    
O5    V1    S    
O8    C3    A    
C29   C34   A    
O12   V3    S    
C5    C12   S    
O7    V2    S    
O4    V1    S    
C19   H7    S    
O3    V1    S    
V1    O10   S    
C20   H8    S    
O14   V3    S    
C16   C17   A    
C31   C32   A    
C34   C35   S    
C21   C26   A    
O19   C40   A    
C8    H1    S    
O12   C37   A    
C26   C27   S    
O14   C38   A    
C9    C10   A    
O13   C40   A    
C41   O24   D    
