data_mof_unit_36.cif
_audit_creation_date              2012-12-10T18:14:23-0500
_audit_creation_method            fapswitch 2.2
_symmetry_space_group_name_H-M    P1
_symmetry_Int_Tables_number       1
_space_group_crystal_system       triclinic
_cell_length_a                    12.587942
_cell_length_b                    12.998473
_cell_length_c                    19.169118
_cell_angle_alpha                 90.521333
_cell_angle_beta                  102.211234
_cell_angle_gamma                 83.706559
_cell_volume                      3046.76754901

loop_
_atom_site_label
_atom_site_type_symbol
_atom_type_description
_atom_site_fract_x
_atom_site_fract_y
_atom_site_fract_z
_atom_type_partial_charge
C1    C     C_R   0.440762 0.690544 0.483817 0.879187
C2    C     C_R   0.496801 0.513463 0.709599 -0.036950
C3    C     C_R   0.482342 0.555537 0.068278 0.289645
C4    C     C_R   0.482746 0.557150 0.927545 0.288948
C5    C     C_R   0.392498 0.520141 0.167659 -0.162057
C6    C     C_R   0.397433 0.503762 0.239760 -0.190881
C7    C     C_R   0.495359 0.511332 0.289418 -0.028234
C8    C     C_R   0.588391 0.534950 0.266166 -0.201565
C9    C     C_R   0.583436 0.551390 0.194194 -0.161539
C10   C     C_R   0.485515 0.544043 0.144402 0.087276
C11   C     C_R   0.732089 0.059278 0.482055 0.010311
C12   C     C_R   0.499876 0.501903 0.634349 0.869166
C13   C     C_R   0.594003 0.198725 0.497112 -0.083267
C14   C     C_R   0.295513 0.834279 0.442335 -0.257337
C15   C     C_R   0.261871 0.934795 0.417031 -0.164540
C16   C     C_R   0.338791 0.003399 0.413448 0.215176
C17   C     C_R   0.452427 0.968273 0.435478 0.079393
C18   C     C_R   0.483566 0.861171 0.441787 0.049683
C19   C     C_R   0.536726 0.033438 0.455024 0.068777
C20   C     C_R   0.648088 0.994093 0.459246 0.120084
C21   C     C_R   0.671265 0.890558 0.441442 -0.266846
C22   C     C_R   0.590426 0.824123 0.434435 -0.180745
C23   C     C_R   0.559872 0.307912 0.506478 0.883702
C24   C     C_R   0.513441 0.132460 0.479521 -0.267927
C25   C     C_R   0.703004 0.162448 0.498374 -0.248612
C26   C     C_R   0.406602 0.796265 0.455429 -0.124489
C27   C     C_R   0.084341 0.350430 0.397457 -0.317382
C28   C     C_R   0.801183 0.630077 0.584771 0.011972
C29   C     C_R   0.906667 0.658251 0.602947 -0.262522
C30   C     C_R   0.987567 0.609007 0.570944 -0.194475
C31   C     C_R   0.963103 0.530479 0.520440 0.019866
C32   C     C_R   0.854110 0.504429 0.503895 0.235611
C33   C     C_R   0.041743 0.477432 0.485503 -0.014208
C34   C     C_R   0.499162 0.501130 0.365526 0.839114
C35   C     C_R   0.009209 0.401494 0.433885 0.202383
C36   C     C_R   0.901979 0.377338 0.418884 -0.301857
C37   C     C_R   0.826097 0.427215 0.453967 -0.225175
C38   C     C_R   0.151997 0.496426 0.499329 -0.052875
C39   C     C_R   0.191306 0.374336 0.412661 -0.003077
C40   C     C_R   0.399135 0.504873 0.732151 -0.196456
C41   C     C_R   0.393880 0.521589 0.802890 -0.164250
C42   C     C_R   0.486315 0.546770 0.852153 0.087455
C43   C     C_R   0.583905 0.555817 0.829520 -0.161544
C44   C     C_R   0.589135 0.539186 0.758663 -0.194850
H1    H     H_    0.326368 0.485976 0.695163 0.157235
H2    H     H_    0.752579 0.858874 0.436807 0.164903
H3    H     H_    0.431857 0.158363 0.486371 0.187673
H4    H     H_    0.234013 0.785294 0.449082 0.175502
H5    H     H_    0.175281 0.959301 0.400256 0.158593
H6    H     H_    0.612565 0.744319 0.422323 0.187052
H7    H     H_    0.250359 0.337074 0.384341 0.141393
H8    H     H_    0.876434 0.319426 0.379692 0.151087
H9    H     H_    0.060478 0.292984 0.357534 0.146329
H10   H     H_    0.317633 0.513806 0.818930 0.150778
H11   H     H_    0.184647 0.551488 0.538084 0.124038
H12   H     H_    0.737940 0.668328 0.609324 0.139702
H13   H     H_    0.067799 0.634310 0.586519 0.130919
H14   H     H_    0.925646 0.718234 0.641681 0.144110
H15   H     H_    0.745801 0.403731 0.440575 0.215379
H16   H     H_    0.656556 0.574850 0.866517 0.150544
H17   H     H_    0.665190 0.547058 0.742362 0.157064
H18   H     H_    0.316034 0.513522 0.130280 0.150874
H19   H     H_    0.324402 0.486181 0.256539 0.157903
H20   H     H_    0.664940 0.541587 0.303511 0.162922
H21   H     H_    0.656607 0.569145 0.177704 0.151481
H22   H     H_    0.765959 0.213777 0.514070 0.169261
N1    N     N_R   0.573837 0.574102 0.976321 -0.179472
N2    N     N_R   0.573617 0.573331 0.045477 -0.179837
N3    N     N_R   0.390442 0.541206 0.019424 -0.179346
N4    N     N_R   0.390659 0.541987 0.950263 -0.179971
N5    N     N_R   0.222200 0.444680 0.463280 -0.098187
N6    N     N_R   0.776960 0.554780 0.536340 -0.130921
O1    O     O_R   0.366740 0.627160 0.482470 -0.613899
O2    O     O_R   0.544830 0.662520 0.505920 -0.626082
O3    O     O_R   0.410920 0.482320 0.590130 -0.618422
O4    O     O_R   0.589010 0.517690 0.613590 -0.616594
O5    O     O_R   0.455170 0.337480 0.494080 -0.613840
O6    O     O_R   0.633260 0.372840 0.517530 -0.631568
O7    O     O_R   0.410990 0.482310 0.386410 -0.618606
O8    O     O_R   0.589080 0.517680 0.409870 -0.651014
Zn1   Zn    Zn3+2 0.381090 0.476390 0.484340 0.938614
Zn2   Zn    Zn3+2 0.618910 0.523610 0.515660 0.920976
C45   C     C_R   0.850570 0.022197 0.495034 0.108464
C46   C     C_R   0.894745 0.938971 0.542499 -0.153726
C47   C     C_R   0.007791 0.911248 0.560280 -0.130422
C48   C     C_R   0.077726 0.967651 0.532224 -0.117003
C49   C     C_R   0.034698 0.051125 0.485633 -0.139476
C50   C     C_R   0.921724 0.077798 0.466618 -0.149975
H23   H     H_    0.841957 0.897106 0.566942 0.133459
H24   H     H_    0.041421 0.847349 0.596939 0.126428
H25   H     H_    0.165289 0.947227 0.547120 0.137463
H26   H     H_    0.088828 0.095903 0.464689 0.135442
H27   H     H_    0.889726 0.143024 0.430812 0.124128
C51   C     C_3   0.295740 0.106562 0.377323 -0.988449
H28   H     H_    0.253250 0.155516 0.412935 0.236051
H29   H     H_    0.361099 0.146796 0.362340 0.256310
H30   H     H_    0.236014 0.095245 0.326939 0.250643

loop_
_geom_bond_atom_site_label_1
_geom_bond_atom_site_label_2
_ccdc_geom_bond_type
C8    C9    A    
C39   H7    S    
C49   C50   A    
C41   C42   A    
C35   C36   A    
C18   C26   A    
C2    C12   S    
C4    N4    A    
C28   H12   S    
C7    C8    A    
C32   N6    A    
C47   C48   A    
C45   C46   A    
C1    O2    A    
C36   C37   A    
C3    N3    A    
C3    N2    A    
C48   H25   S    
C30   C31   A    
C33   C35   A    
C11   C25   A    
C15   C16   A    
C30   H13   S    
C13   C23   S    
C34   O8    A    
C38   N5    A    
C38   H11   S    
C19   C20   A    
C2    C44   A    
C16   C17   A    
C31   C33   A    
C9    C10   A    
C36   H8    S    
C22   H6    S    
C45   C50   A    
C21   C22   A    
C13   C25   A    
C28   N6    A    
O2    Zn2   S    
O1    Zn1   S    
C9    H21   S    
C40   H1    S    
C11   C20   A    
N1    N2    A    
C46   C47   A    
O8    Zn2   S    
C27   C39   A    
O7    Zn1   S    
C48   C49   A    
O3    Zn1   S    
C14   H4    S    
C51   H30   S    
C27   C35   A    
C14   C26   A    
C13   C24   A    
C6    H19   S    
C43   C44   A    
C29   C30   A    
C34   O7    A    
O6    Zn2   S    
C31   C32   A    
O5    Zn1   S    
C17   C18   A    
C32   C37   A    
C23   O5    A    
C51   H29   S    
C37   H15   S    
C43   H16   S    
C8    H20   S    
C40   C41   A    
C12   O4    A    
C1    C26   S    
C7    C34   S    
C46   H23   S    
O4    Zn2   S    
C29   H14   S    
C21   H2    S    
C50   H27   S    
C28   C29   A    
C18   C22   A    
C24   H3    S    
C25   H22   S    
C4    N1    A    
C47   H24   S    
C27   H9    S    
C6    C7    A    
C44   H17   S    
C16   C51   S    
C33   C38   A    
C1    O1    A    
C19   C24   A    
C5    C10   A    
C3    C10   S    
C11   C45   S    
C5    C6    A    
C4    C42   S    
C17   C19   A    
C5    H18   S    
C15   H5    S    
C23   O6    A    
C51   H28   S    
N3    N4    A    
C41   H10   S    
C2    C40   A    
C20   C21   A    
C42   C43   A    
C12   O3    A    
C39   N5    A    
C14   C15   A    
C49   H26   S    
N6    Zn2   S    
N5    Zn1   S    
