data_mof_unit_3334.cif
_audit_creation_date              2013-03-05T15:52:29-0500
_audit_creation_method            fapswitch 2.2
_symmetry_space_group_name_H-M    P1
_symmetry_Int_Tables_number       1
_space_group_crystal_system       triclinic
_cell_length_a                    27.783784
_cell_length_b                    10.856788
_cell_length_c                    9.602533
_cell_angle_alpha                 90.573543
_cell_angle_beta                  91.374608
_cell_angle_gamma                 93.521493
_cell_volume                      2890.04097164

loop_
_atom_site_label
_atom_site_type_symbol
_atom_site_description
_atom_site_fract_x
_atom_site_fract_y
_atom_site_fract_z
_atom_type_partial_charge
O1    O     O_R   0.500000 0.319640 0.618810 -0.591370
O2    O     O_R   0.500000 0.319660 0.381240 -0.576945
C1    C     C_R   0.503871 0.263177 0.501015 0.807813
O3    O     O_R   0.430260 0.500010 0.618770 -0.579304
O4    O     O_R   0.430270 0.500030 0.381200 -0.584732
C2    C     C_R   0.407453 0.498944 0.498294 0.813856
Cu1   Cu    Cu3+1 0.500000 0.499990 0.640660 0.919429
Cu2   Cu    Cu3+1 0.500000 0.500010 0.359340 0.929611
O5    O     O_R   0.500000 0.680340 0.618760 -0.610503
O6    O     O_R   0.500000 0.680360 0.381190 -0.596881
O7    O     O_R   0.569730 0.499970 0.618800 -0.594014
O8    O     O_R   0.569740 0.499990 0.381230 -0.599195
C3    C     C_R   0.497186 0.737242 0.501123 0.785826
C4    C     C_R   0.592762 0.498078 0.501212 0.790689
C5    C     C_R   0.175910 0.368721 0.482996 0.533357
O9    O     O_2   0.199675 0.264562 0.496192 -0.532753
N1    N     N_R   0.201266 0.480432 0.477116 -0.463870
C6    C     C_R   0.178410 0.587805 0.464185 0.533621
C7    C     C_R   0.278834 0.485739 0.356724 0.212297
C8    C     C_R   0.329330 0.491323 0.363705 -0.204991
C9    C     C_R   0.328007 0.494570 0.616157 -0.217383
C10   C     C_R   0.277722 0.489468 0.610035 -0.144049
C11   C     C_R   0.252988 0.485017 0.481145 0.363835
C12   C     C_R   0.100868 0.471267 0.459613 -0.043096
C13   C     C_R   0.125262 0.362044 0.474586 -0.021445
C14   C     C_R   0.098745 0.248762 0.479440 -0.146432
C15   C     C_R   0.127866 0.585209 0.454382 -0.022023
C16   C     C_R   0.354277 0.495510 0.493028 -0.082880
H1    H     H_    0.257831 0.488943 0.705661 0.145379
H2    H     H_    0.116659 0.163240 0.488773 0.186323
C17   C     C_R   0.645938 0.484391 0.499426 -0.083481
C18   C     C_R   0.971564 0.347973 0.460478 0.042194
C19   C     C_R   0.974584 0.572427 0.418230 0.043061
C20   C     C_R   0.947755 0.458492 0.437911 0.069312
C21   C     C_R   0.942977 0.237972 0.484284 -0.204764
C22   C     C_R   0.892926 0.236683 0.485415 -0.144220
C23   C     C_R   0.869243 0.344683 0.462671 -0.026004
C24   C     C_R   0.896492 0.455492 0.436886 -0.045382
C25   C     C_R   0.872368 0.563786 0.412118 -0.026117
C26   C     C_R   0.821916 0.560293 0.418438 0.542133
N2    N     N_R   0.796407 0.452911 0.450105 -0.462592
C27   C     C_R   0.818767 0.345442 0.469129 0.534917
C28   C     C_R   0.713466 0.422399 0.363592 -0.155334
C29   C     C_R   0.664448 0.435251 0.377039 -0.262322
C30   C     C_R   0.678433 0.518473 0.612548 0.133466
C31   C     C_R   0.728529 0.501085 0.599791 0.210521
C32   C     C_R   0.745605 0.455971 0.472740 0.328665
O10   O     O_2   0.792342 0.240552 0.497090 -0.533302
C33   C     C_R   0.022860 0.351347 0.460932 0.042936
C34   C     C_R   0.049609 0.466641 0.450315 0.067562
C35   C     C_R   0.025725 0.577491 0.431181 0.042680
C36   C     C_R   0.048638 0.243221 0.472588 -0.204706
H3    H     H_    0.640861 0.407361 0.289381 0.179493
H4    H     H_    0.726761 0.387809 0.266492 0.155265
H5    H     H_    0.958074 0.151131 0.506373 0.137656
H6    H     H_    0.031276 0.151894 0.474747 0.135610
O11   O     O_2   0.204588 0.696575 0.460031 -0.532892
C37   C     C_R   0.103993 0.693911 0.439858 -0.145505
H7    H     H_    0.123896 0.782847 0.437322 0.188302
C38   C     C_R   0.949062 0.677929 0.386528 -0.206144
C39   C     C_R   0.899010 0.673516 0.384032 -0.146951
O12   O     O_2   0.798502 0.663874 0.395974 -0.534162
C40   C     C_R   0.054013 0.690437 0.428635 -0.204857
H8    H     H_    0.966644 0.765777 0.361480 0.137581
H9    H     H_    0.881259 0.757442 0.361509 0.185885
H10   H     H_    0.038676 0.778895 0.421448 0.136392
H11   H     H_    0.510101 0.109097 0.281848 0.150479
C41   C     C_R   0.521154 0.121045 0.765547 -0.156783
C42   C     C_R   0.510255 0.061666 0.889878 -0.159158
H12   H     H_    0.519536 0.106863 0.988770 0.132722
C43   C     C_R   0.486183 0.945812 0.886511 -0.130711
C44   C     C_R   0.477445 0.884404 0.759456 -0.149947
C45   C     C_R   0.493117 0.938403 0.633052 0.091354
C46   C     C_R   0.507834 0.064882 0.634936 0.101816
C47   C     C_R   0.508387 0.129326 0.506271 -0.117446
C48   C     C_R   0.506978 0.062899 0.380710 -0.209154
H13   H     H_    0.503782 0.887252 0.281653 0.166551
C49   C     C_R   0.502235 0.935575 0.380561 -0.204720
C50   C     C_R   0.495198 0.871705 0.505249 -0.111970
C51   C     C_R   0.561994 0.671960 0.150104 -0.142324
H14   H     H_    0.567104 0.675563 0.260007 0.201668
C52   C     C_R   0.590395 0.759950 0.080593 -0.206287
H15   H     H_    0.613939 0.826153 0.138727 0.160399
C53   C     C_R   0.589490 0.761245 0.937085 -0.189578
H16   H     H_    0.612366 0.828350 0.882846 0.159087
C54   C     C_R   0.560571 0.673663 0.862521 -0.146663
C55   C     C_R   0.529781 0.585542 0.928617 0.177628
C56   C     C_R   0.530082 0.585188 0.077996 0.169052
N3    N     N_R   0.500460 0.501210 0.147910 -0.198238
C57   C     C_R   0.471289 0.417328 0.068402 0.239173
H17   H     H_    0.449030 0.352589 0.860056 0.156233
C58   C     C_R   0.471608 0.418968 0.920855 -0.073292
N4    N     N_R   0.500480 0.501290 0.852040 -0.222892
H18   H     H_    0.346254 0.497566 0.717181 0.164311
C59   C     C_3   0.252788 0.479871 0.217323 -0.837095
H19   H     H_    0.278306 0.479341 0.130046 0.221705
H20   H     H_    0.228755 0.394400 0.209456 0.243675
H21   H     H_    0.230786 0.561222 0.205348 0.249368
C60   C     C_3   0.660212 0.579912 0.740897 -0.830352
H22   H     H_    0.688428 0.610429 0.818957 0.237798
H23   H     H_    0.643057 0.664571 0.707881 0.216503
H24   H     H_    0.634625 0.515463 0.795092 0.251096
C61   C     C_3   0.763822 0.531374 0.719913 -0.818927
H25   H     H_    0.751796 0.481080 0.814306 0.230643
H26   H     H_    0.800802 0.503800 0.700203 0.229245
H27   H     H_    0.766217 0.632332 0.740966 0.242030
H28   H     H_    0.541447 0.208962 0.774064 0.166261
H29   H     H_    0.475398 0.901974 0.982617 0.139139
H30   H     H_    0.457278 0.796319 0.762383 0.167920
C62   C     C_3   0.439625 0.316123 0.131490 -0.780756
H31   H     H_    0.414396 0.270769 0.052437 0.182927
H32   H     H_    0.461876 0.242756 0.170944 0.228758
H33   H     H_    0.416518 0.350262 0.212656 0.255018
H34   H     H_    0.564755 0.676114 0.753268 0.203784
H35   H     H_    0.872834 0.150348 0.506045 0.187872
H36   H     H_    0.349108 0.492001 0.267847 0.157013

loop_
_geom_bond_atom_site_label_1
_geom_bond_atom_site_label_2
_geom_bond_distance
_ccdc_geom_bond_type
C55   C56   1.434286 A    
C3    C50   1.464442 S    
C10   H1    1.082915 S    
N2    C27   1.366938 A    
C59   H19   1.110838 S    
C12   C15   1.408729 A    
C4    C17   1.494432 S    
C28   C29   1.386491 A    
C59   H21   1.109935 S    
Cu1   Cu2   2.701387 S    
H13   C49   1.083466 S    
Cu1   O7    1.953715 S    
N1    C11   1.434411 S    
C22   C23   1.395895 A    
C48   C49   1.380499 A    
O4    C2    1.303774 A    
O7    C4    1.311750 A    
C5    C13   1.404941 A    
C9    H18   1.083004 S    
C41   C46   1.420025 A    
C5    O9    1.349586 S    
C26   O12   1.349944 S    
C5    N1    1.367028 A    
C45   C46   1.408286 A    
C23   C27   1.405795 A    
C42   C43   1.387522 A    
O5    C3    1.295936 A    
C62   H31   1.111138 S    
C6    O11   1.349780 S    
C31   C32   1.413427 A    
C29   H3    1.083385 S    
C2    C16   1.475246 S    
C21   C22   1.390104 A    
C41   C42   1.393357 A    
C41   H28   1.079701 S    
C1    C47   1.467517 S    
C40   H10   1.076501 S    
O1    Cu1   1.967142 S    
C43   H29   1.082829 S    
C12   C34   1.422583 A    
O3    Cu1   1.944006 S    
Cu1   N4    2.029410 S    
N1    C6    1.366637 A    
N2    C32   1.435596 S    
C25   C39   1.395544 A    
C17   C29   1.407275 A    
C21   H5    1.076179 S    
C18   C21   1.416691 A    
C35   C40   1.416009 A    
C53   H16   1.082875 S    
O3    C2    1.305245 A    
C46   C47   1.425881 A    
C25   C26   1.402711 A    
C8    H36   1.083140 S    
C49   C50   1.401372 A    
C44   C45   1.419448 A    
C8    C16   1.406535 A    
C34   C35   1.420963 A    
C13   C14   1.396067 A    
C30   C31   1.424035 A    
O6    C3    1.307604 A    
C38   C39   1.388163 A    
O1    C1    1.291070 A    
C18   C20   1.421309 A    
C7    C11   1.408477 A    
C47   C48   1.397216 A    
C23   C24   1.408837 A    
C14   C36   1.389723 A    
C28   H4    1.083240 S    
C57   C58   1.417350 A    
C60   H22   1.105056 S    
Cu2   O8    1.944000 S    
C33   C36   1.416197 A    
C19   C20   1.421134 A    
C45   C50   1.422872 A    
C61   H26   1.107729 S    
C27   O10   1.349368 S    
C12   C13   1.408418 A    
C62   H33   1.097481 S    
C51   C52   1.387865 A    
C26   N2    1.367435 A    
C60   H23   1.106745 S    
C9    C16   1.404114 A    
O8    C4    1.305272 A    
C14   H2    1.083589 S    
C19   C38   1.415580 A    
C52   C53   1.377895 A    
C30   C60   1.508375 S    
C57   C62   1.506114 S    
H17   C58   1.082674 S    
C7    C59   1.505243 S    
C54   C55   1.409818 A    
C37   C40   1.388383 A    
Cu1   O5    1.971374 S    
C44   H30   1.079234 S    
C20   C24   1.422441 A    
O2    Cu2   1.971374 S    
C6    C15   1.403736 A    
C53   C54   1.388263 A    
C51   H14   1.061486 S    
C15   C37   1.395412 A    
O4    Cu2   1.953718 S    
C59   H20   1.110266 S    
H11   C48   1.080948 S    
C19   C35   1.420986 A    
C31   C61   1.516139 S    
C38   H8    1.076616 S    
C54   H34   1.058715 S    
C7    C8    1.400518 A    
O2    C1    1.314053 A    
C37   H7    1.083611 S    
C43   C44   1.393403 A    
C51   C56   1.417026 A    
C24   C25   1.408160 A    
C55   N4    1.380763 A    
C58   N4    1.352067 A    
C61   H27   1.110255 S    
C42   H12   1.082785 S    
C62   H32   1.102477 S    
C18   C33   1.423301 A    
C39   H9    1.083624 S    
C60   H24   1.108925 S    
C56   N3    1.380537 A    
Cu2   O6    1.967142 S    
C33   C34   1.421782 A    
C17   C30   1.426826 A    
C61   H25   1.110580 S    
C10   C11   1.400114 A    
Cu2   N3    2.030777 S    
C52   H15   1.082973 S    
N3    C57   1.390986 A    
C9    C10   1.394599 A    
C22   H35   1.083611 S    
C28   C32   1.391466 A    
C36   H6    1.076271 S    
