data_mof_unit_1755.cif
_audit_creation_date              2013-03-05T15:40:59-0500
_audit_creation_method            fapswitch 2.2
_symmetry_space_group_name_H-M    P1
_symmetry_Int_Tables_number       1
_space_group_crystal_system       triclinic
_cell_length_a                    28.269392
_cell_length_b                    7.26822
_cell_length_c                    17.149992
_cell_angle_alpha                 89.855075
_cell_angle_beta                  103.249371
_cell_angle_gamma                 89.836676
_cell_volume                      3429.94833617

loop_
_atom_site_label
_atom_site_type_symbol
_atom_site_description
_atom_site_fract_x
_atom_site_fract_y
_atom_site_fract_z
_atom_type_partial_charge
O1    O     O_R   0.000700 0.436510 0.857920 -0.554569
O2    O     O_R   0.999300 0.563490 0.142080 -0.556689
O3    O     O_R   0.999300 0.936510 0.642080 -0.554099
O4    O     O_R   0.000700 0.063490 0.357920 -0.554116
O5    O     O_R   0.930080 0.766380 0.721890 -0.557401
O6    O     O_R   0.069920 0.233620 0.278110 -0.556668
O7    O     O_R   0.069920 0.266380 0.778110 -0.558044
O8    O     O_R   0.930080 0.733620 0.221890 -0.519459
C1    C     C_R   0.910842 0.598163 0.704307 0.839218
C2    C     C_R   0.088955 0.402275 0.289364 0.848692
C3    C     C_R   0.089124 0.097653 0.795978 0.839940
C4    C     C_R   0.910787 0.903361 0.211138 0.836585
O9    O     O_R   0.996180 0.766230 0.862310 -0.565573
O10   O     O_R   0.003820 0.233770 0.137690 -0.564272
O11   O     O_R   0.003820 0.266230 0.637690 -0.567703
O12   O     O_R   0.996180 0.733770 0.362310 -0.561386
O13   O     O_R   0.065870 0.936460 0.783500 -0.511062
O14   O     O_R   0.934130 0.063540 0.216500 -0.563004
O15   O     O_R   0.934130 0.436460 0.716500 -0.510338
O16   O     O_R   0.065870 0.563540 0.283500 -0.522097
C5    C     C_R   0.998566 0.596308 0.894295 0.856368
C6    C     C_R   0.001727 0.403755 0.105815 0.821861
C7    C     C_R   0.001360 0.096552 0.605629 0.853489
C8    C     C_R   0.998224 0.903617 0.394221 0.846313
O17   O     O_3   0.022790 0.603020 0.723980 -0.287214
O18   O     O_3   0.977210 0.396980 0.276020 -0.289256
O19   O     O_3   0.977210 0.103020 0.776020 -0.284994
O20   O     O_3   0.022790 0.896980 0.223980 -0.285538
V1    V     V_3+5 0.995770 0.877900 0.754830 1.157225
V2    V     V_3+5 0.004230 0.122100 0.245170 1.133226
V3    V     V_3+5 0.004230 0.377900 0.745170 1.154199
V4    V     V_3+5 0.995770 0.622100 0.254830 1.158791
C9    C     C_2   0.001466 0.082289 0.519429 -0.256991
C10   C     C_2   0.997394 0.918426 0.480143 -0.250635
C11   C     C_2   0.998498 0.582051 0.980437 -0.262929
C12   C     C_2   0.001971 0.418101 0.019741 -0.250339
H1    H     H_    0.004945 0.209427 0.487817 0.099566
H2    H     H_    0.993701 0.791494 0.511736 0.097420
H3    H     H_    0.995745 0.709453 0.012097 0.101636
H4    H     H_    0.004749 0.290737 0.988084 0.104783
C13   C     C_R   0.681819 0.083617 0.071996 0.707086
C14   C     C_R   0.315321 0.025535 0.015658 0.742776
C15   C     C_R   0.319850 0.391684 0.427737 0.634632
C16   C     C_R   0.684980 0.523352 0.487395 0.746342
O21   O     O_2   0.708867 0.122747 0.018687 -0.478442
O22   O     O_2   0.284598 0.015845 0.065178 -0.462801
O23   O     O_2   0.293815 0.321797 0.477656 -0.495673
O24   O     O_2   0.716155 0.506304 0.438922 -0.461103
N1    N     N_R   0.703922 0.011891 0.144620 -0.444842
N2    N     N_R   0.296559 0.051180 0.935101 -0.435652
N3    N     N_R   0.296531 0.443033 0.352099 -0.440400
N4    N     N_R   0.703167 0.558098 0.567332 -0.433806
C17   C     C_R   0.679055 0.990020 0.203592 0.587200
C18   C     C_R   0.326761 0.063651 0.883318 0.643302
C19   C     C_R   0.322408 0.485917 0.296103 0.616685
C20   C     C_R   0.672387 0.586532 0.617250 0.640137
C21   C     C_R   0.787056 0.108083 0.202550 0.002037
C22   C     C_R   0.223541 0.219806 0.861946 -0.002137
C23   C     C_R   0.218044 0.332057 0.272958 -0.042446
C24   C     C_R   0.776447 0.724199 0.639718 0.007398
C25   C     C_R   0.836983 0.081885 0.218353 -0.169971
C26   C     C_R   0.173862 0.230024 0.826061 -0.163656
C27   C     C_R   0.167867 0.314858 0.260569 -0.173793
C28   C     C_R   0.826226 0.733313 0.674681 -0.169060
C29   C     C_R   0.825592 0.783683 0.152997 0.316885
C30   C     C_R   0.161964 0.934128 0.884169 0.325565
C31   C     C_R   0.167727 0.529074 0.369235 0.315584
C32   C     C_R   0.837500 0.434536 0.618876 0.327702
C33   C     C_R   0.774452 0.809730 0.136813 0.297575
C34   C     C_R   0.213298 0.911067 0.910758 0.296144
C35   C     C_R   0.218359 0.554626 0.379239 0.338502
C36   C     C_R   0.786132 0.413014 0.593630 0.294170
C37   C     C_R   0.755440 0.975324 0.161367 0.136270
C38   C     C_R   0.244161 0.060665 0.903149 0.133143
C39   C     C_R   0.243943 0.449180 0.332448 0.132224
C40   C     C_R   0.755509 0.564608 0.600146 0.125677
C41   C     C_R   0.603335 0.056671 0.107289 -0.184188
C42   C     C_R   0.397871 0.034648 0.994668 -0.166130
C43   C     C_R   0.397967 0.454045 0.396503 -0.172348
C44   C     C_R   0.602074 0.537383 0.506594 -0.160659
C45   C     C_R   0.631254 0.111657 0.052154 -0.056386
C46   C     C_R   0.366407 0.010931 0.047020 0.006163
C47   C     C_R   0.370389 0.413741 0.453656 -0.074068
C48   C     C_R   0.634067 0.505453 0.455657 0.006251
C49   C     C_R   0.608054 0.193169 0.978843 0.435629
C50   C     C_R   0.386695 0.966842 0.128249 0.503672
C51   C     C_R   0.393861 0.397360 0.535067 0.440406
C52   C     C_R   0.614470 0.456376 0.374802 0.515004
C53   C     C_R   0.627340 0.005619 0.185940 -0.166852
C54   C     C_R   0.377907 0.051522 0.911437 -0.136624
C55   C     C_R   0.374079 0.472909 0.315327 -0.175997
C56   C     C_R   0.621318 0.586213 0.587443 -0.131587
C57   C     C_R   0.857052 0.920855 0.193912 -0.202337
C58   C     C_R   0.142444 0.086184 0.834741 -0.190976
C59   C     C_R   0.142349 0.412954 0.307917 -0.187502
C60   C     C_R   0.857423 0.587762 0.666529 -0.195075
C61   C     C_R   0.479628 0.071650 0.972017 -0.053971
C62   C     C_R   0.522565 0.013995 0.138618 0.008439
C63   C     C_R   0.519942 0.537667 0.530375 -0.051274
C64   C     C_R   0.478461 0.484826 0.363999 0.014380
C65   C     C_R   0.470204 0.002400 0.107658 0.110724
C66   C     C_R   0.529509 0.105124 0.003415 0.049648
C67   C     C_R   0.530718 0.481688 0.394716 0.108477
C68   C     C_R   0.470886 0.482943 0.504134 0.018416
C69   C     C_R   0.449321 0.038098 0.025165 0.038786
C70   C     C_R   0.551659 0.057799 0.083482 0.012291
C71   C     C_R   0.550832 0.520820 0.476893 0.038157
C72   C     C_R   0.449177 0.475011 0.421159 0.014745
C73   C     C_R   0.460014 0.055027 0.888250 0.244341
C74   C     C_R   0.547558 0.994360 0.221779 0.304629
C75   C     C_R   0.538763 0.611562 0.607885 0.246728
C76   C     C_R   0.453817 0.489006 0.280228 0.305887
C77   C     C_R   0.409466 0.046681 0.858315 0.312210
C78   C     C_R   0.599247 0.984001 0.244309 0.265462
C79   C     C_R   0.589107 0.635504 0.636113 0.313986
C80   C     C_R   0.402119 0.482293 0.256758 0.261111
O25   O     O_2   0.307158 0.089648 0.804630 -0.515173
O26   O     O_2   0.704865 0.956961 0.278514 -0.457088
O27   O     O_2   0.691307 0.609169 0.696260 -0.525177
O28   O     O_2   0.298287 0.546709 0.223493 -0.448137
C81   C     C_R   0.557439 0.195678 0.957156 -0.072050
C82   C     C_R   0.437586 0.946772 0.154090 -0.029900
C83   C     C_R   0.443557 0.427890 0.559039 -0.039080
C84   C     C_R   0.563789 0.435290 0.347896 -0.017430
H5    H     H_    0.159995 0.351696 0.791680 0.139847
H6    H     H_    0.860050 0.188652 0.250654 0.140955
H7    H     H_    0.840355 0.855707 0.707716 0.145585
H8    H     H_    0.148774 0.225841 0.213159 0.114729
H9    H     H_    0.246588 0.334841 0.855402 0.162281
H10   H     H_    0.772758 0.233256 0.222491 0.142296
H11   H     H_    0.753635 0.840952 0.645398 0.181116
H12   H     H_    0.236770 0.251858 0.236361 0.139760
H13   H     H_    0.539805 0.269846 0.903644 0.126552
H14   H     H_    0.450315 0.876837 0.209680 0.140188
H15   H     H_    0.460587 0.404473 0.621372 0.161937
H16   H     H_    0.551423 0.368858 0.291431 0.133514
O29   O     O_3   0.844547 0.622367 0.130001 -0.593419
C85   C     C_3   0.851541 0.644648 0.051608 0.326355
H17   H     H_    0.881624 0.743088 0.051458 -0.008533
H18   H     H_    0.817879 0.694616 0.009315 0.068097
C86   C     C_3   0.865114 0.459571 0.021566 -0.257553
H19   H     H_    0.834585 0.361367 0.017224 0.155556
H20   H     H_    0.873081 0.476212 0.961472 0.039571
H21   H     H_    0.897737 0.402743 0.063540 0.110607
O30   O     O_3   0.130438 0.807626 0.905224 -0.592065
C87   C     C_3   0.126243 0.841126 0.984961 0.301875
H22   H     H_    0.162091 0.862804 0.027250 0.093484
H23   H     H_    0.110295 0.716398 0.006185 0.082901
C88   C     C_3   0.092710 0.003902 0.990351 -0.442785
H24   H     H_    0.057561 0.989152 0.946296 0.158973
H25   H     H_    0.085628 0.009616 0.051379 0.099259
H26   H     H_    0.109968 0.135241 0.979041 0.114507
O31   O     O_3   0.142887 0.623207 0.417608 -0.598731
C89   C     C_3   0.135298 0.502221 0.478344 0.314916
H27   H     H_    0.170206 0.441196 0.512397 0.079571
H28   H     H_    0.110129 0.388984 0.452674 -0.002550
C90   C     C_3   0.112592 0.608121 0.536934 -0.271545
H29   H     H_    0.076997 0.665520 0.505173 0.107139
H30   H     H_    0.106871 0.514638 0.585257 0.059824
H31   H     H_    0.136812 0.722370 0.564102 0.151070
O32   O     O_3   0.868639 0.305441 0.598224 -0.591430
C91   C     C_3   0.872198 0.335408 0.517855 0.302476
H32   H     H_    0.836113 0.356407 0.475989 0.096479
H33   H     H_    0.888042 0.209286 0.497514 0.080127
C92   C     C_3   0.905443 0.496886 0.510054 -0.440529
H34   H     H_    0.940798 0.483325 0.553754 0.156958
H35   H     H_    0.912128 0.499383 0.448723 0.101825
H36   H     H_    0.888149 0.629253 0.520198 0.116529
N5    N     N_R   0.742639 0.668405 0.095718 0.079233
O33   O     O_R   0.703617 0.710620 0.042008 -0.342112
O34   O     O_R   0.754488 0.495726 0.107108 -0.347858
N6    N     N_R   0.233922 0.734618 0.940245 0.111919
O35   O     O_R   0.208412 0.612083 0.967680 -0.327751
O36   O     O_R   0.276143 0.684899 0.929125 -0.352728
N7    N     N_R   0.243742 0.686379 0.436510 0.107744
O37   O     O_R   0.279734 0.780238 0.421443 -0.388840
O38   O     O_R   0.230597 0.716954 0.503220 -0.333437
N8    N     N_R   0.765198 0.236369 0.566576 0.108852
O39   O     O_R   0.789972 0.112126 0.538470 -0.329570
O40   O     O_R   0.723461 0.189005 0.580230 -0.357859
O41   O     O_3   0.635142 0.286019 0.933234 -0.585816
C93   C     C_3   0.624552 0.220931 0.853519 0.301810
H37   H     H_    0.591812 0.292176 0.817849 0.115601
H38   H     H_    0.618590 0.069160 0.850137 0.131848
C94   C     C_3   0.667251 0.264382 0.816359 -0.160323
H39   H     H_    0.699092 0.178190 0.844663 0.145500
H40   H     H_    0.657392 0.236350 0.751044 0.118612
H41   H     H_    0.677343 0.411497 0.825617 0.196758
O42   O     O_3   0.355785 0.919484 0.177931 -0.563648
C95   C     C_3   0.374575 0.969175 0.258923 0.290921
H42   H     H_    0.395349 0.100022 0.264805 0.068153
H43   H     H_    0.398297 0.857938 0.290971 0.036919
C96   C     C_3   0.332858 0.995526 0.299708 -0.223262
H44   H     H_    0.310525 0.869456 0.294347 0.185385
H45   H     H_    0.347122 0.027951 0.364022 0.089685
H46   H     H_    0.309693 0.110100 0.270449 0.122678
O43   O     O_3   0.368381 0.353548 0.592341 -0.561915
C97   C     C_3   0.354996 0.518273 0.625325 0.314779
H47   H     H_    0.338082 0.619217 0.577883 0.102834
H48   H     H_    0.387492 0.581637 0.665034 0.131846
C98   C     C_3   0.317776 0.475234 0.674419 -0.146841
H49   H     H_    0.335024 0.395117 0.728684 0.161023
H50   H     H_    0.302870 0.604803 0.693318 0.123092
H51   H     H_    0.287249 0.394826 0.638040 0.165079
O44   O     O_3   0.645853 0.411332 0.325606 -0.570582
C99   C     C_3   0.628118 0.470674 0.245395 0.276009
H52   H     H_    0.607881 0.602939 0.240974 0.084089
H53   H     H_    0.603702 0.365636 0.210961 0.028313
C100  C     C_3   0.670496 0.497309 0.206078 -0.218941
H54   H     H_    0.690682 0.366546 0.206607 0.119888
H55   H     H_    0.656663 0.542820 0.143142 0.115835
H56   H     H_    0.695735 0.602166 0.238959 0.181881
N9    N     N_R   0.391085 0.003578 0.775472 0.152666
O45   O     O_R   0.369987 0.846509 0.755584 -0.347030
O46   O     O_R   0.395888 0.118908 0.719887 -0.250749
N10   N     N_R   0.622711 0.960584 0.327817 0.154931
O47   O     O_R   0.612869 0.070068 0.381733 -0.308335
O48   O     O_R   0.648040 0.813794 0.351936 -0.328271
N11   N     N_R   0.606489 0.733193 0.709629 0.143200
O49   O     O_R   0.604182 0.659789 0.777870 -0.290977
O50   O     O_R   0.625745 0.895097 0.708271 -0.345454
N12   N     N_R   0.378464 0.467469 0.172963 0.149493
O51   O     O_R   0.390226 0.574335 0.119625 -0.304911
O52   O     O_R   0.347308 0.336832 0.148746 -0.330865
N13   N     N_R   0.491217 0.009640 0.835441 0.105984
O53   O     O_R   0.522411 0.875538 0.853869 -0.286747
O54   O     O_R   0.491711 0.111375 0.773110 -0.284843
N14   N     N_R   0.521952 0.990100 0.285373 0.089520
O55   O     O_R   0.531427 0.863963 0.340668 -0.334376
O56   O     O_R   0.491922 0.120744 0.292506 -0.441628
N15   N     N_R   0.506695 0.690192 0.652931 0.104243
O57   O     O_R   0.506652 0.628297 0.724133 -0.262420
O58   O     O_R   0.474826 0.813751 0.620254 -0.303041
N16   N     N_R   0.479878 0.496079 0.217368 0.086721
O59   O     O_R   0.471748 0.374726 0.160469 -0.349473
O60   O     O_R   0.509992 0.628193 0.213721 -0.433883

loop_
_geom_bond_atom_site_label_1
_geom_bond_atom_site_label_2
_geom_bond_distance
_ccdc_geom_bond_type
O17   V3    1.781533 S    
C35   C39   1.421406 A    
N1    C17   1.366780 A    
C22   C26   1.399862 A    
C90   H29   1.108386 S    
C62   C74   1.445726 A    
O19   V1    1.780475 S    
O13   V1    1.977179 S    
C98   H49   1.109309 S    
O3    C7    1.326899 A    
C11   C12   1.359744 D    
C14   C46   1.424439 A    
C36   N8    1.447533 S    
C52   O44   1.396071 S    
C52   C84   1.409842 A    
O15   V3    1.974209 S    
C86   H20   1.110609 S    
N14   O56   1.296486 A    
N8    O39   1.300612 A    
C34   C38   1.420350 A    
C46   C50   1.415182 A    
N7    O38   1.300809 A    
C68   C83   1.406029 A    
C31   O31   1.384411 S    
O44   C99   1.417501 S    
C42   C54   1.414395 A    
O1    C5    1.327504 A    
C44   C71   1.426665 A    
C41   C53   1.412113 A    
C92   H34   1.107268 S    
C42   C69   1.428690 A    
O9    V1    2.009768 S    
C41   C70   1.423857 A    
N10   O48   1.296057 A    
C18   C54   1.417856 A    
N2    C38   1.458186 S    
C87   H23   1.110621 S    
O16   V4    1.974209 S    
C11   H3    1.086204 S    
O4    C8    1.326461 A    
C25   C57   1.405393 A    
C94   H40   1.110094 S    
C76   C80   1.425192 A    
C22   H9    1.082713 S    
C91   C92   1.530275 S    
C27   C59   1.398771 A    
O1    V3    2.005705 S    
C100  H56   1.108503 S    
C15   C47   1.405370 A    
C55   C80   1.416633 A    
O2    V4    2.005704 S    
C14   O22   1.348573 S    
C54   C77   1.414111 A    
C21   C37   1.395611 A    
O3    V1    2.003746 S    
C34   N6    1.448341 S    
C93   H37   1.111351 S    
C82   H14   1.065836 S    
C30   O30   1.385828 S    
C19   C55   1.424646 A    
C95   C96   1.514668 S    
C100  H55   1.109640 S    
C1    O15   1.337788 A    
C2    O16   1.332216 A    
C96   H45   1.110279 S    
C50   C82   1.411986 A    
C95   H43   1.109580 S    
C33   C37   1.420348 A    
C97   H47   1.116053 S    
O14   V2    1.977179 S    
C75   C79   1.405761 A    
C77   N9    1.432297 S    
O8    C4    1.342543 A    
C66   C81   1.404794 A    
C74   C78   1.424983 A    
C43   C55   1.407308 A    
C61   C66   1.411424 A    
C73   C77   1.404847 A    
C30   C58   1.421920 A    
C29   O29   1.383127 S    
C16   N4    1.373672 A    
O11   C7    1.347024 A    
C63   C68   1.414896 A    
C63   C75   1.421125 A    
O12   C8    1.347638 A    
C10   H2    1.086080 S    
C31   C59   1.412443 A    
C98   H50   1.109681 S    
C79   N11   1.434484 S    
C92   H35   1.110595 S    
O42   C95   1.416816 S    
N16   O60   1.295922 A    
O10   V2    2.009768 S    
C67   C84   1.405760 A    
C24   H11   1.082394 S    
C13   N1    1.360733 A    
N14   O55   1.299738 A    
N6    O36   1.301446 A    
C45   C49   1.406386 A    
O30   C87   1.421000 S    
C27   H8    1.083755 S    
C91   H33   1.110642 S    
C19   O28   1.348031 S    
N9    O46   1.298368 A    
C65   C69   1.425402 A    
C23   H12   1.079972 S    
C64   C72   1.422434 A    
O7    V3    1.983147 S    
C84   H16   1.068301 S    
C44   C48   1.413134 A    
O8    V4    1.983144 S    
N5    O33   1.300152 A    
C78   N10   1.443157 S    
C21   H10   1.082078 S    
C12   H4    1.086069 S    
N10   O47   1.298467 A    
C28   C60   1.403005 A    
C89   C90   1.520153 S    
C100  H54   1.106121 S    
C86   H21   1.109650 S    
N11   O49   1.300232 A    
C73   N13   1.439847 S    
C99   H52   1.110782 S    
C94   H41   1.109851 S    
N3    C19   1.369793 A    
C7    C9    1.482911 S    
C32   O32   1.385861 S    
O11   V3    2.013556 S    
C24   C40   1.407186 A    
C64   C67   1.450320 A    
C8    C10   1.483277 S    
C83   H15   1.079925 S    
C93   C94   1.522064 S    
O41   C93   1.413826 S    
O7    C3    1.345587 A    
C95   H42   1.111756 S    
O5    C1    1.346107 A    
N11   O50   1.300355 A    
C87   C88   1.530108 S    
C61   C73   1.421984 A    
C42   C46   1.411785 A    
N8    O40   1.301551 A    
N7    O37   1.300398 A    
C41   C45   1.420790 A    
C75   N15   1.437204 S    
C32   C36   1.426221 A    
C96   H46   1.103750 S    
C13   C45   1.405591 A    
C97   C98   1.523300 S    
C9    C10   1.361970 D    
O9    C5    1.345319 A    
C36   C40   1.419670 A    
N15   O58   1.301401 A    
C33   N5    1.441879 S    
N12   O52   1.299575 A    
C44   C56   1.415029 A    
C1    C60   1.502793 S    
C89   H27   1.115175 S    
N9    O45   1.299215 A    
C85   H18   1.115302 S    
C14   N2    1.373666 A    
C3    C58   1.503507 S    
C92   H36   1.109955 S    
O6    V2    1.988632 S    
C64   C76   1.446083 A    
C90   H31   1.111018 S    
C26   C58   1.403253 A    
C17   C53   1.427512 A    
C98   H51   1.110616 S    
N1    C37   1.442176 S    
C20   O27   1.348575 S    
C88   H26   1.109952 S    
N16   O59   1.298352 A    
C51   O43   1.381687 S    
O5    V1    1.988632 S    
C23   C39   1.402565 A    
C68   C72   1.416064 A    
C6    C12   1.481166 S    
N6    O35   1.300650 A    
C22   C38   1.407204 A    
C9    H1    1.086236 S    
C87   H22   1.114618 S    
N5    O34   1.300742 A    
C29   C33   1.420259 A    
C53   C78   1.421899 A    
C3    O13   1.338562 A    
C50   O42   1.396240 S    
C49   O41   1.388703 S    
N13   O53   1.301276 A    
C17   O26   1.344921 S    
C89   H28   1.113121 S    
C48   C52   1.417205 A    
N3    C39   1.447594 S    
N4    C40   1.458508 S    
C85   C86   1.520973 S    
C47   C51   1.406364 A    
O6    C2    1.336718 A    
C26   H5    1.082976 S    
C97   H48   1.112218 S    
C21   C25   1.387310 A    
C91   H32   1.114548 S    
C5    C11   1.481155 S    
O12   V4    2.013556 S    
C62   C65   1.456276 A    
C63   C71   1.409236 A    
O29   C85   1.411991 S    
C32   C60   1.422171 A    
C23   C27   1.391337 A    
C65   C82   1.408868 A    
C62   C70   1.424221 A    
C16   C48   1.423746 A    
C24   C28   1.399345 A    
O2    C6    1.327468 A    
C49   C81   1.393525 A    
O10   C6    1.345405 A    
C88   H25   1.110621 S    
C61   C69   1.407957 A    
N2    C18   1.368733 A    
C74   N14   1.440918 S    
C88   H24   1.107504 S    
C28   H7    1.082916 S    
C51   C83   1.389033 A    
C99   C100  1.516003 S    
C15   N3    1.364084 A    
C94   H39   1.110532 S    
C30   C34   1.427190 A    
O32   C91   1.421095 S    
C2    C59   1.471826 S    
C76   N16   1.439313 S    
O20   V2    1.780475 S    
C29   C57   1.414164 A    
N13   O54   1.300984 A    
C35   N7    1.442983 S    
C43   C72   1.420852 A    
C66   C70   1.413577 A    
C31   C35   1.414844 A    
C80   N12   1.443839 S    
O43   C97   1.412643 S    
C4    C57   1.484585 S    
C56   C79   1.415015 A    
C93   H38   1.116025 S    
C85   H17   1.113382 S    
C43   C47   1.415776 A    
N4    C20   1.368942 A    
C20   C56   1.416792 A    
C25   H6    1.083398 S    
C90   H30   1.110787 S    
C96   H44   1.106242 S    
C18   O25   1.348799 S    
C4    O14   1.332820 A    
N15   O57   1.300545 A    
C13   O21   1.349716 S    
C67   C71   1.423391 A    
C81   H13   1.080547 S    
O31   C89   1.415320 S    
C86   H19   1.110917 S    
C99   H53   1.107458 S    
C15   O23   1.349608 S    
N12   O51   1.299187 A    
O18   V4    1.781535 S    
O4    V2    2.003746 S    
C16   O24   1.348639 S    
