data_mof_unit_4049.cif
_audit_creation_date              2012-10-26T20:09:45-0400
_audit_creation_method            fapswitch 2.2
_symmetry_space_group_name_H-M    P1
_symmetry_Int_Tables_number       1
_space_group_crystal_system       triclinic
_cell_length_a                    10.829205
_cell_length_b                    9.589517
_cell_length_c                    15.818896
_cell_angle_alpha                 88.696032
_cell_angle_beta                  88.597768
_cell_angle_gamma                 90.355343
_cell_volume                      1641.78768147

loop_
_atom_site_label
_atom_site_type_symbol
_atom_type_description
_atom_site_fract_x
_atom_site_fract_y
_atom_site_fract_z
_atom_type_partial_charge
C1    C     C_R   0.260672 0.499634 0.499987 0.539546
C2    C     C_3   0.928985 0.354398 0.536940 0.207144
C3    C     C_3   0.079112 0.503806 0.400239 0.025463
C4    C     C_3   0.123131 0.499662 0.495780 0.003566
C5    C     C_3   0.878976 0.501275 0.499929 0.170654
C6    C     C_R   0.500677 0.501223 0.340772 0.518922
C7    C     C_3   0.930986 0.526345 0.402285 0.060685
C8    C     C_3   0.611603 0.080753 0.542737 -0.169852
C9    C     C_3   0.618936 0.916796 0.530627 -0.155568
C10   C     C_3   0.395474 0.079252 0.553514 -0.135352
C11   C     C_3   0.405062 0.913634 0.561738 -0.118186
C12   C     C_3   0.653148 0.486772 0.948442 0.063736
C13   C     C_3   0.498328 0.089681 0.413036 0.365572
C14   C     C_3   0.474394 0.923195 0.413789 0.392486
C15   C     C_R   0.739688 0.500460 0.501336 0.560865
C16   C     C_R   0.500368 0.498673 0.659354 0.534760
C17   C     C_3   0.441539 0.630019 0.046647 0.088253
C18   C     C_3   0.448401 0.363657 0.051909 0.103897
C19   C     C_3   0.436286 0.372850 0.954504 -0.189949
C20   C     C_3   0.452342 0.632494 0.948454 -0.245988
C21   C     C_1   0.504361 0.495998 0.748889 -0.052204
C22   C     C_3   0.511185 0.500280 0.083198 0.150099
C23   C     C_3   0.650069 0.501426 0.049680 0.417218
C24   C     C_3   0.514908 0.496878 0.916704 -0.006549
C25   C     C_3   0.151234 0.619918 0.347216 -0.351390
C26   C     C_3   0.118703 0.367146 0.354893 -0.375426
C27   C     C_3   0.898070 0.675914 0.367536 -0.357417
C28   C     C_3   0.863405 0.431835 0.337470 -0.346809
C29   C     C_3   0.623813 0.135706 0.366090 -0.273858
C30   C     C_3   0.549933 0.866146 0.335937 -0.216432
C31   C     C_3   0.738108 0.599219 0.903499 -0.374141
C32   C     C_3   0.710185 0.344253 0.922235 -0.368231
C33   C     C_3   0.895635 0.609778 0.653001 -0.362717
C34   C     C_1   0.508921 0.495594 0.824387 -0.072597
C35   C     C_3   0.869070 0.302652 0.623906 -0.356356
C36   C     C_1   0.507230 0.503044 0.175623 0.075190
C37   C     C_1   0.503880 0.503476 0.251203 -0.018008
C38   C     C_3   0.073468 0.628590 0.544723 -0.222417
C39   C     C_3   0.071533 0.367894 0.544582 -0.206121
C40   C     C_3   0.930428 0.624452 0.557289 0.193882
Cu1   Cu    Cu3+1 0.499860 0.642410 0.500040 0.916419
Cu2   Cu    Cu3+1 0.499860 0.357590 0.500040 0.884143
H1    H     H_    0.359467 0.643679 0.920483 0.133904
H2    H     H_    0.313345 0.865023 0.552562 0.128871
H3    H     H_    0.507705 0.272136 0.067089 0.149931
H4    H     H_    0.484028 0.727177 0.069672 0.145863
H5    H     H_    0.463541 0.272305 0.926085 0.094546
H6    H     H_    0.504209 0.726845 0.926119 0.093417
H7    H     H_    0.102270 0.726607 0.511064 0.130838
H8    H     H_    0.117143 0.271187 0.522973 0.122429
H9    H     H_    0.119143 0.633881 0.606953 0.091624
H10   H     H_    0.098835 0.375724 0.611642 0.083047
H11   H     H_    0.925310 0.830353 0.559991 0.302312
H12   H     H_    0.337714 0.387739 0.938092 0.159793
H13   H     H_    0.941833 0.160451 0.497835 0.303927
H14   H     H_    0.250899 0.595520 0.340413 0.175726
H15   H     H_    0.116826 0.627568 0.281736 0.146953
H16   H     H_    0.147088 0.724156 0.375355 0.153303
H17   H     H_    0.078698 0.270852 0.383700 0.160671
H18   H     H_    0.093463 0.370563 0.287270 0.139908
H19   H     H_    0.220300 0.355709 0.354331 0.156263
H20   H     H_    0.914952 0.687020 0.298138 0.117938
H21   H     H_    0.799503 0.697255 0.377469 0.165715
H22   H     H_    0.951502 0.761509 0.394724 0.169861
H23   H     H_    0.610699 0.103326 0.611526 0.111151
H24   H     H_    0.877855 0.318793 0.344322 0.187450
H25   H     H_    0.762372 0.449866 0.339176 0.128484
H26   H     H_    0.895249 0.457893 0.271624 0.131522
H27   H     H_    0.333919 0.176779 0.402233 0.328824
H28   H     H_    0.291168 0.951269 0.422783 0.301017
H29   H     H_    0.610499 0.158545 0.297685 0.148794
H30   H     H_    0.664455 0.230973 0.389870 0.197886
H31   H     H_    0.698790 0.058462 0.373467 0.037704
H32   H     H_    0.492433 0.801169 0.294913 0.191387
H33   H     H_    0.570665 0.941437 0.283894 0.069185
H34   H     H_    0.645323 0.865371 0.591220 0.156325
H35   H     H_    0.636953 0.816725 0.354136 0.092995
H36   H     H_    0.266714 0.572466 0.041170 0.367855
H37   H     H_    0.343955 0.292760 0.145598 0.340073
H38   H     H_    0.677219 0.706627 0.047594 0.293143
H39   H     H_    0.800277 0.402103 0.081210 0.354192
H40   H     H_    0.703071 0.706721 0.909093 0.107671
H41   H     H_    0.831981 0.596379 0.930337 0.156939
H42   H     H_    0.748641 0.579449 0.834741 0.119214
H43   H     H_    0.701438 0.327518 0.853372 0.115104
H44   H     H_    0.810329 0.340950 0.935882 0.133087
H45   H     H_    0.698463 0.128718 0.518412 0.173850
H46   H     H_    0.666131 0.254263 0.956575 0.143315
H47   H     H_    0.910318 0.710453 0.684826 0.117741
H48   H     H_    0.796582 0.582672 0.663017 0.133072
H49   H     H_    0.955394 0.535820 0.687049 0.089050
H50   H     H_    0.778783 0.350873 0.638436 0.135930
H51   H     H_    0.851287 0.188466 0.624368 0.116843
H52   H     H_    0.928772 0.316398 0.678891 0.079559
H53   H     H_    0.694310 0.894066 0.484500 0.155222
H54   H     H_    0.394526 0.122980 0.618058 0.126069
H55   H     H_    0.427926 0.884460 0.628042 0.109654
H56   H     H_    0.304312 0.108472 0.528813 0.071703
N1    N     N_3   0.500250 0.143650 0.501830 -0.243533
N2    N     N_3   0.500250 0.856350 0.501830 -0.227866
O1    O     O_R   0.317570 0.620260 0.500050 -0.486745
O2    O     O_3   0.902766 0.249181 0.479282 -0.754214
O3    O     O_3   0.403944 0.151291 0.365005 -0.676662
O4    O     O_3   0.350737 0.890899 0.393050 -0.682080
O5    O     O_3   0.317595 0.633818 0.076178 -0.680730
O6    O     O_3   0.331120 0.340888 0.090295 -0.709684
O7    O     O_3   0.711338 0.623397 0.076228 -0.711336
O8    O     O_3   0.709773 0.387060 0.088507 -0.720489
O9    O     O_R   0.317570 0.379740 0.500050 -0.527805
O10   O     O_R   0.499890 0.620310 0.379470 -0.506578
O11   O     O_R   0.499890 0.379690 0.379470 -0.470885
O12   O     O_R   0.682190 0.620260 0.500020 -0.477954
O13   O     O_R   0.682190 0.379740 0.500020 -0.511031
O14   O     O_R   0.499870 0.620210 0.620600 -0.508173
O15   O     O_R   0.499870 0.379790 0.620600 -0.508591
O16   O     O_3   0.881195 0.753983 0.531524 -0.741426

loop_
_geom_bond_atom_site_label_1
_geom_bond_atom_site_label_2
_ccdc_geom_bond_type
C2    C35   S    
C18   H3    S    
C16   C21   S    
Cu1   Cu2   S    
C25   H14   S    
Cu1   O14   S    
C31   H41   S    
C38   H7    S    
H13   O2    S    
C31   H40   S    
H36   O5    S    
C13   C29   S    
C36   C37   T    
C28   H26   S    
Cu2   O9    S    
C3    C7    S    
C33   H49   S    
C30   H32   S    
H28   O4    S    
C29   H31   S    
C2    O2    S    
C32   H46   S    
C17   C20   S    
C7    C27   S    
C18   C19   S    
C6    O11   A    
C10   H56   S    
C1    O9    A    
C30   H35   S    
C2    C39   S    
C20   C24   S    
C8    C9    S    
Cu1   O12   S    
C15   O13   A    
C9    H34   S    
C13   O3    S    
C26   H17   S    
C9    H53   S    
H11   O16   S    
C29   H30   S    
C35   H50   S    
H27   O3    S    
C39   H10   S    
H39   O8    S    
C32   H44   S    
C8    H23   S    
C13   C14   S    
C12   C32   S    
C6    O10   A    
C25   H15   S    
C14   C30   S    
C32   H43   S    
C35   H51   S    
C6    C37   S    
C33   C40   S    
C3    C25   S    
C28   H25   S    
C17   H4    S    
C27   H22   S    
C5    C7    S    
C12   C23   S    
C38   H9    S    
C24   C34   S    
C7    C28   S    
H37   O6    S    
C11   N2    S    
C13   N1    S    
C28   H24   S    
Cu2   O11   S    
C18   O6    S    
C27   H20   S    
C33   H47   S    
Cu2   O13   S    
C14   O4    S    
H38   O7    S    
C4    C39   S    
C10   H54   S    
C23   O7    S    
Cu1   N2    S    
C11   H2    S    
C26   H19   S    
C20   H6    S    
C27   H21   S    
C19   H12   S    
C4    C38   S    
C9    N2    S    
Cu1   O10   S    
C12   C31   S    
C2    C5    S    
C25   H16   S    
C3    C4    S    
C16   O15   A    
C1    O1    A    
C20   H1    S    
C35   H52   S    
C18   C22   S    
C15   O12   A    
C8    N1    S    
C3    C26   S    
C16   O14   A    
C14   N2    S    
C17   O5    S    
C21   C34   T    
C22   C36   S    
C12   C24   S    
C17   C22   S    
C11   H55   S    
C1    C4    S    
C8    H45   S    
C19   C24   S    
Cu2   N1    S    
C38   C40   S    
C30   H33   S    
C40   O16   S    
C23   O8    S    
Cu1   O1    S    
C19   H5    S    
C10   N1    S    
C5    C15   S    
C10   C11   S    
C31   H42   S    
Cu2   O15   S    
C39   H8    S    
C5    C40   S    
C22   C23   S    
C33   H48   S    
C26   H18   S    
C29   H29   S    
