data_mof_unit_868.cif
_audit_creation_date              2012-12-10T19:48:45-0500
_audit_creation_method            fapswitch 2.2
_symmetry_space_group_name_H-M    P1
_symmetry_Int_Tables_number       1
_space_group_crystal_system       triclinic
_cell_length_a                    13.140676
_cell_length_b                    14.180584
_cell_length_c                    14.905072
_cell_angle_alpha                 89.996854
_cell_angle_beta                  90.119699
_cell_angle_gamma                 69.987171
_cell_volume                      2609.72784728

loop_
_atom_site_label
_atom_site_type_symbol
_atom_type_description
_atom_site_fract_x
_atom_site_fract_y
_atom_site_fract_z
_atom_type_partial_charge
C1    C     C_R   0.502025 0.499334 0.672544 0.858776
C2    C     C_R   0.822031 0.408028 0.491755 -0.114094
C3    C     C_R   0.581768 0.397605 0.901902 -0.199761
C4    C     C_R   0.704201 0.444417 0.495949 0.851502
C5    C     C_R   0.564955 0.401885 0.810218 -0.191817
C6    C     C_R   0.515582 0.494993 0.768507 -0.025736
C7    C     C_R   0.484260 0.583848 0.818347 -0.203703
C8    C     C_R   0.499548 0.579359 0.910199 -0.138158
C9    C     C_R   0.548210 0.486252 0.951883 0.109852
C10   C     C_R   0.594673 0.542549 0.100049 0.022750
C11   C     C_R   0.575234 0.549586 0.191949 -0.231041
C12   C     C_R   0.984501 0.452120 0.485668 0.084177
C13   C     C_R   0.517239 0.494434 0.231960 -0.035040
C14   C     C_R   0.480247 0.429912 0.181458 -0.194940
C15   C     C_R   0.496708 0.423899 0.090021 -0.184234
C16   C     C_R   0.502123 0.499339 0.327554 0.870004
C17   C     C_R   0.551632 0.481192 0.048827 0.050219
C18   C     C_R   0.581739 0.868793 0.544304 -0.283118
C19   C     C_R   0.579778 0.770240 0.543912 -0.097089
C20   C     C_R   0.420521 0.820777 0.455778 0.754583
C21   C     C_R   0.418892 0.920507 0.455286 -0.363652
C22   C     C_R   0.500312 0.946534 0.499828 0.057890
C23   C     C_R   0.876561 0.470939 0.458900 0.085083
C24   C     C_R   0.457050 0.118898 0.427416 -0.283675
C25   C     C_R   0.457312 0.217996 0.429017 0.021477
C26   C     C_R   0.542697 0.190894 0.570957 0.007242
C27   C     C_R   0.543247 0.091526 0.572421 -0.277591
C28   C     C_R   0.295696 0.555579 0.499350 0.882134
C29   C     C_R   0.500238 0.053290 0.499877 0.173525
C30   C     C_R   0.022021 0.686333 0.400780 -0.208694
C31   C     C_R   0.179518 0.589068 0.485698 -0.069538
C32   C     C_R   0.880204 0.316360 0.532727 -0.192072
C33   C     C_R   0.990847 0.290329 0.546738 -0.145395
C34   C     C_R   0.029853 0.527978 0.471228 0.080573
C35   C     C_R   0.042561 0.358229 0.525692 -0.191988
C36   C     C_R   0.660575 0.598365 0.059679 0.098527
C37   C     C_R   0.747513 0.549405 0.002347 -0.127288
C38   C     C_R   0.809283 0.602121 0.964427 -0.131106
C39   C     C_R   0.785340 0.703828 0.983735 -0.109733
C40   C     C_R   0.699658 0.752987 0.041116 -0.135015
C41   C     C_R   0.637552 0.700626 0.079112 -0.174057
C42   C     C_R   0.974589 0.613192 0.417878 0.172244
C43   C     C_R   0.873977 0.623025 0.381113 -0.248308
C44   C     C_R   0.825319 0.552882 0.401396 -0.203240
C45   C     C_R   0.128297 0.522008 0.509748 -0.260482
C46   C     C_R   0.125586 0.673241 0.433211 -0.179611
F1    F     F_    0.341992 0.797470 0.411757 -0.683041
H1    H     H_    0.165343 0.725454 0.413544 0.207505
H2    H     H_    0.831998 0.685839 0.337885 0.151619
H3    H     H_    0.353156 0.976894 0.421115 0.163978
H4    H     H_    0.424526 0.093843 0.368974 0.137496
H5    H     H_    0.423602 0.267321 0.372969 0.126502
H6    H     H_    0.576370 0.218829 0.627017 0.118385
H7    H     H_    0.575899 0.045746 0.630791 0.132884
H8    H     H_    0.981058 0.751075 0.359343 0.143640
H9    H     H_    0.169735 0.462740 0.556071 0.148564
H10   H     H_    0.839539 0.266454 0.556704 0.153604
H11   H     H_    0.128315 0.334253 0.539326 0.137080
H12   H     H_    0.591263 0.332777 0.771983 0.142147
H13   H     H_    0.035892 0.219111 0.577646 0.144527
H14   H     H_    0.747674 0.562823 0.370657 0.162970
H15   H     H_    0.618876 0.325451 0.934216 0.133135
H16   H     H_    0.767867 0.470352 0.987417 0.127491
H17   H     H_    0.875929 0.564019 0.920230 0.129325
H18   H     H_    0.833281 0.744508 0.954346 0.123366
H19   H     H_    0.681212 0.831776 0.056050 0.128387
H20   H     H_    0.570856 0.740075 0.122853 0.135680
H21   H     H_    0.446194 0.656179 0.786604 0.152981
H22   H     H_    0.470944 0.647975 0.949043 0.138333
H23   H     H_    0.607900 0.595854 0.232737 0.146097
H24   H     H_    0.436329 0.386245 0.212375 0.145127
H25   H     H_    0.462533 0.377647 0.050755 0.141789
H26   H     H_    0.647691 0.883250 0.578337 0.153238
H27   H     H_    0.642723 0.711673 0.578638 0.166543
N1    N     N_R   0.500000 0.747530 0.500020 -0.136944
N2    N     N_R   0.499940 0.252470 0.500020 -0.088963
O1    O     O_R   0.499990 0.420530 0.630930 -0.630071
O2    O     O_R   0.499990 0.579480 0.630940 -0.618567
O3    O     O_R   0.653620 0.381060 0.499970 -0.612529
O4    O     O_R   0.653620 0.540010 0.499980 -0.625507
O5    O     O_R   0.500010 0.420520 0.369060 -0.631089
O6    O     O_R   0.500010 0.579470 0.369070 -0.590015
O7    O     O_R   0.346380 0.459990 0.500020 -0.618514
O8    O     O_R   0.346380 0.618940 0.500030 -0.562572
Zn1   Zn    Zn3+2 0.500000 0.393860 0.499990 0.938055
Zn2   Zn    Zn3+2 0.500000 0.606140 0.500010 0.986980

loop_
_geom_bond_atom_site_label_1
_geom_bond_atom_site_label_2
_ccdc_geom_bond_type
C22   C29   S    
C28   O8    A    
C1    O1    A    
C14   H24   S    
C34   C42   A    
C27   H7    S    
C7    C8    A    
C41   H20   S    
C15   H25   S    
C12   C23   A    
C26   C27   A    
C35   H11   S    
C36   C37   A    
O8    Zn2   S    
C4    O4    A    
C5    C6    A    
C27   C29   A    
C10   C17   A    
C2    C32   A    
C18   C19   A    
C24   C29   A    
O4    Zn2   S    
C7    H21   S    
C45   H9    S    
C8    C9    A    
C31   C46   A    
C26   N2    A    
O2    Zn2   S    
C24   H4    S    
O1    Zn1   S    
C40   H19   S    
C21   C22   A    
C28   O7    A    
C1    O2    A    
C39   H18   S    
C36   C41   A    
C32   H10   S    
C21   H3    S    
C37   H16   S    
C38   H17   S    
C28   C31   S    
C46   H1    S    
C11   H23   S    
C5    H12   S    
C1    C6    S    
C24   C25   A    
C4    O3    A    
C39   C40   A    
C43   H2    S    
O6    Zn2   S    
C23   C44   A    
C20   N1    A    
C2    C4    S    
C43   C44   A    
C37   C38   A    
C3    C9    A    
N1    Zn2   S    
C16   O6    A    
C8    H22   S    
C34   C45   A    
C12   C35   A    
C9    C17   S    
C40   C41   A    
O7    Zn1   S    
C18   H26   S    
C42   C43   A    
C12   C34   A    
C26   H6    S    
O3    Zn1   S    
C3    H15   S    
C15   C17   A    
C18   C22   A    
C30   C46   A    
C19   H27   S    
C3    C5    A    
C6    C7    A    
C44   H14   S    
C33   H13   S    
C30   H8    S    
C25   N2    A    
C32   C33   A    
C19   N1    A    
C25   H5    S    
C11   C13   A    
C38   C39   A    
C16   O5    A    
C33   C35   A    
C20   F1    S    
C10   C11   A    
C20   C21   A    
C31   C45   A    
C13   C16   S    
C2    C23   A    
C14   C15   A    
C30   C42   A    
C10   C36   S    
C13   C14   A    
N2    Zn1   S    
O5    Zn1   S    
