data_mof_unit_1507.cif
_audit_creation_date              2013-03-05T15:52:54-0500
_audit_creation_method            fapswitch 2.2
_symmetry_space_group_name_H-M    P1
_symmetry_Int_Tables_number       1
_space_group_crystal_system       triclinic
_cell_length_a                    14.952868
_cell_length_b                    10.700414
_cell_length_c                    9.985911
_cell_angle_alpha                 88.667521
_cell_angle_beta                  87.316786
_cell_angle_gamma                 91.738199
_cell_volume                      1594.79118963

loop_
_atom_site_label
_atom_site_type_symbol
_atom_site_description
_atom_site_fract_x
_atom_site_fract_y
_atom_site_fract_z
_atom_type_partial_charge
O1    O     O_R   0.500000 0.316780 0.614690 -0.616006
O2    O     O_R   0.499990 0.316750 0.385360 -0.630645
C1    C     C_R   0.509490 0.260894 0.501155 0.949616
O3    O     O_R   0.367850 0.499980 0.614680 -0.537662
O4    O     O_R   0.367840 0.499960 0.385350 -0.638752
C2    C     C_R   0.327465 0.506183 0.501683 0.934037
Zn1   Zn    Zn3+2 0.500010 0.500020 0.653130 1.019569
Zn2   Zn    Zn3+2 0.499990 0.499980 0.346870 1.003157
O5    O     O_R   0.500010 0.683250 0.614640 -0.624534
O6    O     O_R   0.500000 0.683220 0.385310 -0.607336
O7    O     O_R   0.632160 0.500040 0.614650 -0.618332
O8    O     O_R   0.632150 0.500020 0.385320 -0.606142
C3    C     C_R   0.493079 0.739487 0.499510 0.891007
C4    C     C_R   0.672799 0.498516 0.497282 0.899218
C5    C     C_R   0.814928 0.609922 0.461619 -0.225898
C6    C     C_R   0.768582 0.497482 0.491725 -0.092852
C7    C     C_R   0.812587 0.388797 0.526278 0.090481
C8    C     C_R   0.905762 0.393652 0.530055 0.095181
C9    C     C_R   0.953373 0.509122 0.502119 0.016081
C10   C     C_R   0.907758 0.618546 0.469003 0.026873
C11   C     C_R   0.952542 0.285998 0.562260 -0.136218
C12   C     C_R   0.044497 0.291202 0.565946 -0.155413
C13   C     C_R   0.091471 0.403471 0.537006 0.118762
C14   C     C_R   0.046777 0.513983 0.505739 0.011809
C15   C     C_R   0.095752 0.627764 0.476465 -0.029429
C16   C     C_R   0.048520 0.740164 0.464220 0.164254
C17   C     C_R   0.955094 0.734471 0.450958 0.125834
C18   C     C_R   0.183164 0.405569 0.538883 -0.175193
C19   C     C_R   0.231917 0.514022 0.504295 -0.100274
C20   C     C_R   0.189996 0.622835 0.460663 0.134518
H1    H     H_    0.776465 0.690648 0.437575 0.174563
H2    H     H_    0.919707 0.196292 0.584608 0.206797
H3    H     H_    0.079094 0.206839 0.591003 0.191242
H4    H     H_    0.217064 0.319983 0.559448 0.208886
C21   C     C_R   0.532336 0.101877 0.752599 -0.156888
H5    H     H_    0.572270 0.186688 0.762317 0.198119
C22   C     C_R   0.509595 0.032298 0.869191 -0.278343
H6    H     H_    0.530665 0.066958 0.963531 0.221689
C23   C     C_R   0.452608 0.926577 0.865612 0.273787
C24   C     C_R   0.429734 0.882039 0.739295 0.137269
C25   C     C_R   0.472289 0.936816 0.620717 -0.017027
C26   C     C_R   0.508284 0.057982 0.626815 0.094021
C27   C     C_R   0.523228 0.127362 0.505285 -0.140795
C28   C     C_R   0.539151 0.064653 0.385136 0.176154
H7    H     H_    0.540018 0.888923 0.292772 0.208732
C29   C     C_R   0.521743 0.937885 0.383275 -0.149571
C30   C     C_R   0.487266 0.873563 0.498943 -0.121168
H8    H     H_    0.588978 0.655023 0.113743 0.137145
C31   C     C_R   0.398494 0.320499 0.157541 -0.118103
H9    H     H_    0.382797 0.328510 0.261337 0.216566
C32   C     C_R   0.362905 0.214927 0.102311 -0.193110
H10   H     H_    0.327482 0.144106 0.165336 0.220795
C33   C     C_R   0.364339 0.206546 0.965756 -0.178079
H11   H     H_    0.325756 0.130331 0.924663 0.212739
C34   C     C_R   0.395568 0.307751 0.883284 0.325738
C35   C     C_R   0.449184 0.407892 0.935964 0.033248
C36   C     C_R   0.450001 0.410184 0.080017 0.173428
N1    N     N_R   0.499150 0.498800 0.142780 -0.111070
C37   C     C_R   0.549061 0.584843 0.065355 -0.006984
H12   H     H_    0.588751 0.655190 0.865237 0.139956
C38   C     C_R   0.548973 0.584953 0.922835 -0.025239
N2    N     N_R   0.499120 0.498720 0.857170 -0.120055
N3    N     N_R   0.417513 0.868728 0.989731 0.214388
O9    O     O_R   0.417767 0.930735 0.100297 -0.408789
O10   O     O_R   0.393257 0.750901 0.996496 -0.356802
I1    I     I_    0.309969 0.771444 0.725018 -0.153240
N4    N     N_R   0.340044 0.325110 0.774512 0.230078
O11   O     O_R   0.268907 0.389728 0.798979 -0.371779
O12   O     O_R   0.335129 0.236567 0.687653 -0.454792
I2    I     I_    0.737912 0.218791 0.572300 -0.353279
I3    I     I_    0.267201 0.752648 0.330579 -0.143379
I4    I     I_    0.108004 0.917305 0.514391 -0.245767
I5    I     I_    0.886190 0.903099 0.406276 -0.273481
I6    I     I_    0.610053 0.146789 0.213415 -0.303313

loop_
_geom_bond_atom_site_label_1
_geom_bond_atom_site_label_2
_geom_bond_distance
_ccdc_geom_bond_type
C34   C35   1.442669 A    
N3    O10   1.300665 A    
C8    C11   1.404421 A    
C16   I4    2.149098 S    
C25   C26   1.392406 A    
C9    C10   1.413196 A    
C20   I3    2.151279 S    
C33   H11   1.084206 S    
Zn1   O7    1.995293 S    
C1    C27   1.449610 S    
C16   C17   1.409021 A    
C22   H6    1.077615 S    
C18   C19   1.379826 A    
C21   C22   1.390232 A    
O1    C1    1.297977 A    
O4    C2    1.287948 A    
O7    C4    1.295370 A    
C5    C6    1.389715 A    
C31   C36   1.406487 A    
C35   C36   1.439891 A    
C8    C9    1.422435 A    
C21   C26   1.409671 A    
O5    C3    1.295138 A    
Zn2   N1    2.038981 S    
C21   H5    1.079902 S    
C6    C7    1.397693 A    
C31   C32   1.372415 A    
C13   C14   1.411665 A    
C18   H4    1.080271 S    
C7    I2    2.134740 S    
C24   I1    2.128634 S    
C11   C12   1.376675 A    
O3    Zn1   2.030682 S    
C28   C29   1.374161 A    
C33   C34   1.400325 A    
C5    C10   1.393854 A    
C11   H2    1.078636 S    
C37   C38   1.423222 A    
C32   H10   1.083136 S    
C14   C15   1.418936 A    
O3    C2    1.305778 A    
C23   C24   1.411976 A    
C3    C30   1.439833 S    
C15   C16   1.418828 A    
H7    C29   1.083292 S    
N4    O11   1.302831 A    
H12   C38   1.081758 S    
C32   C33   1.367859 A    
C27   C28   1.402446 A    
Zn1   N2    2.036667 S    
C19   C20   1.408805 A    
Zn2   O8    2.030683 S    
C7    C8    1.394930 A    
C25   C30   1.417372 A    
C13   C18   1.371583 A    
C28   I6    2.130746 S    
C24   C25   1.423058 A    
O8    C4    1.297348 A    
C4    C6    1.431088 S    
C26   C27   1.412974 A    
H8    C37   1.081829 S    
C15   C20   1.413376 A    
Zn1   O5    1.989165 S    
C12   H3    1.084018 S    
C29   C30   1.399782 A    
O1    Zn1   2.006704 S    
O2    Zn2   1.989165 S    
O6    C3    1.303208 A    
O4    Zn2   1.995293 S    
C34   N4    1.409966 S    
C5    H1    1.080742 S    
C10   C17   1.412996 A    
C23   N3    1.441695 S    
O2    C1    1.304943 A    
N1    C37   1.368805 A    
C22   C23   1.397634 A    
C36   N1    1.364022 A    
C9    C14   1.398237 A    
C35   N2    1.409473 A    
C38   N2    1.367215 A    
N3    O9    1.301379 A    
C2    C19   1.432773 S    
Zn2   O6    2.006704 S    
C31   H9    1.057995 S    
C12   C13   1.390585 A    
N4    O12   1.302051 A    
C17   I5    2.152873 S    
