data_mof_unit_3261.cif
_audit_creation_date              2012-12-10T16:37:28-0500
_audit_creation_method            fapswitch 2.2
_symmetry_space_group_name_H-M    P1
_symmetry_Int_Tables_number       1
_space_group_crystal_system       triclinic
_cell_length_a                    16.883462
_cell_length_b                    16.866812
_cell_length_c                    16.853671
_cell_angle_alpha                 65.788828
_cell_angle_beta                  65.783489
_cell_angle_gamma                 65.680849
_cell_volume                      3817.03612903

loop_
_atom_site_label
_atom_site_type_symbol
_atom_type_description
_atom_site_fract_x
_atom_site_fract_y
_atom_site_fract_z
_atom_type_partial_charge
C1    C     C_R   0.400232 0.053810 0.666397 -0.223244
C2    C     C_R   0.402635 0.648055 0.075897 -0.212864
C3    C     C_R   0.918899 0.605426 0.347014 -0.221855
C4    C     C_R   0.026000 0.410157 0.666993 -0.230297
C5    C     C_R   0.963342 0.179167 0.437411 0.911849
C6    C     C_R   0.017461 0.824875 0.569972 0.922810
C7    C     C_R   0.175623 0.430032 0.981358 0.920097
C8    C     C_R   0.824431 0.570000 0.018526 0.918470
C9    C     C_R   0.430061 0.982518 0.175101 0.918930
C10   C     C_R   0.562578 0.036576 0.820902 0.909045
C11   C     C_R   0.561677 0.820741 0.038681 0.926826
C12   C     C_R   0.541146 0.079310 0.298710 -0.221769
C13   C     C_R   0.438306 0.179251 0.961373 0.884210
C14   C     C_R   0.035320 0.562788 0.820641 0.909906
C15   C     C_R   0.962344 0.437861 0.179448 0.910085
C16   C     C_R   0.820508 0.037417 0.562308 0.886514
C17   C     C_R   0.179381 0.964811 0.437095 0.928435
C18   C     C_R   0.443922 0.071740 0.708462 -0.179397
C19   C     C_R   0.495806 0.063424 0.256584 -0.180289
C20   C     C_R   0.936674 0.743583 0.503772 -0.181599
C21   C     C_R   0.928437 0.291556 0.556316 -0.179206
C22   C     C_R   0.735293 0.506470 0.943881 -0.181353
C23   C     C_R   0.920367 0.701513 0.458637 -0.221445
C24   C     C_R   0.264887 0.493605 0.055834 -0.181754
C25   C     C_R   0.293858 0.950382 0.547717 -0.175488
C26   C     C_R   0.702242 0.082877 0.442484 -0.193691
C27   C     C_R   0.551525 0.303025 0.918302 -0.190587
C28   C     C_R   0.448626 0.696808 0.081728 -0.182614
C29   C     C_R   0.915872 0.557710 0.297937 -0.191657
C30   C     C_R   0.049987 0.452283 0.706094 -0.184810
C31   C     C_R   0.530555 0.055637 0.533215 0.020189
C32   C     C_R   0.440850 0.022661 0.445346 0.020302
C33   C     C_R   0.976988 0.554828 0.559236 0.020383
C34   C     C_R   0.946124 0.333757 0.600105 -0.228098
C35   C     C_R   0.943637 0.467000 0.469736 0.020102
C36   C     C_R   0.545690 0.548369 0.009236 0.017031
C37   C     C_R   0.454502 0.451528 0.990673 0.017074
C38   C     C_R   0.567717 0.063549 0.439409 0.049977
C39   C     C_R   0.405213 0.012998 0.539413 0.047696
C40   C     C_R   0.986676 0.460775 0.595027 0.048295
C41   C     C_R   0.935515 0.560827 0.432495 0.049465
C42   C     C_R   0.449628 0.572821 0.040097 0.047242
C43   C     C_R   0.550570 0.427043 0.959851 0.048263
C44   C     C_R   0.518035 0.054917 0.393912 0.049095
C45   C     C_R   0.691094 0.461417 0.930706 -0.216534
C46   C     C_R   0.444964 0.039274 0.580637 0.050329
C47   C     C_R   0.403955 0.522616 0.032708 0.049596
C48   C     C_R   0.596248 0.477296 0.967172 0.049232
C49   C     C_R   0.960275 0.419580 0.555361 0.050850
C50   C     C_R   0.944464 0.606305 0.482036 0.048674
C51   C     C_R   0.537571 0.064744 0.671816 0.070055
C52   C     C_R   0.429762 0.016306 0.307532 0.060424
C53   C     C_R   0.983793 0.692543 0.570014 0.059989
C54   C     C_R   0.935082 0.328253 0.462604 0.071091
C55   C     C_R   0.687187 0.568896 0.995022 0.060541
C56   C     C_R   0.309102 0.538597 0.069050 -0.215697
C57   C     C_R   0.312966 0.431135 0.004762 0.059953
C58   C     C_R   0.321826 0.968480 0.452540 0.079337
C59   C     C_R   0.668971 0.068843 0.537373 0.072374
C60   C     C_R   0.456443 0.327350 0.947091 0.078375
C61   C     C_R   0.543689 0.672569 0.052849 0.079579
C62   C     C_R   0.930347 0.462801 0.331206 0.070347
C63   C     C_R   0.031800 0.547441 0.678051 0.076094
C64   C     C_R   0.591193 0.059512 0.722133 -0.129951
C65   C     C_R   0.392313 0.984957 0.267674 -0.111616
C66   C     C_R   0.015217 0.732273 0.607580 -0.115670
C67   C     C_R   0.333172 0.974035 0.589946 -0.221679
C68   C     C_R   0.940368 0.277957 0.408833 -0.130488
C69   C     C_R   0.730532 0.607549 0.020693 -0.117958
C70   C     C_R   0.269576 0.392502 0.979111 -0.119860
C71   C     C_R   0.276158 0.955780 0.404975 -0.135780
C72   C     C_R   0.721111 0.060687 0.591125 -0.122332
C73   C     C_R   0.406607 0.277287 0.945430 -0.128485
C74   C     C_R   0.593469 0.722692 0.054500 -0.140532
C75   C     C_R   0.938840 0.409054 0.278912 -0.127419
C76   C     C_R   0.044615 0.594855 0.723744 -0.130076
C77   C     C_R   0.679679 0.061690 0.680079 -0.308773
C78   C     C_R   0.653192 0.079777 0.394816 -0.221591
C79   C     C_R   0.317508 0.954389 0.316904 -0.311790
C80   C     C_R   0.046011 0.682868 0.682407 -0.310823
C81   C     C_R   0.938069 0.320081 0.320257 -0.304881
C82   C     C_R   0.683063 0.683123 0.050696 -0.301532
C83   C     C_R   0.317033 0.316909 0.949144 -0.304494
C84   C     C_R   0.578977 0.063604 0.580574 0.074708
C85   C     C_R   0.398131 0.001563 0.402080 0.073202
C86   C     C_R   0.998436 0.598006 0.601774 0.072546
C87   C     C_R   0.935777 0.419584 0.421265 0.075019
C88   C     C_R   0.591910 0.595907 0.019949 0.077880
C89   C     C_R   0.597548 0.351758 0.924133 -0.217843
C90   C     C_R   0.408252 0.404039 0.979926 0.075555
H1    H     H_    0.401794 0.092156 0.769171 0.172628
H2    H     H_    0.408668 0.751766 0.112259 0.163037
H3    H     H_    0.899089 0.597737 0.234992 0.176170
H4    H     H_    0.085485 0.408572 0.756614 0.170250
H5    H     H_    0.329701 0.055836 0.700110 0.139577
H6    H     H_    0.591906 0.114163 0.254964 0.141869
H7    H     H_    0.885487 0.745354 0.407753 0.141559
H8    H     H_    0.944326 0.300040 0.670695 0.136752
H9    H     H_    0.733522 0.415452 0.890034 0.139331
H10   H     H_    0.266652 0.584617 0.109646 0.140275
H11   H     H_    0.308764 0.957608 0.663251 0.143136
H12   H     H_    0.512612 0.090943 0.183563 0.182785
H13   H     H_    0.685530 0.087239 0.323144 0.139121
H14   H     H_    0.670526 0.327131 0.901507 0.136601
H15   H     H_    0.329664 0.672646 0.098593 0.138522
H16   H     H_    0.911110 0.677109 0.314657 0.139196
H17   H     H_    0.042496 0.336861 0.691468 0.142558
H18   H     H_    0.719506 0.056370 0.719723 0.196231
H19   H     H_    0.286657 0.936002 0.284233 0.191828
H20   H     H_    0.064457 0.715405 0.713357 0.193052
H21   H     H_    0.943516 0.280455 0.280302 0.197562
H22   H     H_    0.718012 0.716313 0.063258 0.194304
H23   H     H_    0.909452 0.816647 0.486650 0.181980
H24   H     H_    0.282073 0.283723 0.936590 0.193113
H25   H     H_    0.908493 0.230714 0.598433 0.172885
H26   H     H_    0.807401 0.493570 0.910343 0.177104
H27   H     H_    0.192777 0.506588 0.089323 0.176660
H28   H     H_    0.243267 0.915179 0.591379 0.168608
H29   H     H_    0.765108 0.099487 0.402367 0.175081
H30   H     H_    0.591476 0.248036 0.887814 0.162820
O1    O     O_R   0.982940 0.138950 0.510160 -0.637559
O2    O     O_R   0.982940 0.510160 0.138950 -0.650331
O3    O     O_R   0.861050 0.017060 0.489840 -0.653565
O4    O     O_R   0.138950 0.982940 0.510160 -0.633124
O5    O     O_R   0.867700 0.025880 0.612340 -0.634545
O6    O     O_R   0.132300 0.974120 0.387660 -0.614464
O7    O     O_R   0.025880 0.612340 0.867700 -0.618979
O8    O     O_R   0.974120 0.387660 0.132300 -0.623023
O9    O     O_R   0.612340 0.867700 0.025880 -0.616115
O10   O     O_R   0.387660 0.132300 0.974120 -0.632300
O11   O     O_R   0.387660 0.974120 0.132300 -0.635234
O12   O     O_R   0.017060 0.861050 0.489840 -0.642518
O13   O     O_R   0.612340 0.025880 0.867700 -0.630205
O14   O     O_R   0.132300 0.387660 0.974120 -0.634205
O15   O     O_R   0.867700 0.612340 0.025880 -0.635074
O16   O     O_R   0.974120 0.132300 0.387660 -0.629752
O17   O     O_R   0.025880 0.867700 0.612340 -0.633227
O18   O     O_R   0.138950 0.510160 0.982940 -0.637947
O19   O     O_R   0.861050 0.489840 0.017060 -0.639039
O20   O     O_R   0.510160 0.982940 0.138950 -0.643761
O21   O     O_R   0.489840 0.017060 0.861050 -0.636602
O22   O     O_R   0.489840 0.861050 0.017060 -0.626714
O23   O     O_R   0.510160 0.138950 0.982940 -0.647529
O24   O     O_R   0.017060 0.489840 0.861050 -0.649741
Zn1   Zn    Zn3+2 0.004880 0.004880 0.583590 0.929833
Zn2   Zn    Zn3+2 0.995120 0.995120 0.416410 0.929397
Zn3   Zn    Zn3+2 0.004880 0.583590 0.004880 0.930572
Zn4   Zn    Zn3+2 0.995120 0.416410 0.995120 0.928141
Zn5   Zn    Zn3+2 0.583590 0.004880 0.004880 0.929770
Zn6   Zn    Zn3+2 0.416410 0.995120 0.995120 0.933026

loop_
_geom_bond_atom_site_label_1
_geom_bond_atom_site_label_2
_ccdc_geom_bond_type
C5    O16   A    
C15   C75   S    
C65   C79   A    
C15   O2    A    
C64   C77   A    
C36   C42   A    
C16   C72   S    
C10   O13   A    
C21   H25   S    
C25   H28   S    
C7    C70   S    
C71   C79   A    
O6    Zn2   S    
C27   H30   S    
C36   C88   A    
O9    Zn5   S    
C24   H27   S    
C43   C89   A    
C54   C87   A    
C37   C90   A    
C8    O19   A    
C18   H1    S    
O17   Zn1   S    
C52   C85   A    
C16   O3    A    
C27   C60   A    
C20   H23   S    
C19   H12   S    
C17   O6    A    
C54   C68   A    
C63   C76   A    
C40   C49   A    
C5    O1    A    
C60   C73   A    
C32   C39   A    
C55   C88   A    
C3    C29   A    
C69   C82   A    
C35   C87   A    
C19   C52   A    
O10   Zn6   S    
C81   H21   S    
C24   C57   A    
C31   C46   A    
C25   C67   A    
C35   C49   A    
C13   O10   A    
O3    Zn2   S    
C36   C48   A    
C53   C86   A    
C57   C70   A    
C37   C47   A    
C43   C48   A    
O24   Zn4   S    
C59   C72   A    
C28   C61   A    
C22   H26   S    
C30   C63   A    
C8    O15   A    
C9    O20   A    
C83   H24   S    
C74   C82   A    
C5    C68   S    
C35   C41   A    
C11   O9    A    
O21   Zn6   S    
C12   H6    S    
C9    O11   A    
C3    H16   S    
C32   C44   A    
C4    H17   S    
C14   O24   A    
O19   Zn4   S    
C33   C40   A    
C57   C90   A    
C79   H19   S    
C4    C40   A    
O13   Zn5   S    
C59   C84   A    
C7    O14   A    
C6    O12   A    
C45   H9    S    
O4    Zn1   S    
C8    C69   S    
O8    Zn4   S    
C23   C50   A    
C21   C34   A    
C38   C78   A    
C33   C50   A    
C4    C30   A    
C14   O7    A    
C10   O21   A    
C82   H22   S    
C37   C43   A    
C33   C86   A    
C38   C44   A    
C72   C77   A    
C70   C83   A    
C61   C88   A    
C17   O4    A    
C20   C23   A    
O23   Zn5   S    
O18   Zn3   S    
C1    H5    S    
C1    C18   A    
C28   H2    S    
C26   C78   A    
O2    Zn3   S    
C26   H29   S    
C53   C66   A    
C55   C69   A    
C39   C46   A    
C16   O5    A    
C23   H7    S    
C13   C73   S    
C17   C71   S    
O15   Zn3   S    
C15   O8    A    
C63   C86   A    
C61   C74   A    
O1    Zn1   S    
C62   C75   A    
C25   C58   A    
C56   H10   S    
C58   C85   A    
C41   C50   A    
C66   C80   A    
C67   H11   S    
C26   C59   A    
C45   C48   A    
C29   C62   A    
C3    C41   A    
C34   C49   A    
C14   C76   S    
C78   H13   S    
C39   C67   A    
C77   H18   S    
C75   C81   A    
C51   C64   A    
C76   C80   A    
C20   C53   A    
C11   C74   S    
C7    O18   A    
C22   C55   A    
C60   C90   A    
C18   C51   A    
C24   C56   A    
O14   Zn4   S    
C62   C87   A    
C2    H15   S    
C10   C64   S    
C31   C38   A    
C68   C81   A    
O12   Zn2   S    
O22   Zn6   S    
C6    O17   A    
C89   H14   S    
O5    Zn1   S    
C29   H3    S    
C21   C54   A    
C2    C42   A    
C32   C85   A    
C51   C84   A    
C12   C19   A    
C34   H8    S    
C27   C89   A    
C42   C47   A    
C13   O23   A    
C1    C46   A    
C11   O22   A    
C9    C65   S    
C58   C71   A    
C31   C84   A    
C6    C66   S    
C22   C45   A    
C30   H4    S    
C80   H20   S    
C12   C44   A    
O11   Zn6   S    
C2    C28   A    
O20   Zn5   S    
C73   C83   A    
O16   Zn2   S    
C52   C65   A    
O7    Zn3   S    
C47   C56   A    
