data_mof_unit_3797.cif
_audit_creation_date              2012-12-11T18:37:18-0500
_audit_creation_method            fapswitch 2.2
_symmetry_space_group_name_H-M    P1
_symmetry_Int_Tables_number       1
_space_group_crystal_system       triclinic
_cell_length_a                    8.492697
_cell_length_b                    14.357401
_cell_length_c                    26.945164
_cell_angle_alpha                 93.937733
_cell_angle_beta                  93.557817
_cell_angle_gamma                 88.327606
_cell_volume                      3270.40778976

loop_
_atom_site_label
_atom_site_type_symbol
_atom_type_description
_atom_site_fract_x
_atom_site_fract_y
_atom_site_fract_z
_atom_type_partial_charge
Ba1   Ba    Ba6+2 0.849670 0.455410 0.524690 1.792820
Ba2   Ba    Ba6+2 0.340150 0.544510 0.475310 1.822891
C1    C     C_3   0.719120 0.113446 0.656095 0.628852
C2    C     C_3   0.662539 0.207052 0.636602 0.299252
C3    C     C_3   0.543336 0.752581 0.629550 0.903883
C4    C     C_3   0.656804 0.767699 0.676935 0.164223
C5    C     C_3   0.109344 0.774316 0.323883 0.885386
C6    C     C_3   0.182935 0.819649 0.281142 0.360410
C7    C     C_3   0.586958 0.777788 0.345448 0.690654
C8    C     C_3   0.615572 0.861740 0.314913 -0.262752
C9    C     C_R   0.009543 0.425164 0.178214 0.585520
C10   C     C_R   0.922585 0.585072 0.177390 0.708151
C11   C     C_2   0.761606 0.528877 0.269273 -0.029992
C12   C     C_3   0.178700 0.160796 0.659410 0.642978
C13   C     C_3   0.724962 0.521420 0.323419 0.008626
C14   C     C_1   0.991851 0.480062 0.341979 0.079184
C15   C     C_2   0.027619 0.472193 0.294341 0.038454
C16   C     C_2   0.907686 0.502608 0.254711 0.227255
C17   C     C_R   0.035595 0.509389 0.103209 -0.087398
C18   C     C_R   0.049173 0.425889 0.127990 -0.012405
C19   C     C_R   0.093418 0.343525 0.101170 -0.046324
C20   C     C_R   0.968879 0.588812 0.127877 -0.077735
C21   C     C_2   0.869748 0.529379 0.357088 -0.239340
C22   C     C_2   0.324055 0.461621 0.645991 -0.236142
C23   C     C_3   0.163418 0.207576 0.711791 0.361960
C24   C     C_R   0.195829 0.430483 0.978986 -0.025609
C25   C     C_R   0.122271 0.598262 0.978830 0.051993
C26   C     C_R   0.175926 0.514076 0.953510 0.011684
C27   C     C_R   0.275945 0.353330 0.954339 0.339789
C28   C     C_R   0.297710 0.352093 0.903442 -0.014721
C29   C     C_R   0.265748 0.431406 0.876850 -0.094278
C30   C     C_R   0.216291 0.514359 0.902615 -0.084835
C31   C     C_R   0.211817 0.597841 0.877876 -0.055779
C32   C     C_R   0.249658 0.596141 0.827182 0.638852
C33   C     C_R   0.292721 0.430657 0.825640 0.595960
C34   C     C_3   0.985134 0.254892 0.387337 0.625143
C35   C     C_2   0.448451 0.471878 0.731885 -0.083699
C36   C     C_3   0.478397 0.467723 0.677310 0.089345
C37   C     C_1   0.207900 0.520256 0.659303 0.058165
C38   C     C_2   0.182143 0.537384 0.708010 0.313087
C39   C     C_2   0.308907 0.508297 0.747536 0.187540
C40   C     C_R   0.141654 0.428824 0.028123 0.055215
C41   C     C_R   0.083440 0.512154 0.053209 0.001520
C42   C     C_R   0.066745 0.596700 0.028199 -0.015425
C43   C     C_R   0.130354 0.344552 0.051688 -0.028689
C44   C     C_R   0.942179 0.669331 0.101927 -0.056525
C45   C     C_3   0.915476 0.215576 0.336729 0.248720
C46   C     C_R   0.135392 0.681858 0.954407 -0.032207
C47   C     C_R   0.175616 0.681469 0.904963 -0.050727
C48   C     C_R   0.987438 0.674633 0.052767 0.393531
C49   C     C_R   0.680627 0.062794 0.470247 -0.031182
C50   C     C_R   0.508083 0.197068 0.498880 -0.035239
C51   C     C_R   0.373174 0.228616 0.523242 -0.223240
C52   C     C_R   0.276683 0.166507 0.544054 0.017557
C53   C     C_R   0.317615 0.071367 0.541744 -0.054368
C54   C     C_R   0.454368 0.037932 0.518542 0.045726
C55   C     C_R   0.549784 0.100113 0.495901 -0.016383
C56   C     C_3   0.024089 0.735588 0.570584 0.256582
C57   C     C_R   0.626019 0.905466 0.492017 0.029995
C58   C     C_R   0.719838 0.966616 0.468398 0.038840
C59   C     C_R   0.667402 0.808814 0.489851 0.079753
C60   C     C_R   0.797815 0.774347 0.465203 -0.267790
C61   C     C_R   0.895589 0.834859 0.444899 -0.001035
C62   C     C_R   0.855372 0.930644 0.445074 -0.124605
C63   C     C_R   0.494357 0.942433 0.517085 0.057364
C64   C     C_3   0.011468 0.841328 0.578486 -0.305585
C65   C     C_3   0.474858 0.253706 0.379396 0.640211
C66   C     C_3   0.450466 0.150072 0.365172 0.330140
H1    H     H_    0.755213 0.228605 0.612813 0.083234
H2    H     H_    0.010776 0.179257 0.315954 0.101312
H3    H     H_    0.824684 0.164064 0.343247 0.010427
H4    H     H_    0.906920 0.707937 0.558321 -0.004336
H5    H     H_    0.108233 0.717955 0.541246 0.083592
H6    H     H_    0.943890 0.860946 0.611744 0.197549
H7    H     H_    0.951008 0.872086 0.545780 0.082752
H8    H     H_    0.130963 0.870838 0.583957 0.164379
H9    H     H_    0.381685 0.280777 0.403470 0.039413
H10   H     H_    0.824110 0.123591 0.682182 0.081511
H11   H     H_    0.540792 0.124044 0.338958 0.008630
H12   H     H_    0.464387 0.111175 0.399263 -0.064149
H13   H     H_    0.550880 0.197731 0.613459 -0.025027
H14   H     H_    0.666058 0.843561 0.687542 0.135806
H15   H     H_    0.777023 0.741260 0.668193 0.097712
H16   H     H_    0.115082 0.884267 0.272259 -0.004620
H17   H     H_    0.303722 0.839289 0.292815 0.034462
H18   H     H_    0.698179 0.757679 0.366013 -0.021988
H19   H     H_    0.636448 0.838886 0.275607 0.186145
H20   H     H_    0.718370 0.901070 0.331919 0.091292
H21   H     H_    0.291398 0.182685 0.645427 -0.063926
H22   H     H_    0.516220 0.912598 0.314522 0.055391
H23   H     H_    0.145320 0.449658 0.284458 0.153005
H24   H     H_    0.092969 0.276848 0.117719 0.128547
H25   H     H_    0.542113 0.451634 0.758590 0.113127
H26   H     H_    0.352188 0.290525 0.885454 0.192277
H27   H     H_    0.141814 0.277364 0.031823 0.149652
H28   H     H_    0.668579 0.548158 0.242144 0.113192
H29   H     H_    0.878388 0.727848 0.119331 0.133727
H30   H     H_    0.123548 0.749828 0.973200 0.125450
H31   H     H_    0.180079 0.747700 0.888156 0.146095
H32   H     H_    0.885223 0.589095 0.383713 0.053912
H33   H     H_    0.299902 0.400522 0.621086 0.015849
H34   H     H_    0.339431 0.301976 0.524447 0.060070
H35   H     H_    0.241003 0.023202 0.557087 0.114971
H36   H     H_    0.932641 0.976872 0.428667 0.142729
H37   H     H_    0.831551 0.701074 0.465740 0.014149
H38   H     H_    0.751299 0.107525 0.450789 0.128377
H39   H     H_    0.177014 0.284128 0.710629 -0.031651
H40   H     H_    0.420505 0.897833 0.535757 0.111966
H41   H     H_    0.045012 0.195495 0.725012 0.059264
H42   H     H_    0.896475 0.299819 0.405996 0.051084
N1    N     N_R   0.947710 0.504548 0.202744 -0.433140
N2    N     N_R   0.280779 0.512105 0.800737 -0.437853
O1    O     O_2   0.918080 0.549800 0.616640 -0.431192
O2    O     O_3   0.624745 0.268548 0.402762 -0.683929
O3    O     O_3   0.044363 0.186655 0.630063 -0.650908
O4    O     O_2   0.271610 0.450170 0.383330 -0.396750
O5    O     O_3   0.039630 0.450200 0.443530 -0.511594
O6    O     O_3   0.531440 0.620360 0.408460 -0.440549
O7    O     O_3   0.123989 0.301563 0.381624 -0.608762
O8    O     O_3   0.643350 0.612530 0.521650 -0.434732
O9    O     O_3   0.127390 0.668260 0.431510 -0.432640
O10   O     O_2   0.207442 0.838899 0.462754 -0.447475
O11   O     O_3   0.128214 0.835044 0.367691 -0.618610
O12   O     O_3   0.150070 0.549720 0.556460 -0.480391
O13   O     O_3   0.546340 0.387390 0.478340 -0.468593
O14   O     O_2   0.398940 0.728800 0.517420 -0.431670
O15   O     O_3   0.631439 0.779379 0.590695 -0.668476
O16   O     O_2   0.419214 0.536572 0.323949 -0.367215
O17   O     O_3   0.525819 0.701822 0.314359 -0.541651
O18   O     O_2   0.028202 0.353259 0.199829 -0.600768
O19   O     O_2   0.327308 0.357031 0.803140 -0.536513
O20   O     O_2   0.861161 0.654048 0.198002 -0.502297
O21   O     O_2   0.253738 0.669205 0.806612 -0.511665
O22   O     O_3   0.658250 0.379560 0.591530 -0.476320
O23   O     O_2   0.806350 0.421830 0.676732 -0.495867
O24   O     O_3   0.076728 0.699355 0.615821 -0.609166
O25   O     O_3   0.638514 0.273463 0.676631 -0.604572
O26   O     O_2   0.790750 0.271170 0.482550 -0.430600
O27   O     O_3   0.062300 0.331660 0.568480 -0.485148
O28   O     O_2   0.949668 0.167689 0.537466 -0.390881
P1    P     P_3+3 0.090020 0.577590 0.608380 1.104095
P2    P     P_3+3 0.614340 0.285150 0.467650 0.966452
P3    P     P_3+3 0.088968 0.210769 0.569822 1.018835
P4    P     P_3+3 0.099670 0.422330 0.391610 1.056962
P5    P     P_3+3 0.087093 0.789366 0.425069 1.061908
P6    P     P_3+3 0.643283 0.386980 0.655891 0.997736
P7    P     P_3+3 0.582278 0.730719 0.529961 1.056125
P8    P     P_3+3 0.558904 0.596869 0.344440 1.119327
O29   O     O_3   0.846693 0.288427 0.309552 -0.675979
C67   C     C_3   0.786909 0.251187 0.262559 0.235105
H43   H     H_    0.693867 0.199607 0.266348 0.059673
H44   H     H_    0.882605 0.218348 0.240448 0.073844
H45   H     H_    0.732431 0.308945 0.241588 0.110157
Cl1   Cl    Cl    0.460974 0.314624 0.323731 -0.647244
O30   O     O_3   0.296629 0.138967 0.343129 -0.604884
C68   C     C_3   0.272838 0.044519 0.327864 0.214883
H46   H     H_    0.145162 0.034615 0.318768 0.061623
H47   H     H_    0.308503 0.997312 0.357885 0.104645
H48   H     H_    0.335216 0.025538 0.293449 0.025705
Cl2   Cl    Cl    0.770956 0.034396 0.605735 -0.695142
O31   O     O_3   0.404451 0.810661 0.630596 -0.657256
C69   C     C_3   0.324201 0.807006 0.674858 0.296996
H49   H     H_    0.384280 0.849799 0.705897 0.146498
H50   H     H_    0.308363 0.734390 0.685098 0.102144
H51   H     H_    0.204726 0.838635 0.669243 0.132490
Cl3   Cl    Cl    0.496413 0.632876 0.620300 -0.745909
Cl4   Cl    Cl    0.606919 0.708826 0.730191 -0.694620
Cl5   Cl    Cl    0.572402 0.060857 0.687957 -0.515397
Cl6   Cl    Cl    0.307082 0.164528 0.756234 -0.451383
Cl7   Cl    Cl    0.190513 0.663883 0.331006 -0.565911
Cl8   Cl    Cl    0.914295 0.753050 0.304310 -0.771633
Cl9   Cl    Cl    0.192772 0.746190 0.224959 -0.594792
Cl10  Cl    Cl    0.456993 0.816464 0.391338 -0.711157
Cl11  Cl    Cl    0.386947 0.266300 0.985406 -0.662133
Cl12  Cl    Cl    0.179289 0.036876 0.661390 -0.609841
O32   O     O_3   0.056787 0.596676 0.720883 -0.618817
C70   C     C_3   0.956426 0.553812 0.752014 0.314158
H52   H     H_    0.983979 0.478509 0.757222 -0.016627
H53   H     H_    0.833845 0.559720 0.735899 0.132160
H54   H     H_    0.957202 0.593018 0.788879 0.062440
O33   O     O_3   0.928507 0.748631 0.026026 -0.646393
C71   C     C_3   0.973158 0.835232 0.050284 0.160787
H55   H     H_    0.095284 0.832981 0.068007 0.042669
H56   H     H_    0.887122 0.859421 0.078068 0.071398
H57   H     H_    0.970585 0.888055 0.022051 0.098794
Cl13  Cl    Cl    0.039825 0.160459 0.424768 -0.771115

loop_
_geom_bond_atom_site_label_1
_geom_bond_atom_site_label_2
_ccdc_geom_bond_type
C25   C46   A    
C66   H12   S    
C53   C54   A    
C4    H14   S    
C5    Cl8   S    
Ba2   P4    S    
C17   C18   A    
C65   H9    S    
O28   P3    D    
C27   Cl11  S    
C66   O30   S    
O31   C69   S    
Ba2   O6    S    
C5    C6    S    
C12   H21   S    
C60   H37   S    
O33   C71   S    
C8    H20   S    
C27   C28   A    
C11   C16   D    
C65   Cl1   S    
C6    H17   S    
C68   H46   S    
C14   P4    S    
C65   O2    S    
Ba1   O13   S    
C22   H33   S    
C13   P8    S    
C23   Cl6   S    
C12   O3    S    
C64   H6    S    
C53   H35   S    
C22   C37   D    
C32   N2    Am   
C54   C55   A    
C34   C45   S    
Ba1   Ba2   S    
O10   P5    D    
C34   O7    S    
C71   H55   S    
C36   P6    S    
O17   P8    S    
Ba1   P2    S    
C2    O25   S    
O4    P4    D    
O27   P3    S    
C25   C42   A    
C56   C64   S    
C2    H13   S    
O11   P5    S    
C14   C15   D    
C70   H53   S    
C39   N2    S    
C15   H23   S    
C22   C36   S    
C7    Cl10  S    
C49   C55   A    
C7    C8    S    
C51   H34   S    
C63   H40   S    
C69   H50   S    
Ba1   O27   S    
C23   H41   S    
O23   P6    D    
C66   H11   S    
C13   C21   S    
C21   H32   S    
C57   C58   A    
O7    P4    S    
C3    O15   S    
Ba1   O1    S    
C2    H1    S    
Ba2   O5    S    
C17   C41   A    
C1    Cl5   S    
C31   C32   A    
C19   C43   A    
O22   P6    S    
O3    P3    S    
C9    C18   A    
C57   C59   A    
C11   H28   S    
C9    N1    Am   
C65   C66   S    
C45   O29   S    
O25   P6    S    
C26   C30   A    
C17   C20   A    
C16   N1    S    
O26   P2    D    
C37   C38   D    
C38   O32   S    
O9    P5    S    
Ba2   O8    S    
O16   P8    D    
C32   O21   D    
C56   O24   S    
C51   C52   A    
C67   H45   S    
C50   P2    S    
C71   H57   S    
C3    O31   S    
C35   C36   S    
C41   C42   A    
C45   H2    S    
O24   P1    S    
C7    H18   S    
C47   H31   S    
C69   H51   S    
C29   C30   A    
O13   P2    S    
C70   H54   S    
C64   H8    S    
O5    P4    S    
C60   C61   A    
C15   C16   S    
C35   H25   S    
C8    H19   S    
Ba1   O5    S    
C3    Cl3   S    
C45   H3    S    
O8    P7    S    
C37   P1    S    
Ba2   O14   S    
C46   C47   A    
C20   C44   A    
C44   H29   S    
C14   C21   D    
Ba2   O12   S    
C11   C13   S    
C34   H42   S    
C1    Cl2   S    
C10   C20   A    
C67   H44   S    
O12   P1    S    
C48   O33   S    
C40   C41   A    
C1    C2    S    
C43   H27   S    
C9    O18   D    
O2    P2    S    
Ba1   O22   S    
O30   C68   S    
C50   C51   A    
C24   C40   A    
C69   H49   S    
Ba2   O9    S    
C42   C48   A    
C62   H36   S    
C12   Cl12  S    
C52   C53   A    
C38   C39   S    
C4    H15   S    
C10   O20   D    
C6    H16   S    
C68   H48   S    
C23   H39   S    
C5    O11   S    
Ba2   O4    S    
O14   P7    D    
C7    O17   S    
C46   H30   S    
C44   C48   A    
C24   C26   A    
C58   C62   A    
C61   P5    S    
C30   C31   A    
C68   H47   S    
C59   P7    S    
C33   O19   D    
C28   H26   S    
O29   C67   S    
C57   C63   A    
C28   C29   A    
C56   H4    S    
C3    C4    S    
Ba1   O8    S    
C49   H38   S    
C64   H7    S    
C29   C33   A    
O6    P8    S    
O1    P1    D    
C52   P3    S    
C34   Cl13  S    
C12   C23   S    
C35   C39   D    
C59   C60   A    
C71   H56   S    
Ba1   O12   S    
Ba1   P1    S    
C50   C55   A    
C33   N2    Am   
O32   C70   S    
C61   C62   A    
Ba2   O13   S    
C6    Cl9   S    
C18   C19   A    
C8    H22   S    
C24   C27   A    
C70   H52   S    
C5    Cl7   S    
C25   C26   A    
C67   H43   S    
C49   C58   A    
C4    Cl4   S    
C1    H10   S    
C31   C47   A    
C40   C43   A    
C10   N1    Am   
Ba1   O26   S    
C54   C63   A    
C56   H5    S    
O15   P7    S    
C19   H24   S    
