data_mof_unit_4322.cif
_audit_creation_date              2012-12-11T15:53:57-0500
_audit_creation_method            fapswitch 2.2
_symmetry_space_group_name_H-M    P1
_symmetry_Int_Tables_number       1
_space_group_crystal_system       triclinic
_cell_length_a                    10.648207
_cell_length_b                    10.697952
_cell_length_c                    17.012802
_cell_angle_alpha                 80.724894
_cell_angle_beta                  99.235282
_cell_angle_gamma                 118.725724
_cell_volume                      1669.53306365

loop_
_atom_site_label
_atom_site_type_symbol
_atom_type_description
_atom_site_fract_x
_atom_site_fract_y
_atom_site_fract_z
_atom_type_partial_charge
C1    C     C_R   0.384433 0.284290 0.632014 0.556781
C2    C     C_R   0.393951 0.830668 0.674543 -0.136017
C3    C     C_R   0.377185 0.852533 0.750317 -0.151219
C4    C     C_3   0.126237 0.459148 0.792273 -0.246654
C5    C     C_3   0.145293 0.434985 0.710433 -0.251543
C6    C     C_R   0.314561 0.693390 0.646830 0.014120
C7    C     C_1   0.850542 0.669314 0.702605 -0.033440
C8    C     C_1   0.897541 0.703558 0.769294 -0.036592
C9    C     C_1   0.364726 0.233230 0.714328 -0.054950
C10   C     C_1   0.333617 0.186395 0.781552 -0.054497
C11   C     C_1   0.335398 0.663792 0.277797 -0.046138
C12   C     C_R   0.369365 0.654953 0.586034 0.539966
C13   C     C_1   0.323039 0.673044 0.206995 -0.052086
C14   C     C_R   0.874678 0.688226 0.169039 0.021124
C15   C     C_R   0.925403 0.609354 0.226222 0.033611
C16   C     C_R   0.913168 0.602245 0.305767 0.015488
C17   C     C_R   0.832329 0.782031 0.276125 -0.153778
C18   C     C_R   0.842245 0.786401 0.194951 -0.156789
C19   C     C_3   0.897956 0.457834 0.231202 -0.265932
C20   C     C_3   0.882917 0.448503 0.319280 -0.273284
C21   C     C_R   0.851457 0.676729 0.330649 0.017715
C22   C     C_R   0.305886 0.132477 0.168591 0.017273
C23   C     C_R   0.781220 0.621090 0.626175 0.545166
C24   C     C_R   0.186980 0.115043 0.202307 0.040573
C25   C     C_R   0.192766 0.123879 0.281860 0.026148
C26   C     C_R   0.430835 0.141802 0.301246 -0.157328
C27   C     C_R   0.423910 0.132921 0.219600 -0.159225
C28   C     C_3   0.095690 0.187998 0.177760 -0.270562
C29   C     C_3   0.101598 0.199616 0.265682 -0.266690
C30   C     C_R   0.320056 0.151151 0.331076 0.015895
C31   C     C_R   0.947320 0.724735 0.851596 0.538400
C32   C     C_R   0.281911 0.750877 0.882833 0.550766
C33   C     C_R   0.286620 0.118450 0.858383 0.535602
C34   C     C_R   0.350130 0.223557 0.401131 0.558868
C35   C     C_R   0.894885 0.694475 0.086800 0.559064
C36   C     C_R   0.313043 0.700577 0.123823 0.558255
C37   C     C_R   0.283678 0.104323 0.086508 0.548884
C38   C     C_R   0.364941 0.654239 0.360857 0.553192
C39   C     C_R   0.776148 0.624795 0.401533 0.551771
C40   C     C_R   0.280185 0.737856 0.798451 -0.000967
C41   C     C_R   0.180467 0.613766 0.762364 0.009898
C42   C     C_R   0.197541 0.591610 0.687795 0.012603
Cr1   Cr    Cr6+3 0.608440 0.389080 0.519680 1.012905
Cr2   Cr    Cr6+3 0.288640 0.400090 0.490760 1.003607
Cr3   Cr    Cr6+3 0.602940 0.710800 0.489510 1.017786
Cr4   Cr    Cr6+3 0.052530 0.947560 0.964210 1.021864
Cr5   Cr    Cr6+3 0.059970 0.626800 0.992920 1.007447
Cr6   Cr    Cr6+3 0.373320 0.938440 0.995370 1.012883
H1    H     H_    0.479684 0.916467 0.642118 0.148145
H2    H     H_    0.795826 0.388859 0.196564 0.140400
H3    H     H_    0.771863 0.372165 0.334403 0.158268
H4    H     H_    0.969780 0.434268 0.358955 0.144945
H5    H     H_    0.528136 0.155815 0.338759 0.129605
H6    H     H_    0.512237 0.131854 0.196294 0.134000
H7    H     H_    0.986480 0.115493 0.151374 0.142307
H8    H     H_    0.152162 0.293365 0.142527 0.142359
H9    H     H_    0.159578 0.313051 0.279697 0.163255
H10   H     H_    0.995358 0.134523 0.290004 0.132857
H11   H     H_    0.448193 0.954773 0.773624 0.143055
H12   H     H_    0.011696 0.407355 0.804839 0.152457
H13   H     H_    0.200165 0.440103 0.840951 0.159910
H14   H     H_    0.230502 0.402856 0.712112 0.149212
H15   H     H_    0.041842 0.368849 0.675907 0.150357
H16   H     H_    0.792476 0.848260 0.293932 0.140094
H17   H     H_    0.994066 0.450241 0.220149 0.147560
O1    O     O_R   0.754020 0.497590 0.609930 -0.514793
O2    O     O_R   0.295080 0.533620 0.397890 -0.511861
O3    O     O_R   0.485280 0.746620 0.388440 -0.511059
O4    O     O_R   0.720550 0.696220 0.420010 -0.506356
O5    O     O_3   0.500010 0.499990 0.499980 -0.261785
O6    O     O_R   0.163320 0.092900 0.874450 -0.512529
O7    O     O_R   0.934650 0.822080 0.882840 -0.479011
O8    O     O_R   0.915520 0.604140 0.893670 -0.509199
O9    O     O_R   0.191760 0.638110 0.923230 -0.511100
O10   O     O_R   0.406180 0.826930 0.920660 -0.502927
O11   O     O_R   0.358620 0.062870 0.901950 -0.516963
O12   O     O_R   0.481420 0.271390 0.600630 -0.490668
O13   O     O_R   0.163910 0.085460 0.050210 -0.516149
O14   O     O_R   0.935200 0.815170 0.045770 -0.495574
O15   O     O_R   0.916120 0.596690 0.069430 -0.514403
O16   O     O_R   0.192310 0.631200 0.086170 -0.503304
O17   O     O_R   0.406770 0.819480 0.096420 -0.506122
O18   O     O_R   0.359170 0.055960 0.064880 -0.503255
O19   O     O_3   0.161940 0.837600 0.984160 -0.291046
O20   O     O_R   0.263810 0.254550 0.589590 -0.508978
O21   O     O_R   0.300820 0.531200 0.560890 -0.514179
O22   O     O_R   0.491480 0.744020 0.564270 -0.517855
O23   O     O_R   0.726290 0.693800 0.583010 -0.493969
O24   O     O_R   0.747830 0.500190 0.434090 -0.522758
O25   O     O_R   0.475680 0.273800 0.437630 -0.502847
O26   O     O_R   0.257620 0.257160 0.413750 -0.519986
H18   H     H_    0.816545 0.859761 0.152524 0.129928

loop_
_geom_bond_atom_site_label_1
_geom_bond_atom_site_label_2
_ccdc_geom_bond_type
C5    C42   S    
C16   C21   A    
C1    O12   A    
C41   C42   A    
C14   C18   A    
C19   C20   S    
C32   O10   A    
C28   H8    S    
C27   H6    S    
C7    C8    T    
C15   C19   S    
C26   C27   A    
Cr1   O24   S    
C23   O1    A    
C28   C29   S    
Cr3   O22   S    
C20   H3    S    
C17   H16   S    
C6    C12   S    
Cr4   O14   S    
C31   O8    A    
C4    C41   S    
C15   C16   A    
C35   O15   A    
C5    H15   S    
Cr6   O11   S    
C34   O26   A    
C36   O17   A    
Cr2   O5    S    
C9    C10   T    
Cr4   O7    S    
C32   C40   S    
C25   C29   S    
Cr6   O10   S    
C2    C6    A    
Cr5   O15   S    
Cr2   O21   S    
C28   H7    S    
C1    O20   A    
Cr1   O25   S    
C30   C34   S    
Cr3   O4    S    
Cr3   O23   S    
C1    C9    S    
C24   C25   A    
Cr5   O8    S    
C13   C36   S    
C14   C35   S    
Cr4   O13   S    
C22   C37   S    
C4    H13   S    
C17   C21   A    
Cr6   O19   S    
C11   C38   S    
C34   O25   A    
C2    H1    S    
C33   O11   A    
C21   C39   S    
C36   O16   A    
C16   C20   S    
C4    H12   S    
Cr3   O3    S    
C17   C18   A    
C39   O4    A    
Cr5   O19   S    
C29   H10   S    
Cr4   O6    S    
Cr2   O26   S    
Cr4   O19   S    
C31   O7    A    
C29   H9    S    
C3    C40   A    
C26   C30   A    
Cr1   O5    S    
C23   O23   A    
C22   C24   A    
Cr2   O20   S    
C26   H5    S    
C25   C30   A    
C40   C41   A    
C12   O22   A    
Cr3   O5    S    
C8    C31   S    
C24   C28   S    
Cr5   O9    S    
C38   O3    A    
C4    C5    S    
Cr1   O12   S    
C37   O13   A    
Cr6   O18   S    
C12   O21   A    
C22   C27   A    
C18   H18   S    
C2    C3    A    
C20   H4    S    
C32   O9    A    
C11   C13   T    
C19   H2    S    
Cr1   O1    S    
C7    C23   S    
C35   O14   A    
Cr6   O17   S    
C5    H14   S    
C19   H17   S    
C10   C33   S    
Cr5   O16   S    
C33   O6    A    
C38   O2    A    
C6    C42   A    
C14   C15   A    
C37   O18   A    
Cr2   O2    S    
C39   O24   A    
C3    H11   S    
