data_mof_unit_693.cif
_audit_creation_date              2013-03-05T15:52:30-0500
_audit_creation_method            fapswitch 2.2
_symmetry_space_group_name_H-M    P1
_symmetry_Int_Tables_number       1
_space_group_crystal_system       triclinic
_cell_length_a                    27.769256
_cell_length_b                    10.848047
_cell_length_c                    9.635886
_cell_angle_alpha                 91.568857
_cell_angle_beta                  90.968766
_cell_angle_gamma                 94.838369
_cell_volume                      2890.76947865

loop_
_atom_site_label
_atom_site_type_symbol
_atom_site_description
_atom_site_fract_x
_atom_site_fract_y
_atom_site_fract_z
_atom_type_partial_charge
O1    O     O_R   0.500000 0.319640 0.618810 -0.588214
O2    O     O_R   0.500000 0.319660 0.381240 -0.539890
C1    C     C_R   0.503164 0.263868 0.498407 0.803196
O3    O     O_R   0.430260 0.500010 0.618770 -0.589350
O4    O     O_R   0.430270 0.500030 0.381200 -0.563504
C2    C     C_R   0.407509 0.499533 0.499180 0.845113
Cu1   Cu    Cu3+1 0.500000 0.499990 0.640660 0.958549
Cu2   Cu    Cu3+1 0.500000 0.500010 0.359340 1.033632
O5    O     O_R   0.500000 0.680340 0.618760 -0.624634
O6    O     O_R   0.500000 0.680360 0.381190 -0.507721
O7    O     O_R   0.569730 0.499970 0.618800 -0.613362
O8    O     O_R   0.569740 0.499990 0.381230 -0.559952
C3    C     C_R   0.498123 0.737766 0.503027 0.894413
C4    C     C_R   0.592292 0.496095 0.500929 0.834779
C5    C     C_R   0.174836 0.383689 0.498166 0.628185
O9    O     O_2   0.198243 0.279996 0.503274 -0.444856
N1    N     N_R   0.201381 0.495632 0.493760 -0.462033
C6    C     C_R   0.179901 0.603752 0.483986 0.604607
C7    C     C_R   0.278567 0.517480 0.376093 -0.089896
C8    C     C_R   0.328686 0.517863 0.375712 -0.144712
C9    C     C_R   0.329064 0.482063 0.622667 -0.235049
C10   C     C_R   0.278532 0.482872 0.625158 0.008569
C11   C     C_R   0.253193 0.499748 0.499343 0.265692
C12   C     C_R   0.101025 0.488826 0.484988 -0.095668
C13   C     C_R   0.123721 0.377263 0.496583 -0.110661
C14   C     C_R   0.094356 0.265132 0.509731 0.425071
C15   C     C_R   0.129458 0.602586 0.479788 -0.015060
C16   C     C_R   0.354395 0.499454 0.498665 -0.070867
H1    H     H_    0.348805 0.468870 0.718335 0.200416
C17   C     C_R   0.644871 0.485750 0.502291 -0.044090
C18   C     C_R   0.970311 0.370743 0.454929 0.000276
C19   C     C_R   0.976600 0.597387 0.493916 0.042687
C20   C     C_R   0.948136 0.482588 0.478224 0.070281
C21   C     C_R   0.940308 0.261853 0.413886 -0.048393
C22   C     C_R   0.890061 0.260710 0.425356 -0.167123
C23   C     C_R   0.868287 0.367914 0.463104 -0.047043
C24   C     C_R   0.897110 0.479847 0.485625 -0.043618
C25   C     C_R   0.874797 0.589216 0.515452 -0.039935
C26   C     C_R   0.824267 0.584193 0.523735 0.572814
N2    N     N_R   0.796964 0.474324 0.501598 -0.475639
C27   C     C_R   0.817790 0.367188 0.471607 0.557862
C28   C     C_R   0.719235 0.468406 0.376955 -0.050870
C29   C     C_R   0.669323 0.474216 0.376707 -0.129018
C30   C     C_R   0.671059 0.485109 0.628358 -0.159662
C31   C     C_R   0.721126 0.480171 0.628452 -0.050553
C32   C     C_R   0.745347 0.473068 0.502623 0.316562
O10   O     O_2   0.789683 0.260509 0.449742 -0.499969
C33   C     C_R   0.021271 0.372870 0.475337 0.002788
C34   C     C_R   0.049816 0.487236 0.479688 0.077945
C35   C     C_R   0.027509 0.600152 0.481314 0.052196
C36   C     C_R   0.044221 0.264872 0.501685 -0.187215
H2    H     H_    0.649981 0.470211 0.278058 0.167265
H3    H     H_    0.737784 0.462081 0.279388 0.161231
H4    H     H_    0.867631 0.176825 0.397046 0.224299
H5    H     H_    0.023314 0.178757 0.521165 0.171199
O11   O     O_2   0.207430 0.712209 0.479697 -0.497362
C37   C     C_R   0.107065 0.712943 0.471157 -0.095735
H6    H     H_    0.347241 0.533314 0.279272 0.196566
H7    H     H_    0.259176 0.530540 0.279855 0.164980
H8    H     H_    0.128177 0.801203 0.464695 0.223645
C38   C     C_R   0.953156 0.705406 0.524308 -0.173989
C39   C     C_R   0.903226 0.701069 0.535361 -0.096345
O12   O     O_2   0.802500 0.688433 0.551955 -0.466615
C40   C     C_R   0.057056 0.712060 0.472732 -0.180707
H9    H     H_    0.972662 0.794410 0.544880 0.163980
H10   H     H_    0.652992 0.489351 0.726739 0.176162
H11   H     H_    0.886980 0.786251 0.559581 0.207305
H12   H     H_    0.741141 0.482621 0.726044 0.159921
H13   H     H_    0.042429 0.800550 0.463736 0.169219
H14   H     H_    0.467622 0.105136 0.302630 0.220480
C41   C     C_R   0.560355 0.142857 0.704415 -0.140701
H15   H     H_    0.574335 0.236990 0.685877 0.143653
C42   C     C_R   0.574505 0.090465 0.827040 -0.093777
H16   H     H_    0.597735 0.144309 0.901647 0.150889
C43   C     C_R   0.556653 0.971010 0.856436 -0.059620
H17   H     H_    0.564761 0.932773 0.955989 0.178188
C44   C     C_R   0.528081 0.900455 0.758144 -0.151878
H18   H     H_    0.511967 0.814309 0.794346 0.179159
C45   C     C_R   0.517722 0.946766 0.625336 0.097044
C46   C     C_R   0.528919 0.074499 0.607632 0.106471
C47   C     C_R   0.507618 0.131326 0.495339 -0.130675
C48   C     C_R   0.483844 0.060341 0.388488 -0.218940
C49   C     C_R   0.477924 0.932430 0.393871 -0.026535
C50   C     C_R   0.496075 0.873205 0.510795 -0.160978
C51   C     C_R   0.582188 0.628626 0.140415 0.252323
C52   C     C_R   0.623306 0.658357 0.060354 0.285605
C53   C     C_R   0.617123 0.673867 0.919595 0.258862
C54   C     C_R   0.573001 0.637129 0.857700 -0.318166
H19   H     H_    0.568130 0.666425 0.754294 0.251894
C55   C     C_R   0.536929 0.566059 0.927415 0.095730
C56   C     C_R   0.538685 0.564844 0.076776 0.064831
N3    N     N_R   0.500460 0.501210 0.147910 -0.206818
C57   C     C_R   0.463276 0.440503 0.067763 0.054889
H20   H     H_    0.435255 0.389506 0.860556 0.160055
C58   C     C_R   0.464231 0.439647 0.920760 -0.051314
N4    N     N_R   0.500480 0.501290 0.852040 -0.184945
C59   C     C_2   0.253447 0.467357 0.759805 0.897767
O13   O     O_2   0.273668 0.421548 0.857190 -0.551048
O14   O     O_R   0.207213 0.506800 0.777215 -0.751089
H21   H     H_    0.194332 0.490997 0.873526 0.347641
C60   C     C_2   0.448678 0.865288 0.280535 0.897165
O15   O     O_2   0.453957 0.896213 0.160206 -0.583396
O16   O     O_R   0.413996 0.769566 0.311740 -0.763684
H22   H     H_    0.396422 0.731676 0.225739 0.336922
C61   C     C_2   0.419766 0.376236 0.127524 0.861284
O17   O     O_2   0.379835 0.397110 0.082998 -0.599082
O18   O     O_R   0.423624 0.285889 0.226004 -0.743067
H23   H     H_    0.390998 0.247988 0.256386 0.332309
Cl1   Cl    Cl    0.584819 0.734641 0.282278 -0.521311
Cl2   Cl    Cl    0.680349 0.705716 0.138797 -0.453064
Cl3   Cl    Cl    0.662327 0.751688 0.820417 -0.484378
Cl4   Cl    Cl    0.116957 0.120784 0.540777 -0.521931
C62   C     C_2   0.958783 0.154774 0.338238 0.838215
O19   O     O_2   0.940246 0.049957 0.354750 -0.586888
O20   O     O_R   0.996454 0.174319 0.244697 -0.732181
H24   H     H_    0.005750 0.094466 0.199463 0.351992

loop_
_geom_bond_atom_site_label_1
_geom_bond_atom_site_label_2
_geom_bond_distance
_ccdc_geom_bond_type
C53   C54   1.376824 A    
C60   O15   1.223593 D    
C35   C40   1.411940 A    
C42   H16   1.082544 S    
C30   H10   1.081714 S    
C58   N4    1.353568 A    
C12   C15   1.410395 A    
C47   C48   1.391675 A    
C51   C56   1.457702 A    
Cu1   Cu2   2.710773 S    
C44   H18   1.071360 S    
C21   C62   1.486833 S    
N2    C32   1.432463 S    
Cu1   N4    2.036308 S    
C61   O18   1.392022 S    
C3    C50   1.475041 S    
N1    C11   1.435755 S    
C39   H11   1.083491 S    
C23   C24   1.406368 A    
C52   Cl2   1.773535 S    
C19   C38   1.413884 A    
C51   Cl1   1.758674 S    
C28   H3    1.082916 S    
C51   C52   1.408617 A    
O4    C2    1.309954 A    
O7    C4    1.307757 A    
C29   H2    1.081898 S    
C5    C13   1.415060 A    
C53   Cl3   1.762863 S    
C5    O9    1.347413 S    
Cu1   O5    1.973529 S    
C21   C22   1.400583 A    
C28   C32   1.398377 A    
O5    C3    1.294606 A    
C57   C61   1.476796 S    
C33   C36   1.407100 A    
C2    C16   1.474811 S    
C7    C8    1.391490 A    
C1    C47   1.453028 S    
O18   H23   1.014061 S    
C18   C20   1.420377 A    
Cu2   N3    2.037962 S    
C6    O11   1.349948 S    
C60   O16   1.398006 S    
C10   C59   1.489851 S    
C9    C10   1.404619 A    
C22   H4    1.084214 S    
C42   C43   1.386258 A    
C17   C30   1.405709 A    
C23   C27   1.405412 A    
C38   C39   1.389339 A    
C4    C17   1.473665 S    
O3    Cu1   1.944554 S    
C41   C46   1.416715 A    
C59   O14   1.398413 S    
C59   O13   1.223772 D    
C44   C45   1.421251 A    
C12   C13   1.417063 A    
O3    C2    1.304444 A    
C15   C37   1.398580 A    
C26   N2    1.367148 A    
C41   C42   1.390092 A    
C52   C53   1.380921 A    
C37   H8    1.083557 S    
C8    C16   1.400580 A    
C7    H7    1.083128 S    
C13   C14   1.416067 A    
C31   C32   1.399871 A    
C9    H1    1.083587 S    
C20   C24   1.417802 A    
O1    C1    1.301451 A    
C22   C23   1.397594 A    
Cu1   O7    1.951328 S    
C43   H17   1.083152 S    
C24   C25   1.409087 A    
C49   C50   1.418196 A    
Cu2   O8    1.944549 S    
C31   H12   1.082781 S    
N1    C6    1.364743 A    
C27   O10   1.349640 S    
C18   C21   1.429408 A    
C40   H13   1.078491 S    
C43   C44   1.394569 A    
C19   C35   1.418818 A    
Cu2   O6    1.962002 S    
C33   C34   1.414007 A    
C9    C16   1.405873 A    
C54   C55   1.403520 A    
C48   C49   1.385947 A    
C18   C33   1.423583 A    
C17   C29   1.405311 A    
C28   C29   1.392723 A    
C8    H6    1.080423 S    
C14   Cl4   1.766492 S    
C56   N3    1.414211 A    
C30   C31   1.395837 A    
C7    C11   1.400664 A    
C37   C40   1.388292 A    
C62   O19   1.223576 D    
C12   C34   1.420721 A    
C5    N1    1.368479 A    
N2    C27   1.367247 A    
C49   C60   1.486406 S    
C45   C50   1.436917 A    
O1    Cu1   1.962002 S    
O2    Cu2   1.973529 S    
C6    C15   1.399650 A    
O8    C4    1.306537 A    
C46   C47   1.406108 A    
O6    C3    1.317697 A    
O4    Cu2   1.951331 S    
C55   N4    1.368549 A    
C26   O12   1.349832 S    
C61   O17   1.223321 D    
O14   H21   1.014001 S    
C19   C20   1.420618 A    
O2    C1    1.300662 A    
C41   H15   1.082051 S    
C14   C36   1.392821 A    
C55   C56   1.439683 A    
C25   C26   1.403344 A    
N3    C57   1.388088 A    
C36   H5    1.080176 S    
H20   C58   1.083029 S    
H14   C48   1.081599 S    
C45   C46   1.409919 A    
C38   H9    1.078229 S    
C54   H19   1.064022 S    
C57   C58   1.416982 A    
C34   C35   1.418327 A    
O16   H22   1.013749 S    
C10   C11   1.415422 A    
C25   C39   1.397447 A    
O20   H24   1.013834 S    
C62   O20   1.398798 S    
