data_mof_unit_955.cif
_audit_creation_date              2013-03-05T16:45:56-0500
_audit_creation_method            fapswitch 2.2
_symmetry_space_group_name_H-M    P1
_symmetry_Int_Tables_number       1
_space_group_crystal_system       triclinic
_cell_length_a                    9.85068
_cell_length_b                    10.675092
_cell_length_c                    16.808551
_cell_angle_alpha                 89.397328
_cell_angle_beta                  95.291853
_cell_angle_gamma                 90.124248
_cell_volume                      1759.90318541

loop_
_atom_site_label
_atom_site_type_symbol
_atom_site_description
_atom_site_fract_x
_atom_site_fract_y
_atom_site_fract_z
_atom_type_partial_charge
O1    O     O_R   0.614690 0.316790 0.499990 -0.616773
O2    O     O_R   0.385350 0.316760 0.500000 -0.607436
C1    C     C_R   0.500337 0.259840 0.502545 0.897515
O3    O     O_R   0.627460 0.498860 0.616130 -0.620661
O4    O     O_R   0.398120 0.498820 0.616130 -0.598797
C2    C     C_R   0.518667 0.500350 0.653240 0.883737
Zn1   Zn    Zn3+2 0.653130 0.500020 0.499990 0.953291
Zn2   Zn    Zn3+2 0.346870 0.499980 0.500010 0.974619
O5    O     O_R   0.614650 0.683240 0.500000 -0.616170
O6    O     O_R   0.385310 0.683210 0.500010 -0.630614
O7    O     O_R   0.601880 0.501180 0.383870 -0.622993
O8    O     O_R   0.372540 0.501140 0.383870 -0.618824
C3    C     C_R   0.500476 0.740065 0.502658 0.876838
C4    C     C_R   0.481199 0.498041 0.346585 0.895986
C5    C     C_R   0.531747 0.493988 0.739525 -0.142953
C6    C     C_R   0.437604 0.555289 0.784247 0.419906
C7    C     C_R   0.439142 0.527936 0.865002 -0.097117
C8    C     C_R   0.536038 0.444215 0.902307 0.234479
C9    C     C_R   0.634706 0.391527 0.858827 -0.140524
C10   C     C_R   0.631952 0.415158 0.777476 -0.231892
C11   C     C_R   0.565893 0.410069 0.143356 -0.191437
C12   C     C_R   0.578964 0.434326 0.224094 -0.214864
C13   C     C_R   0.440442 0.430782 0.097444 0.221999
N1    N     N_2   0.543703 0.420751 0.985023 -0.172681
N2    N     N_2   0.432198 0.434108 0.013177 -0.121299
C14   C     C_R   0.467058 0.477453 0.261002 -0.097073
H1    H     H_    0.677077 0.419346 0.257535 0.182121
H2    H     H_    0.655961 0.379854 0.116539 0.189452
H3    H     H_    0.711692 0.329824 0.887782 0.177956
H4    H     H_    0.704873 0.368136 0.743686 0.177319
C15   C     C_R   0.339844 0.491006 0.217112 -0.280245
C16   C     C_R   0.324775 0.467054 0.135180 0.297359
H5    H     H_    0.252357 0.520687 0.246670 0.202247
H6    H     H_    0.366661 0.575110 0.899059 0.193475
C17   C     C_R   0.625730 0.063892 0.521298 0.142551
C18   C     C_R   0.502358 0.128322 0.515811 -0.130172
C19   C     C_R   0.380914 0.063945 0.526038 -0.144075
H7    H     H_    0.284779 0.112372 0.527281 0.215806
C20   C     C_R   0.381067 0.934583 0.526554 -0.204854
H8    H     H_    0.285004 0.885626 0.528749 0.185607
C21   C     C_R   0.502582 0.871102 0.516139 -0.125878
C22   C     C_R   0.625819 0.936005 0.521320 0.154426
C23   C     C_3   0.741961 0.930011 0.470135 -0.478827
C24   C     C_3   0.741978 0.072083 0.470186 -0.461722
H9    H     H_    0.834905 0.888570 0.502595 0.218939
H10   H     H_    0.712182 0.889679 0.410292 0.203548
H11   H     H_    0.834855 0.112790 0.502767 0.230576
H12   H     H_    0.712320 0.114373 0.410354 0.205168
C25   C     C_R   0.078104 0.413685 0.544741 0.146036
N3    N     N_R   0.142860 0.499130 0.500540 -0.130525
C26   C     C_R   0.064421 0.577418 0.450517 -0.118978
H13   H     H_    0.112989 0.641733 0.411809 0.153673
C27   C     C_R   0.920349 0.577395 0.450484 -0.111416
H14   H     H_    0.859966 0.641754 0.411768 0.150063
N4    N     N_R   0.857210 0.499170 0.500530 -0.103610
C28   C     C_R   0.935253 0.414220 0.544975 0.170434
C29   C     C_3   0.941689 0.399245 0.633518 -0.560724
C30   C     C_3   0.096181 0.399166 0.633662 0.111947
H15   H     H_    0.902551 0.482830 0.662983 0.206975
H16   H     H_    0.896791 0.308793 0.651466 0.232237
H17   H     H_    0.146756 0.480885 0.664512 0.168979
N5    N     N_R   0.158222 0.279003 0.658762 0.242239
O9    O     O_R   0.109097 0.174105 0.629477 -0.420164
O10   O     O_R   0.263620 0.276538 0.711387 -0.360172
N6    N     N_R   0.193461 0.484004 0.090781 0.212306
O11   O     O_R   0.098756 0.548571 0.120706 -0.388586
O12   O     O_R   0.163627 0.427464 0.023182 -0.353906
O13   O     O_3   0.344180 0.642481 0.752063 -0.747907
H18   H     H_    0.377056 0.678989 0.702952 0.334064

loop_
_geom_bond_atom_site_label_1
_geom_bond_atom_site_label_2
_geom_bond_distance
_ccdc_geom_bond_type
C30   N5    1.463356 S    
O4    Zn2   1.970366 S    
C26   C27   1.419155 A    
N4    C28   1.361735 A    
C15   H5    1.083244 S    
C19   H7    1.081891 S    
C6    O13   1.381026 S    
C25   C28   1.407574 A    
C21   C22   1.392646 A    
C28   C29   1.490691 S    
C9    C10   1.385652 A    
C24   H11   1.112052 S    
Zn1   N4    2.009551 S    
Zn2   O8    1.991356 S    
C13   C16   1.410980 A    
C30   H17   1.112686 S    
C3    C21   1.419224 S    
C7    C8    1.408725 A    
C14   C15   1.401265 A    
C19   C20   1.380885 A    
C24   H12   1.112375 S    
C10   H4    1.083209 S    
C27   H14   1.081789 S    
C4    C14   1.451426 S    
N6    O11   1.301943 A    
Zn1   O7    1.970366 S    
C17   C24   1.495495 S    
C23   H9    1.111840 S    
C29   C30   1.521629 S    
N5    O9    1.302191 A    
C1    C18   1.419134 S    
C23   C24   1.516641 S    
O3    Zn1   1.991356 S    
C8    N1    1.405313 S    
O4    C2    1.289549 A    
O3    C2    1.288964 A    
C18   C19   1.401734 A    
C23   H10   1.112353 S    
C11   H2    1.082809 S    
O8    C4    1.289904 A    
O2    C1    1.283567 A    
Zn1   O5    1.993093 S    
C12   H1    1.083597 S    
C27   N4    1.367944 A    
C11   C13   1.411831 A    
C5    C10   1.401996 A    
O7    C4    1.292268 A    
C29   H15   1.111798 S    
N6    O12   1.301451 A    
C7    H6    1.083564 S    
C5    C6    1.412408 A    
C9    H3    1.083146 S    
Zn2   N3    2.010479 S    
C13   N2    1.411306 S    
C26   H13   1.081758 S    
N1    N2    1.244472 D    
C20   C21   1.402623 A    
Zn2   O6    1.991506 S    
C8    C9    1.391826 A    
C12   C14   1.395106 A    
O1    Zn1   1.991506 S    
C20   H8    1.083446 S    
C25   N3    1.364370 A    
C17   C22   1.365195 A    
O5    C3    1.283625 A    
C16   N6    1.443264 S    
C29   H16   1.111583 S    
N5    O10   1.300500 A    
N3    C26   1.367701 A    
C2    C5    1.445048 S    
C11   C12   1.378527 A    
O13   H18   0.990043 S    
C15   C16   1.397690 A    
O2    Zn2   1.993094 S    
C25   C30   1.495253 S    
C17   C18   1.392890 A    
C22   C23   1.495412 S    
C6    C7    1.384132 A    
O1    C1    1.282870 A    
O6    C3    1.282821 A    
