data_mof_unit_4578.cif
_audit_creation_date              2012-12-11T16:51:06-0500
_audit_creation_method            fapswitch 2.2
_symmetry_space_group_name_H-M    P1
_symmetry_Int_Tables_number       1
_space_group_crystal_system       triclinic
_cell_length_a                    6.92733
_cell_length_b                    28.802854
_cell_length_c                    32.152568
_cell_angle_alpha                 100.908095
_cell_angle_beta                  89.485046
_cell_angle_gamma                 90.336411
_cell_volume                      6299.07840313

loop_
_atom_site_label
_atom_site_type_symbol
_atom_type_description
_atom_site_fract_x
_atom_site_fract_y
_atom_site_fract_z
_atom_type_partial_charge
O1    O     O_R   0.494350 0.453170 0.452520 -0.545722
O2    O     O_R   0.820980 0.455850 0.538220 -0.539357
O3    O     O_R   0.994300 0.546830 0.547480 -0.541138
C1    C     C_R   0.651446 0.445629 0.551600 0.706841
O4    O     O_R   0.823860 0.447590 0.452270 -0.515443
O5    O     O_R   0.997200 0.538510 0.460920 -0.538451
C2    C     C_R   0.655489 0.434206 0.436872 0.733915
O6    O     O_R   0.491440 0.461490 0.539080 -0.538910
O7    O     O_3   0.661790 0.529840 0.502940 -0.371367
V1    V     V_3+5 0.935470 0.494460 0.499450 1.434535
O8    O     O_R   0.327090 0.544150 0.461780 -0.539864
C3    C     C_R   0.159311 0.553967 0.448202 0.710244
O9    O     O_R   0.324210 0.552410 0.547730 -0.543378
C4    C     C_R   0.154886 0.565331 0.563415 0.687804
V2    V     V_3+5 0.435840 0.505540 0.500550 1.408657
O10   O     O_3   0.159650 0.470160 0.497060 -0.358802
C5    C     C_R   0.225662 0.874328 0.885890 -0.156276
H1    H     H_    0.355070 0.884445 0.904093 0.122983
C6    C     C_R   0.238840 0.838878 0.849634 -0.142926
H2    H     H_    0.376708 0.821999 0.841284 0.103304
C7    C     C_R   0.075490 0.824966 0.824743 0.093764
C8    C     C_R   0.896811 0.845880 0.837822 -0.135795
H3    H     H_    0.768309 0.835340 0.819406 0.107079
C9    C     C_R   0.882909 0.881035 0.874401 -0.161986
H4    H     H_    0.743565 0.896883 0.883305 0.118424
C10   C     C_R   0.047738 0.896079 0.898668 -0.052115
C11   C     C_R   0.975388 0.746872 0.782524 -0.178258
H5    H     H_    0.879333 0.742392 0.808261 0.129587
C12   C     C_R   0.985230 0.711060 0.746483 -0.151204
H6    H     H_    0.897356 0.679649 0.745411 0.123343
C13   C     C_R   0.109698 0.715276 0.712620 0.018631
C14   C     C_R   0.222262 0.756520 0.715477 -0.117353
H7    H     H_    0.315477 0.761124 0.689312 0.135819
C15   C     C_R   0.213051 0.792737 0.751401 0.208751
C16   C     C_R   0.089828 0.787810 0.785777 0.022918
C17   C     C_R   0.300323 0.663533 0.654757 -0.139451
H8    H     H_    0.432436 0.680508 0.667613 0.103711
C18   C     C_R   0.311440 0.627445 0.618863 -0.156573
H9    H     H_    0.451827 0.617939 0.604844 0.120547
C19   C     C_R   0.143697 0.603956 0.601422 -0.054418
C20   C     C_R   0.964682 0.617540 0.620934 -0.158341
H10   H     H_    0.832322 0.600345 0.608480 0.120494
C21   C     C_R   0.953780 0.653472 0.656909 -0.132985
H11   H     H_    0.813473 0.663293 0.670828 0.103877
C22   C     C_R   0.121391 0.676958 0.674294 0.106476
C23   C     C_R   0.088817 0.654417 0.282515 0.556580
N1    N     N_R   0.148062 0.673067 0.322928 -0.568761
C24   C     C_R   0.194555 0.720053 0.334291 0.569845
C25   C     C_R   0.181928 0.750310 0.304784 -0.017246
C26   C     C_R   0.122582 0.731776 0.263080 -0.068870
C27   C     C_R   0.075553 0.683240 0.251409 -0.022035
C28   C     C_R   0.227144 0.798694 0.316117 -0.138944
C29   C     C_R   0.213122 0.828416 0.286625 -0.143241
C30   C     C_R   0.154887 0.810503 0.244897 -0.019307
C31   C     C_R   0.110357 0.762025 0.233064 -0.018543
C32   C     C_R   0.053644 0.743852 0.191280 -0.051733
C33   C     C_R   0.007805 0.695653 0.179754 -0.208148
C34   C     C_R   0.017144 0.665394 0.209164 0.203731
C35   C     C_R   0.139005 0.840018 0.214720 0.572026
N2    N     N_R   0.084997 0.821739 0.173849 -0.550177
C36   C     C_R   0.044248 0.774363 0.161818 0.581905
O11   O     O_2   0.044417 0.608043 0.272546 -0.511862
O12   O     O_2   0.253850 0.737486 0.374069 -0.521838
H12   H     H_    0.272970 0.813864 0.347929 0.169917
H13   H     H_    0.248565 0.865496 0.296658 0.170311
O13   O     O_2   0.175015 0.886729 0.226409 -0.523594
O14   O     O_2   0.996630 0.756566 0.121316 -0.527810
H14   H     H_    0.963242 0.681023 0.147709 0.171487
C37   C     C_R   0.896287 0.855599 0.121630 -0.122889
H15   H     H_    0.773361 0.834812 0.128518 0.129238
C38   C     C_R   0.880510 0.884530 0.090972 0.167453
C39   C     C_R   0.040599 0.912587 0.082622 -0.077524
C40   C     C_R   0.213446 0.909476 0.104730 -0.253822
H16   H     H_    0.338475 0.930344 0.099326 0.170614
C41   C     C_R   0.228278 0.879700 0.134253 -0.102209
H17   H     H_    0.364159 0.877682 0.150197 0.141796
C42   C     C_R   0.069738 0.852638 0.143212 0.339321
C43   C     C_R   0.023387 0.650473 0.388385 -0.133899
H18   H     H_    0.918516 0.678621 0.390930 0.138423
C44   C     C_R   0.021022 0.621161 0.418538 -0.208125
H19   H     H_    0.916114 0.627506 0.444140 0.135596
C45   C     C_R   0.154975 0.584471 0.415980 -0.077635
C46   C     C_R   0.288708 0.577043 0.382426 -0.228593
H20   H     H_    0.390579 0.548267 0.380123 0.133002
C47   C     C_R   0.292554 0.606033 0.351694 0.122697
C48   C     C_R   0.156316 0.643128 0.354452 0.343826
C49   C     C_R   0.729255 0.207006 0.825025 0.580983
N3    N     N_R   0.576174 0.176440 0.825317 -0.554994
C50   C     C_R   0.430670 0.174377 0.796181 0.579039
C51   C     C_R   0.434450 0.203885 0.765861 -0.030155
C52   C     C_R   0.591566 0.234914 0.765031 -0.020990
C53   C     C_R   0.740955 0.236382 0.794651 -0.027152
C54   C     C_R   0.285497 0.202900 0.736259 -0.147471
C55   C     C_R   0.293101 0.232132 0.706167 -0.146158
C56   C     C_R   0.449902 0.263089 0.704888 -0.027655
C57   C     C_R   0.599312 0.264549 0.734503 -0.020928
C58   C     C_R   0.756430 0.295578 0.733674 -0.029586
C59   C     C_R   0.905395 0.296559 0.763272 -0.148917
C60   C     C_R   0.897775 0.267332 0.793368 -0.146894
C61   C     C_R   0.461543 0.292488 0.674532 0.581156
N4    N     N_R   0.614608 0.323059 0.674247 -0.554887
C62   C     C_R   0.760176 0.325099 0.703365 0.577611
O15   O     O_2   0.868863 0.209548 0.854373 -0.529417
O16   O     O_2   0.283625 0.143425 0.796070 -0.526751
H21   H     H_    0.162141 0.179622 0.736288 0.170831
H22   H     H_    0.175365 0.230438 0.683981 0.169458
O17   O     O_2   0.321880 0.289971 0.645200 -0.529230
O18   O     O_2   0.907236 0.356046 0.703473 -0.527838
H23   H     H_    0.028754 0.319835 0.763242 0.170193
H24   H     H_    0.015503 0.269029 0.815556 0.169158
C63   C     C_R   0.785238 0.353293 0.616499 -0.088732
H25   H     H_    0.904927 0.329898 0.618734 0.162520
C64   C     C_R   0.794939 0.383319 0.586999 -0.205506
H26   H     H_    0.922861 0.382564 0.567268 0.141550
C65   C     C_R   0.640393 0.413484 0.582668 -0.057464
C66   C     C_R   0.476369 0.413057 0.608720 -0.206698
H27   H     H_    0.355415 0.436059 0.606379 0.133660
C67   C     C_R   0.468495 0.383733 0.638841 -0.088670
H28   H     H_    0.342430 0.384860 0.659161 0.158205
C68   C     C_R   0.622638 0.353417 0.643023 0.355155
C69   C     C_R   0.405260 0.146298 0.883081 -0.087230
H29   H     H_    0.285521 0.169651 0.880763 0.162337
C70   C     C_R   0.395511 0.116374 0.912665 -0.206136
H30   H     H_    0.267479 0.117153 0.932364 0.138566
C71   C     C_R   0.550161 0.086290 0.917128 -0.057161
C72   C     C_R   0.714261 0.086660 0.891086 -0.206410
H31   H     H_    0.835269 0.063703 0.893512 0.133734
C73   C     C_R   0.722175 0.115874 0.860875 -0.086993
H32   H     H_    0.848332 0.114711 0.840577 0.158705
C74   C     C_R   0.567995 0.146140 0.856589 0.354747
C75   C     C_R   0.723270 0.121774 0.117959 -0.152851
H33   H     H_    0.857157 0.107184 0.103650 0.120070
C76   C     C_R   0.732077 0.158153 0.153607 -0.137435
H34   H     H_    0.872277 0.170155 0.165987 0.100703
C77   C     C_R   0.562325 0.178125 0.173551 0.092593
C78   C     C_R   0.383371 0.160777 0.156814 -0.136940
H35   H     H_    0.249907 0.175677 0.171091 0.100119
C79   C     C_R   0.374457 0.124482 0.121046 -0.153870
H36   H     H_    0.234062 0.112116 0.109057 0.118274
C80   C     C_R   0.544353 0.104413 0.101142 -0.056413
C81   C     C_R   0.444566 0.217302 0.246192 -0.145592
H37   H     H_    0.335638 0.190034 0.245323 0.112519
C82   C     C_R   0.459802 0.252419 0.282701 -0.178650
H38   H     H_    0.362314 0.251774 0.309066 0.120013
C83   C     C_R   0.603598 0.287381 0.285717 0.100102
C84   C     C_R   0.726549 0.287903 0.250876 -0.150320
H39   H     H_    0.835190 0.315323 0.252117 0.111718
C85   C     C_R   0.712527 0.252661 0.214480 -0.152117
H40   H     H_    0.810600 0.253811 0.188280 0.113575
C86   C     C_R   0.572592 0.216591 0.211797 0.083613
C87   C     C_R   0.786689 0.325331 0.352064 0.064952
C88   C     C_R   0.796979 0.361350 0.389186 0.167619
C89   C     C_R   0.646952 0.395089 0.399003 -0.067033
C90   C     C_R   0.486415 0.391628 0.372266 -0.241367
H41   H     H_    0.369675 0.416861 0.379007 0.135903
C91   C     C_R   0.474821 0.356361 0.336106 -0.184844
H42   H     H_    0.349102 0.355013 0.316085 0.129573
C92   C     C_R   0.623763 0.323520 0.325182 0.037816
O19   O     O_R   0.699170 0.038480 0.960880 -0.539464
O20   O     O_R   0.366800 0.052460 0.047690 -0.543659
O21   O     O_R   0.193520 0.961530 0.039110 -0.540174
C93   C     C_R   0.535275 0.065486 0.063334 0.695943
O22   O     O_R   0.369630 0.044100 0.961740 -0.541590
O23   O     O_R   0.196370 0.953120 0.952550 -0.539623
C94   C     C_R   0.539139 0.054274 0.948309 0.703107
O24   O     O_R   0.696320 0.046890 0.047450 -0.538213
O25   O     O_3   0.528890 0.970170 0.997080 -0.360615
V3    V     V_3+5 0.255190 0.005530 0.000540 1.411649
O26   O     O_R   0.866460 0.947530 0.952310 -0.544233
C95   C     C_R   0.035844 0.934582 0.936685 0.684528
O27   O     O_R   0.863630 0.955880 0.038270 -0.517098
C96   C     C_R   0.031700 0.945219 0.051483 0.726707
V4    V     V_3+5 0.754830 0.994440 0.999470 1.429582
O28   O     O_3   0.031000 0.029830 0.002920 -0.370567
N5    N     N_3   0.966857 0.616585 0.195536 -0.592356
H43   H     H_    0.825070 0.614811 0.184438 0.229263
H44   H     H_    0.057469 0.602350 0.170194 0.230611
N6    N     N_3   0.703875 0.884539 0.067860 -0.647451
H45   H     H_    0.732165 0.868083 0.036554 0.228622
H46   H     H_    0.598920 0.863820 0.079283 0.222065
C97   C     C_3   0.442136 0.596028 0.316510 -0.324844
C98   C     C_3   0.649702 0.598231 0.333726 -0.314131
C99   C     C_3   0.751357 0.550467 0.322681 -0.670255
H47   H     H_    0.672704 0.523440 0.336772 0.196516
H48   H     H_    0.759640 0.538652 0.287769 0.251596
H49   H     H_    0.900245 0.553657 0.335350 0.232120
H50   H     H_    0.733768 0.624628 0.319936 0.218437
H51   H     H_    0.651784 0.610349 0.368655 0.198219
H52   H     H_    0.409770 0.560752 0.296919 0.197016
H53   H     H_    0.432928 0.621668 0.294895 0.173939
C100  C     C_3   0.942544 0.287584 0.342600 -0.393071
C101  C     C_3   0.876905 0.241772 0.356336 -0.288476
C102  C     C_3   0.030733 0.203503 0.346285 -0.754383
H54   H     H_    0.978845 0.170834 0.356479 0.226878
H55   H     H_    0.166196 0.215320 0.363403 0.224351
H56   H     H_    0.060618 0.195232 0.311670 0.227390
H57   H     H_    0.847192 0.248842 0.390986 0.193735
H58   H     H_    0.741992 0.228362 0.339800 0.207149
H59   H     H_    0.980659 0.280445 0.308470 0.179870
H60   H     H_    0.079838 0.299522 0.358672 0.174706
N7    N     N_3   0.954956 0.363007 0.418038 -0.659549
H61   H     H_    0.082686 0.369594 0.402594 0.225612
H62   H     H_    0.964520 0.330601 0.427995 0.227772
N8    N     N_3   0.323740 0.834875 0.751172 -0.665726
H63   H     H_    0.231926 0.864037 0.758249 0.243945
H64   H     H_    0.429522 0.837834 0.774438 0.222286

loop_
_geom_bond_atom_site_label_1
_geom_bond_atom_site_label_2
_ccdc_geom_bond_type
O27   C96   A    
C41   H17   S    
C72   H31   S    
C32   C36   A    
C11   C12   A    
N7    H62   S    
O26   C95   A    
C1    C65   S    
C37   C42   A    
C56   C57   A    
N3    C74   S    
C69   C74   A    
C1    O6    A    
C73   H32   S    
N6    H45   S    
C33   C34   A    
C77   C78   A    
N5    H44   S    
V4    O28   S    
C66   H27   S    
V3    O28   S    
O27   V4    S    
C54   C55   A    
C23   O11   S    
C5    C10   A    
C39   C96   S    
C38   N6    S    
C7    C8    A    
C17   H8    S    
O22   C94   A    
C100  H59   S    
C84   H39   S    
C99   H48   S    
C35   O13   S    
O5    C3    A    
C18   H9    S    
C43   C44   A    
C70   C71   A    
O23   C95   A    
C80   C93   S    
C82   H38   S    
C97   C98   S    
C32   C33   A    
C15   C16   A    
C20   H10   S    
C37   C38   A    
C67   H28   S    
C75   C80   A    
C54   H21   S    
C52   C57   A    
C93   O24   A    
O21   C96   A    
O8    V2    S    
C91   C92   A    
C63   C64   A    
C34   N5    S    
C15   N8    S    
C102  H55   S    
N1    C24   A    
C72   C73   A    
C87   C88   A    
C62   O18   S    
O1    V2    S    
C101  H58   S    
C29   H13   S    
O7    V1    S    
C90   C91   A    
C58   C62   A    
C102  H54   S    
O25   V4    S    
N3    C50   A    
C43   C48   A    
C87   C100  S    
C35   N2    A    
C89   C90   A    
C59   H23   S    
O9    C4    A    
C20   C21   A    
C55   C56   A    
C97   H52   S    
C81   C86   A    
C58   C59   A    
C84   C85   A    
C30   C35   A    
C40   H16   S    
N2    C42   S    
C47   C48   A    
V2    O10   S    
C100  C101  S    
O21   V3    S    
N4    C62   A    
C70   H30   S    
C9    H4    S    
C61   O17   S    
C44   C45   A    
C28   H12   S    
C99   H49   S    
C52   C53   A    
O4    C2    A    
C56   C61   A    
C44   H19   S    
C24   O12   S    
C11   C16   A    
C29   C30   A    
C60   H24   S    
C23   C27   A    
C45   C46   A    
O19   C94   A    
C63   C68   A    
N2    C36   A    
C14   C15   A    
C71   C94   S    
C99   H47   S    
C87   C92   A    
C12   H6    S    
C41   C42   A    
C97   H53   S    
C36   O14   S    
C46   H20   S    
C2    C89   S    
O23   V3    S    
C25   C28   A    
C57   C58   A    
C31   C32   A    
C5    H1    S    
C90   H41   S    
C3    C45   S    
C17   C22   A    
C26   C27   A    
C27   C34   A    
C98   H51   S    
C101  H57   S    
C85   H40   S    
C21   C22   A    
C69   H29   S    
O3    C4    A    
C79   C80   A    
C49   O15   S    
C85   C86   A    
C78   C79   A    
C19   C20   A    
C46   C47   A    
N8    H64   S    
C25   C26   A    
O6    V2    S    
O9    V2    S    
C50   O16   S    
O19   V4    S    
C71   C72   A    
C8    C9    A    
C88   N7    S    
C40   C41   A    
C33   H14   S    
C75   H33   S    
O2    V1    S    
C83   C84   A    
O25   V3    S    
C28   C29   A    
C51   C54   A    
C76   C77   A    
C64   H26   S    
C82   C83   A    
C30   C31   A    
C55   H22   S    
O24   V4    S    
C47   C97   S    
C63   H25   S    
C6    C7    A    
O1    C2    A    
N4    C68   S    
C13   C14   A    
C9    C10   A    
C39   C40   A    
C75   C76   A    
C73   C74   A    
O5    V1    S    
N6    H46   S    
O8    C3    A    
C7    C16   S    
C77   C86   S    
C26   C31   A    
N7    H61   S    
C101  C102  S    
C6    H2    S    
C81   C82   A    
N1    C48   S    
O7    V2    S    
C91   H42   S    
C100  H60   S    
C12   C13   A    
N5    H43   S    
V1    O10   S    
C81   H37   S    
C14   H7    S    
C102  H56   S    
C18   C19   A    
C83   C92   S    
C43   H18   S    
C51   C52   A    
C76   H34   S    
C21   H11   S    
C24   C25   A    
O2    C1    A    
C17   C18   A    
C61   N4    A    
C5    C6    A    
C66   C67   A    
O22   V3    S    
C98   H50   S    
O20   V3    S    
C37   H15   S    
C67   C68   A    
C69   C70   A    
C23   N1    A    
C79   H36   S    
C4    C19   S    
O4    V1    S    
C38   C39   A    
N8    H63   S    
C10   C95   S    
C49   N3    A    
C59   C60   A    
C13   C22   S    
C11   H5    S    
O3    V1    S    
O26   V4    S    
C8    H3    S    
C78   H35   S    
C88   C89   A    
C65   C66   A    
C50   C51   A    
C49   C53   A    
C98   C99   S    
C53   C60   A    
O20   C93   A    
C64   C65   A    
