data_mof_unit_1687.cif
_audit_creation_date              2012-12-11T20:55:17-0500
_audit_creation_method            fapswitch 2.2
_symmetry_space_group_name_H-M    P1
_symmetry_Int_Tables_number       1
_space_group_crystal_system       triclinic
_cell_length_a                    8.275166
_cell_length_b                    19.11938
_cell_length_c                    22.756166
_cell_angle_alpha                 99.941676
_cell_angle_beta                  90.026515
_cell_angle_gamma                 91.899155
_cell_volume                      3544.30918782

loop_
_atom_site_label
_atom_site_type_symbol
_atom_type_description
_atom_site_fract_x
_atom_site_fract_y
_atom_site_fract_z
_atom_type_partial_charge
Ba1   Ba    Ba6+2 0.157290 0.533910 0.474710 1.646152
Ba2   Ba    Ba6+2 0.652900 0.466090 0.525240 1.636338
C1    C     C_3   0.357051 0.741905 0.266076 -0.302392
C2    C     C_3   0.411587 0.714255 0.321404 0.292480
C3    C     C_3   0.486172 0.684443 0.616521 0.310107
C4    C     C_3   0.497435 0.764962 0.633305 -0.380107
C5    C     C_3   0.855370 0.284178 0.658052 0.320723
C6    C     C_3   0.824754 0.220436 0.689576 -0.220881
C7    C     C_3   0.366285 0.316476 0.684235 0.284079
C8    C     C_3   0.420922 0.312168 0.747156 -0.353826
C9    C     C_R   0.963729 0.197650 0.465080 -0.158030
C10   C     C_R   0.991350 0.272140 0.478186 0.055217
C11   C     C_R   0.137636 0.186080 0.547580 -0.150967
C12   C     C_3   0.924553 0.721698 0.346558 0.397455
C13   C     C_R   0.202093 0.254248 0.545515 0.007642
C14   C     C_R   0.677763 0.808986 0.445503 -0.174340
C15   C     C_R   0.608688 0.743263 0.452686 -0.006841
C16   C     C_R   0.860726 0.801282 0.526411 -0.148786
C17   C     C_R   0.823473 0.727232 0.519013 0.062839
C18   C     C_R   0.023701 0.152645 0.503875 0.004024
C19   C     C_R   0.117080 0.299239 0.516406 -0.245523
C20   C     C_R   0.796524 0.844010 0.486179 -0.003680
C21   C     C_R   0.690729 0.700264 0.484612 -0.237962
C22   C     C_R   0.232864 0.034434 0.530680 -0.083547
C23   C     C_3   0.941434 0.792216 0.324055 0.094699
C24   C     C_R   0.325784 0.983966 0.550451 -0.086331
C25   C     C_R   0.279284 0.913262 0.535870 -0.067504
C26   C     C_R   0.134312 0.894772 0.505658 -0.075807
C27   C     C_R   0.017347 0.945471 0.501742 0.009646
C28   C     C_R   0.071134 0.018962 0.510852 0.033989
C29   C     C_R   0.854185 0.922714 0.486368 -0.017629
C30   C     C_R   0.749533 0.976796 0.473436 0.036526
C31   C     C_R   0.803756 0.050398 0.481786 0.018923
C32   C     C_R   0.966277 0.073299 0.499147 -0.016866
C33   C     C_R   0.587536 0.961215 0.453678 -0.069865
C34   C     C_3   0.814397 0.375059 0.342573 0.295951
C35   C     C_R   0.493743 0.011235 0.433606 -0.062451
C36   C     C_R   0.541159 0.081851 0.446800 -0.067027
C37   C     C_R   0.687183 0.100830 0.475754 -0.092749
C38   C     C_R   0.643357 0.524457 0.335608 -0.304816
C39   C     C_R   0.367012 0.569130 0.948965 -0.026483
C40   C     C_R   0.317688 0.566429 0.889230 0.590152
C41   C     C_R   0.218049 0.445999 0.884066 0.575281
C42   C     C_R   0.271238 0.446124 0.943039 -0.020413
C43   C     C_R   0.345935 0.508173 0.975613 -0.050718
C44   C     C_R   0.438005 0.631237 0.982536 -0.072389
C45   C     C_3   0.784895 0.352855 0.275842 -0.379242
C46   C     C_R   0.487508 0.632795 0.041413 -0.065037
C47   C     C_R   0.469649 0.571994 0.068289 -0.025547
C48   C     C_R   0.399525 0.509333 0.035138 -0.052512
C49   C     C_R   0.253210 0.385389 0.969967 -0.077087
C50   C     C_R   0.309967 0.385968 0.027884 -0.076316
C51   C     C_R   0.383392 0.447764 0.061158 -0.020155
C52   C     C_R   0.441339 0.449275 0.119769 0.586519
C53   C     C_R   0.519277 0.572761 0.127719 0.590926
C54   C     C_2   0.054092 0.488171 0.773566 -0.058237
C55   C     C_3   0.014754 0.490719 0.708662 -0.049452
C56   C     C_3   0.997353 0.636492 0.661441 0.298882
C57   C     C_1   0.300400 0.516006 0.695050 0.007877
C58   C     C_2   0.338089 0.516070 0.751549 -0.103946
C59   C     C_2   0.207855 0.501955 0.794397 0.207760
C60   C     C_R   0.706232 0.544863 0.235955 -0.084474
C61   C     C_R   0.749129 0.550348 0.296174 -0.036182
C62   C     C_R   0.499841 0.488460 0.314901 0.038201
C63   C     C_R   0.453035 0.485076 0.255186 -0.092292
C64   C     C_R   0.554809 0.514080 0.214965 0.200311
C65   C     C_2   0.166441 0.484011 0.671456 -0.281473
C66   C     C_3   0.036632 0.668730 0.726053 -0.359124
C67   C     C_3   0.316595 0.317299 0.393372 0.329265
C68   C     C_3   0.337567 0.236899 0.381244 -0.217827
H1    H     H_    0.404197 0.655131 0.312368 0.044198
H2    H     H_    0.694259 0.308052 0.267529 0.131278
H3    H     H_    0.739393 0.397707 0.256474 0.073731
H4    H     H_    0.899195 0.336147 0.253109 0.114156
H5    H     H_    0.110185 0.617364 0.639025 0.020438
H6    H     H_    0.907247 0.592045 0.659882 0.031364
H7    H     H_    0.117703 0.716514 0.727628 0.145297
H8    H     H_    0.098879 0.630426 0.748720 0.085177
H9    H     H_    0.923590 0.684277 0.750447 0.120396
H10   H     H_    0.187349 0.328978 0.398248 -0.006415
H11   H     H_    0.381227 0.338412 0.435882 0.057919
H12   H     H_    0.236823 0.718427 0.250802 0.163272
H13   H     H_    0.302450 0.216341 0.422261 0.036706
H14   H     H_    0.467189 0.225091 0.373191 0.113347
H15   H     H_    0.538928 0.732962 0.329978 0.010450
H16   H     H_    0.444805 0.727466 0.229613 0.169712
H17   H     H_    0.608197 0.665025 0.603985 0.014569
H18   H     H_    0.403111 0.670599 0.577628 0.078894
H19   H     H_    0.582985 0.780893 0.671235 0.129998
H20   H     H_    0.541378 0.788460 0.594689 0.057334
H21   H     H_    0.376376 0.785754 0.646188 0.124476
H22   H     H_    0.351155 0.800719 0.275817 0.123533
H23   H     H_    0.746972 0.291651 0.631511 0.112096
H24   H     H_    0.959605 0.274329 0.627770 -0.025232
H25   H     H_    0.713484 0.228933 0.716741 0.130010
H26   H     H_    0.927749 0.217280 0.720363 0.125385
H27   H     H_    0.235333 0.301383 0.679582 0.005326
H28   H     H_    0.386293 0.372317 0.677721 0.056183
H29   H     H_    0.350290 0.348684 0.779494 0.134754
H30   H     H_    0.550638 0.328547 0.753207 0.139735
H31   H     H_    0.982452 0.728026 0.391365 0.021981
H32   H     H_    0.402423 0.257127 0.755971 0.116998
H33   H     H_    0.887878 0.176328 0.427071 0.066401
H34   H     H_    0.179238 0.160664 0.583333 0.061840
H35   H     H_    0.636794 0.831239 0.407929 0.077138
H36   H     H_    0.944666 0.823814 0.561543 0.075483
H37   H     H_    0.155605 0.354500 0.520472 0.062485
H38   H     H_    0.645034 0.646792 0.485565 0.064564
H39   H     H_    0.297578 0.082906 0.527665 0.080656
H40   H     H_    0.444246 0.998707 0.569402 0.073979
H41   H     H_    0.361743 0.873201 0.543872 0.099242
H42   H     H_    0.794144 0.708126 0.350249 -0.084313
H43   H     H_    0.112621 0.840595 0.485197 0.126249
H44   H     H_    0.522094 0.913315 0.457353 0.073154
H45   H     H_    0.373993 0.996405 0.415464 0.078942
H46   H     H_    0.459092 0.122057 0.439024 0.080394
H47   H     H_    0.706780 0.155501 0.494035 0.129621
H48   H     H_    0.295042 0.337853 0.046704 0.118860
H49   H     H_    0.196840 0.336805 0.946032 0.120937
H50   H     H_    0.541001 0.681808 0.065732 0.138985
H51   H     H_    0.790670 0.564109 0.205606 0.126958
H52   H     H_    0.455350 0.679018 0.963402 0.127782
H53   H     H_    0.890025 0.835359 0.356755 0.019355
H54   H     H_    0.462435 0.525608 0.766797 0.104859
H55   H     H_    0.956679 0.480395 0.803974 0.099933
H56   H     H_    0.338263 0.459437 0.240104 0.121580
H57   H     H_    0.678552 0.527718 0.381823 0.080461
H58   H     H_    0.164856 0.454635 0.626086 0.064232
H59   H     H_    0.070665 0.806354 0.318309 0.098651
H60   H     H_    0.698569 0.390975 0.364129 0.025598
H61   H     H_    0.903120 0.420597 0.350118 0.060349
N1    N     N_R   0.246588 0.504934 0.857124 -0.428670
N2    N     N_R   0.505171 0.511824 0.153142 -0.425395
O1    O     O_2   0.108070 0.674980 0.540650 -0.458615
O2    O     O_3   0.379908 0.347300 0.346076 -0.645408
O3    O     O_3   0.001217 0.669005 0.306725 -0.569670
O4    O     O_2   0.702240 0.324970 0.459330 -0.467284
O5    O     O_3   0.948380 0.413820 0.464520 -0.488086
O6    O     O_3   0.443920 0.371740 0.566130 -0.464349
O7    O     O_3   0.874682 0.317331 0.364837 -0.642419
O8    O     O_3   0.358830 0.538360 0.571050 -0.479650
O9    O     O_3   0.852160 0.408490 0.597560 -0.484739
O10   O     O_2   0.687399 0.441940 0.698681 -0.492765
O11   O     O_3   0.892903 0.343484 0.701986 -0.608616
O12   O     O_3   0.861930 0.586170 0.535430 -0.487624
O13   O     O_3   0.451480 0.461630 0.428900 -0.488331
O14   O     O_2   0.599240 0.538720 0.642170 -0.462228
O15   O     O_3   0.428148 0.655465 0.665424 -0.633027
O16   O     O_2   0.532987 0.243237 0.530273 -0.514130
O17   O     O_3   0.456841 0.270062 0.643522 -0.610091
O18   O     O_2   0.336900 0.619041 0.865848 -0.591280
O19   O     O_2   0.147682 0.393208 0.856533 -0.599863
O20   O     O_2   0.436759 0.394584 0.140791 -0.609785
O21   O     O_2   0.573757 0.628080 0.157041 -0.583555
O22   O     O_3   0.366390 0.628250 0.433820 -0.460953
O23   O     O_2   0.292531 0.752187 0.486508 -0.503363
O24   O     O_3   0.930360 0.688898 0.634577 -0.637313
O25   O     O_3   0.312799 0.740891 0.369852 -0.596587
O26   O     O_2   0.211060 0.461230 0.357810 -0.462784
O27   O     O_3   0.958150 0.591500 0.402390 -0.484972
O28   O     O_2   0.081908 0.537661 0.296155 -0.481756
P1    P     P_3+3 0.933470 0.664380 0.557030 0.982818
P2    P     P_3+3 0.383600 0.440030 0.365120 0.980566
P3    P     P_3+3 0.947602 0.586223 0.324856 0.984010
P4    P     P_3+3 0.876840 0.335610 0.442930 0.972453
P5    P     P_3+3 0.859244 0.422755 0.675828 0.967597
P6    P     P_3+3 0.397064 0.718059 0.434121 0.933686
P7    P     P_3+3 0.419115 0.562744 0.645581 0.957520
P8    P     P_3+3 0.406993 0.283291 0.571826 0.914114
C69   C     C_3   0.231837 0.197210 0.329668 -0.187963
C70   C     C_3   0.296485 0.204723 0.267341 -0.148818
C71   C     C_3   0.190323 0.250848 0.235825 -0.358862
H62   H     H_    0.067219 0.225929 0.228249 0.118646
H63   H     H_    0.181055 0.304737 0.262686 0.163858
H64   H     H_    0.243622 0.255976 0.191937 0.139335
H65   H     H_    0.422733 0.226806 0.269851 0.140477
H66   H     H_    0.298949 0.151171 0.239078 0.104280
H67   H     H_    0.230266 0.139885 0.333201 0.091343
H68   H     H_    0.104554 0.213881 0.335590 0.126025
Br1   Br    Br    0.828795 0.786727 0.248598 -0.565958
C72   C     C_3   0.806783 0.149980 0.646058 -0.256383
C73   C     C_3   0.761754 0.088836 0.679326 -0.191761
C74   C     C_3   0.782256 0.016712 0.639810 -0.414299
H69   H     H_    0.711313 0.013137 0.598121 0.133821
H70   H     H_    0.911689 0.008862 0.628506 0.141223
H71   H     H_    0.739139 0.973750 0.663703 0.126220
H72   H     H_    0.840221 0.091667 0.719412 0.127918
H73   H     H_    0.634005 0.093410 0.694211 0.129092
H74   H     H_    0.712272 0.153622 0.612059 0.143456
H75   H     H_    0.923550 0.138989 0.623281 0.122320

loop_
_geom_bond_atom_site_label_1
_geom_bond_atom_site_label_2
_ccdc_geom_bond_type
C6    C72   S    
C53   O21   D    
C70   C71   S    
C7    H28   S    
C39   C40   A    
Ba1   O12   S    
C6    H26   S    
C74   H69   S    
C23   H59   S    
C52   O20   D    
O4    P4    D    
C23   Br1   S    
C56   H6    S    
C5    C6    S    
C46   H50   S    
C72   C73   S    
C71   H62   S    
Ba2   O12   S    
C12   H42   S    
C24   C25   A    
C31   C37   A    
C38   C61   A    
C69   H67   S    
O5    P4    S    
O16   P8    D    
Ba2   O6    S    
O27   P3    S    
C26   C27   A    
C33   C35   A    
C35   C36   A    
C22   C24   A    
Ba1   Ba2   S    
C26   H43   S    
C74   H70   S    
C3    C4    S    
O17   P8    S    
O12   P1    S    
C4    H21   S    
C66   H7    S    
C54   C55   S    
C13   P8    S    
C33   H44   S    
Ba1   O22   S    
C16   C17   A    
C58   H54   S    
C73   C74   S    
C1    H12   S    
C59   N1    S    
C57   C65   D    
C3    H18   S    
C72   H74   S    
C53   N2    Am   
C55   P5    S    
C2    O25   S    
O22   P6    S    
C14   C15   A    
O25   P6    S    
C49   H49   S    
C39   C44   A    
C68   H14   S    
C7    C8    S    
C24   H40   S    
C71   H64   S    
C18   C32   S    
C66   H9    S    
C25   H41   S    
C57   C58   D    
C67   O2    S    
C3    O15   S    
C1    H16   S    
Ba1   O13   S    
C67   C68   S    
C6    H25   S    
C55   C65   S    
C62   P2    S    
C5    O11   S    
C71   H63   S    
C56   H5    S    
C66   H8    S    
C61   P3    S    
C5    H23   S    
C44   C46   A    
C7    O17   S    
C48   C51   A    
C20   C29   S    
C60   C64   A    
C49   C50   A    
Ba2   O5    S    
C30   C33   A    
C8    H32   S    
C67   H11   S    
C45   H3    S    
C15   P6    S    
C34   H61   S    
C10   P4    S    
C28   C32   A    
C12   H31   S    
C73   H73   S    
C2    H15   S    
O23   P6    D    
Ba2   O14   S    
C37   H47   S    
C52   N2    Am   
C9    C18   A    
O1    P1    D    
C30   C31   A    
O11   P5    S    
C1    H22   S    
C17   P1    S    
C70   H65   S    
C17   C21   A    
C41   C42   A    
C16   H36   S    
O10   P5    D    
C27   C28   A    
C40   O18   D    
C34   H60   S    
O9    P5    S    
C64   N2    S    
C36   H46   S    
C72   H75   S    
C29   C30   A    
Ba1   O26   S    
C47   C53   A    
C60   C61   A    
C31   C32   A    
C15   C21   A    
C54   H55   S    
C11   H34   S    
C8    H30   S    
C68   H13   S    
C34   O7    S    
Ba2   P4    S    
C19   H37   S    
C14   H35   S    
C7    H27   S    
C42   C49   A    
C56   C66   S    
C46   C47   A    
Ba1   P1    S    
C22   H39   S    
C57   P7    S    
C11   C13   A    
O15   P7    S    
C47   C48   A    
O26   P2    D    
C34   C45   S    
C74   H71   S    
C1    C2    S    
O28   P3    D    
C50   C51   A    
O3    P3    S    
O7    P4    S    
C5    H24   S    
C41   N1    Am   
O8    P7    S    
C14   C20   A    
C11   C18   A    
C16   C20   A    
Ba2   O4    S    
O2    P2    S    
Ba1   O27   S    
C44   H52   S    
C42   C43   A    
C45   H4    S    
C56   O24   S    
C9    H33   S    
C9    C10   A    
C51   C52   A    
C35   H45   S    
Ba2   O13   S    
C4    H19   S    
O13   P2    S    
C38   C62   A    
C69   H68   S    
C63   H56   S    
C68   C69   S    
C27   C29   A    
C4    H20   S    
C65   H58   S    
C62   C63   A    
C38   H57   S    
C36   C37   A    
C12   O3    S    
C43   C48   A    
Ba2   O9    S    
C21   H38   S    
C10   C19   A    
O6    P8    S    
C73   H72   S    
C60   H51   S    
C12   C23   S    
C8    H29   S    
C22   C28   A    
C45   H2    S    
Ba1   O8    S    
O14   P7    D    
C41   O19   D    
C3    H17   S    
C13   C19   A    
Ba1   P2    S    
C58   C59   S    
C63   C64   A    
C69   C70   S    
C23   H53   S    
C25   C26   A    
Ba2   O8    S    
C39   C43   A    
C54   C59   D    
C70   H66   S    
C67   H10   S    
C40   N1    Am   
O24   P1    S    
C2    H1    S    
Ba1   O5    S    
Ba1   O1    S    
C50   H48   S    
