data_mof_unit_3747.cif
_audit_creation_date              2013-03-05T15:40:10-0500
_audit_creation_method            fapswitch 2.2
_symmetry_space_group_name_H-M    P1
_symmetry_Int_Tables_number       1
_space_group_crystal_system       triclinic
_cell_length_a                    7.46945
_cell_length_b                    8.681963
_cell_length_c                    13.083965
_cell_angle_alpha                 87.864476
_cell_angle_beta                  79.802008
_cell_angle_gamma                 102.830095
_cell_volume                      811.637463362

loop_
_atom_site_label
_atom_site_type_symbol
_atom_site_description
_atom_site_fract_x
_atom_site_fract_y
_atom_site_fract_z
_atom_type_partial_charge
O1    O     O_R   0.621060 0.286250 0.492350 -0.586758
O2    O     O_R   0.378940 0.713750 0.507650 -0.586754
O3    O     O_R   0.306310 0.256580 0.512240 -0.583704
O4    O     O_R   0.693690 0.743420 0.487760 -0.583692
C1    C     C_R   0.452803 0.199762 0.503199 0.873312
C2    C     C_R   0.547197 0.800238 0.496801 0.873304
O5    O     O_R   0.631800 0.512400 0.642670 -0.544138
O6    O     O_R   0.368200 0.487600 0.357330 -0.544189
O7    O     O_R   0.317060 0.482730 0.662570 -0.561140
O8    O     O_R   0.682940 0.517270 0.337430 -0.561117
C3    C     C_R   0.467887 0.494623 0.701076 0.827316
C4    C     C_R   0.532114 0.505386 0.298923 0.827297
Cu1   Cu    Cu3+1 0.686350 0.517570 0.488220 1.053384
Cu2   Cu    Cu3+1 0.313650 0.482430 0.511780 1.053361
N1    N     N_2   0.033570 0.455950 0.529530 -0.178890
N2    N     N_2   0.966430 0.544050 0.470470 -0.178878
C5    C     C_R   0.547687 0.509230 0.185898 -0.162549
C6    C     C_R   0.452317 0.490803 0.814098 -0.162494
C7    C     C_R   0.253871 0.472081 0.983388 -0.145842
C8    C     C_R   0.746134 0.527988 0.016603 -0.145900
C9    C     C_R   0.275055 0.473491 0.876381 -0.212672
C10   C     C_R   0.724958 0.526600 0.123611 -0.212541
C11   C     C_R   0.610908 0.504816 0.860869 0.324579
C12   C     C_R   0.389086 0.495171 0.139131 0.324564
C13   C     C_R   0.589973 0.508293 0.969108 0.015841
C14   C     C_R   0.410023 0.491723 0.030890 0.015898
H1    H     H_    0.848750 0.540018 0.157447 0.242865
H2    H     H_    0.151273 0.460131 0.842540 0.242880
H3    H     H_    0.114471 0.454838 0.028730 0.184122
H4    H     H_    0.885533 0.545278 0.971251 0.184011
H5    H     H_    0.934430 0.369624 0.577457 0.260476
H6    H     H_    0.065569 0.630393 0.422557 0.260497
C15   C     C_2   0.426318 0.031822 0.504736 -0.328618
C16   C     C_2   0.573682 0.968178 0.495264 -0.328607
H7    H     H_    0.284303 0.960197 0.513669 0.189369
H8    H     H_    0.715697 0.039803 0.486331 0.189368
N3    N     N_R   0.208797 0.492009 0.200089 0.100994
O9    O     O_R   0.161728 0.624571 0.220897 -0.402640
O10   O     O_R   0.087605 0.357785 0.228122 -0.365354
N4    N     N_R   0.791174 0.507866 0.799925 0.100903
O11   O     O_R   0.838237 0.375262 0.779258 -0.402605
O12   O     O_R   0.912242 0.642072 0.771589 -0.365260

loop_
_geom_bond_atom_site_label_1
_geom_bond_atom_site_label_2
_geom_bond_distance
_ccdc_geom_bond_type
C4    C5    1.461244 S    
O7    Cu2   1.977692 S    
C3    C6    1.461220 S    
N1    H5    1.028283 S    
N3    O9    1.300566 A    
N2    H6    1.028276 S    
C6    C9    1.400069 A    
C5    C10   1.400085 A    
O6    C4    1.297225 A    
N4    O12   1.301526 A    
C15   C16   1.326356 D    
N3    O10   1.301552 A    
C8    H4    1.078874 S    
Cu1   Cu2   2.692568 S    
O5    C3    1.297219 A    
O7    C3    1.298807 A    
O2    C2    1.293544 A    
O3    Cu2   1.949134 S    
O8    C4    1.298812 A    
O1    C1    1.293544 A    
N1    N2    1.302766 D    
N4    O11   1.300539 A    
C15   H7    1.087799 S    
C9    H2    1.079582 S    
C8    C10   1.380170 A    
C12   N3    1.432480 S    
C16   H8    1.087798 S    
C10   H1    1.079592 S    
C11   C13   1.399227 A    
O2    Cu2   1.954909 S    
C5    C12   1.410945 A    
O1    Cu1   1.954909 S    
C8    C13   1.397135 A    
C11   N4    1.432468 S    
C7    H3    1.078869 S    
C2    C16   1.426094 S    
O5    Cu1   1.986278 S    
O4    C2    1.285649 A    
Cu1   N2    2.023317 S    
O4    Cu1   1.949134 S    
C7    C14   1.397148 A    
Cu2   N1    2.023317 S    
O6    Cu2   1.986277 S    
C7    C9    1.380158 A    
C13   C14   1.414751 A    
C6    C11   1.410942 A    
C12   C14   1.399244 A    
O3    C1    1.285649 A    
O8    Cu1   1.977689 S    
C1    C15   1.426094 S    
