data_mof_unit_272.cif
_audit_creation_date              2012-12-11T15:37:12-0500
_audit_creation_method            fapswitch 2.2
_symmetry_space_group_name_H-M    P1
_symmetry_Int_Tables_number       1
_space_group_crystal_system       triclinic
_cell_length_a                    17.390634
_cell_length_b                    24.369895
_cell_length_c                    14.958823
_cell_angle_alpha                 90.855514
_cell_angle_beta                  126.043949
_cell_angle_gamma                 89.316325
_cell_volume                      5125.4288617

loop_
_atom_site_label
_atom_site_type_symbol
_atom_type_description
_atom_site_fract_x
_atom_site_fract_y
_atom_site_fract_z
_atom_type_partial_charge
C1    C     C_R   0.853498 0.653343 0.908138 -0.153277
C2    C     C_R   0.189943 0.372867 0.092478 -0.113917
C3    C     C_R   0.149333 0.652403 0.092797 -0.133745
C4    C     C_R   0.819141 0.363677 0.907528 -0.124275
C5    C     C_R   0.353502 0.153343 0.908138 -0.153291
C6    C     C_R   0.689947 0.872872 0.092479 -0.113903
C7    C     C_R   0.649340 0.152402 0.092795 -0.133745
C8    C     C_R   0.319166 0.863657 0.907528 -0.124312
C9    C     C_3   0.409489 0.502229 0.447908 0.186847
C10   C     C_3   0.576883 0.502382 0.631824 0.187731
C11   C     C_3   0.909473 0.002220 0.447962 0.186841
C12   C     C_3   0.076881 0.002388 0.631866 0.187732
C13   C     C_R   0.668535 0.303047 0.899438 -0.172326
C14   C     C_R   0.212412 0.765488 0.099724 -0.164020
C15   C     C_R   0.343834 0.313607 0.099873 -0.164330
C16   C     C_R   0.794823 0.769163 0.900124 -0.158854
C17   C     C_R   0.168572 0.803020 0.899444 -0.172337
C18   C     C_R   0.712395 0.265498 0.099716 -0.164012
C19   C     C_R   0.843834 0.813609 0.099873 -0.164324
C20   C     C_R   0.294826 0.269164 0.900123 -0.158843
C21   C     C_R   0.112802 0.763264 0.899413 -0.180006
C22   C     C_R   0.768443 0.305143 0.099781 -0.182063
C23   C     C_R   0.895232 0.769629 0.100224 -0.173190
C24   C     C_R   0.242754 0.312730 0.899787 -0.175743
C25   C     C_R   0.612794 0.263270 0.899406 -0.179987
C26   C     C_R   0.268488 0.805112 0.099789 -0.182097
C27   C     C_R   0.395235 0.269629 0.100223 -0.173187
C28   C     C_R   0.742755 0.812732 0.899787 -0.175754
C29   C     C_R   0.141457 0.740037 0.999776 0.149617
C30   C     C_R   0.752502 0.319523 0.999781 0.149230
C31   C     C_R   0.864549 0.743701 0.000253 0.142951
C32   C     C_R   0.260853 0.331197 0.999627 0.142979
C33   C     C_R   0.641459 0.240038 0.999770 0.149609
C34   C     C_R   0.252553 0.819483 0.999787 0.149276
C35   C     C_R   0.364554 0.243702 0.000252 0.142946
C36   C     C_R   0.760855 0.831200 0.999627 0.142985
C37   C     C_R   0.881905 0.448745 0.454840 -0.172891
C38   C     C_R   0.903003 0.548621 0.385161 -0.229544
C39   C     C_R   0.894136 0.449763 0.371485 -0.154649
C40   C     C_R   0.878768 0.547354 0.457471 -0.206434
C41   C     C_R   0.381896 0.948744 0.454830 -0.172935
C42   C     C_R   0.402961 0.048619 0.385118 -0.229569
C43   C     C_R   0.394084 0.949762 0.371441 -0.154641
C44   C     C_R   0.378764 0.047354 0.457464 -0.206431
C45   C     C_R   0.917318 0.499373 0.347018 0.213488
C46   C     C_R   0.887904 0.497970 0.508889 0.207649
C47   C     C_R   0.417256 0.999371 0.346957 0.213491
C48   C     C_R   0.387913 0.997969 0.508890 0.207678
C49   C     C_R   0.911523 0.366655 0.092159 -0.175523
C50   C     C_R   0.052518 0.651792 0.908586 -0.120229
C51   C     C_R   0.096713 0.375343 0.907088 -0.130452
C52   C     C_R   0.951926 0.654006 0.090978 0.015056
C53   C     C_R   0.411568 0.866617 0.092162 -0.175297
C54   C     C_R   0.552524 0.151791 0.908585 -0.120224
C55   C     C_R   0.596714 0.875345 0.907088 -0.130445
C56   C     C_R   0.451931 0.154008 0.090977 0.015088
C57   C     C_R   0.976397 0.544851 0.245611 0.513753
C58   C     C_R   0.943590 0.453870 0.692024 0.513245
C59   C     C_R   0.951347 0.544793 0.695637 0.534840
C60   C     C_R   0.002043 0.454745 0.272258 0.503562
C61   C     C_R   0.476365 0.044848 0.245574 0.513742
C62   C     C_R   0.443595 0.953869 0.692026 0.513199
C63   C     C_R   0.451354 0.044792 0.695640 0.534858
C64   C     C_R   0.501983 0.954741 0.272199 0.503611
C65   C     C_R   0.729710 0.455581 0.744524 -0.158173
C66   C     C_R   0.265482 0.546623 0.289493 -0.138037
C67   C     C_R   0.265444 0.455155 0.293607 -0.174582
C68   C     C_R   0.731710 0.546544 0.751044 -0.136031
C69   C     C_R   0.229711 0.955583 0.744553 -0.158222
C70   C     C_R   0.765473 0.046620 0.289530 -0.138109
C71   C     C_R   0.765430 0.955152 0.293630 -0.174515
C72   C     C_R   0.231713 0.046546 0.751052 -0.135956
C73   C     C_R   0.889736 0.686215 0.999998 -0.022045
C74   C     C_R   0.186765 0.360544 0.999552 0.020571
C75   C     C_R   0.115021 0.683832 0.000487 0.017215
C76   C     C_R   0.824843 0.348772 0.999896 0.043229
C77   C     C_R   0.389742 0.186217 0.999997 -0.022051
C78   C     C_R   0.686768 0.860548 0.999553 0.020559
C79   C     C_R   0.615033 0.183830 0.000484 0.017201
C80   C     C_R   0.324891 0.848729 0.999900 0.043113
C81   C     C_R   0.961531 0.499369 0.288938 -0.263868
C82   C     C_R   0.925562 0.498861 0.626359 -0.280367
C83   C     C_R   0.461466 0.999364 0.288870 -0.263939
C84   C     C_R   0.425573 0.998861 0.626362 -0.280390
C85   C     C_R   0.675113 0.501503 0.722375 0.035268
C86   C     C_R   0.319122 0.501259 0.343315 0.048189
C87   C     C_R   0.175117 0.001508 0.722406 0.035242
C88   C     C_R   0.819106 0.001254 0.343363 0.048170
C89   C     C_3   0.505514 0.455919 0.594815 -0.165546
C90   C     C_3   0.480813 0.548651 0.485033 -0.159944
C91   C     C_3   0.484492 0.458325 0.479353 -0.167764
C92   C     C_3   0.502100 0.546450 0.600791 -0.164609
C93   C     C_3   0.005442 0.955980 0.595005 -0.165505
C94   C     C_3   0.980870 0.048585 0.484942 -0.159860
C95   C     C_3   0.984408 0.958247 0.479522 -0.167813
C96   C     C_3   0.002166 0.046524 0.600716 -0.164652
C97   C     C_3   0.428231 0.499936 0.561345 -0.144940
C98   C     C_3   0.556765 0.504694 0.517405 -0.133129
C99   C     C_3   0.928225 0.000067 0.561418 -0.144960
C100  C     C_3   0.056753 0.004560 0.517427 -0.133105
H1    H     H_    0.813953 0.666325 0.823207 0.101029
H2    H     H_    0.247200 0.365264 0.177571 0.088229
H3    H     H_    0.190150 0.665914 0.178039 0.084700
H4    H     H_    0.768495 0.349728 0.823833 0.075720
H5    H     H_    0.313957 0.166325 0.823207 0.101034
H6    H     H_    0.747207 0.865273 0.177573 0.088228
H7    H     H_    0.690159 0.165913 0.178037 0.084706
H8    H     H_    0.268523 0.849709 0.823830 0.075731
H9    H     H_    0.942641 0.355510 0.175801 0.164616
H10   H     H_    0.001962 0.666338 0.825610 0.150554
H11   H     H_    0.070290 0.370682 0.821949 0.159534
H12   H     H_    0.002553 0.668543 0.174811 0.106054
H13   H     H_    0.442729 0.855438 0.175800 0.164708
H14   H     H_    0.501968 0.166337 0.825609 0.150560
H15   H     H_    0.570290 0.870683 0.821948 0.159521
H16   H     H_    0.502559 0.168544 0.174810 0.106042
H17   H     H_    0.371919 0.497958 0.574675 0.111337
H18   H     H_    0.611805 0.506611 0.501901 0.115029
H19   H     H_    0.871915 0.998196 0.574770 0.111299
H20   H     H_    0.111789 0.006369 0.501903 0.114991
H21   H     H_    0.518491 0.418395 0.643142 0.109698
H22   H     H_    0.468639 0.586249 0.437229 0.112042
H23   H     H_    0.475047 0.422628 0.426788 0.108601
H24   H     H_    0.512438 0.582047 0.653947 0.112157
H25   H     H_    0.018376 0.918509 0.643450 0.109734
H26   H     H_    0.968742 0.086130 0.437021 0.112059
H27   H     H_    0.974907 0.922485 0.427061 0.108565
H28   H     H_    0.012562 0.082185 0.653768 0.112138
H29   H     H_    0.649386 0.317068 0.820534 0.103565
H30   H     H_    0.231854 0.751188 0.178587 0.106666
H31   H     H_    0.364368 0.329700 0.178743 0.105151
H32   H     H_    0.773169 0.752432 0.821237 0.109564
H33   H     H_    0.149428 0.817037 0.820540 0.103572
H34   H     H_    0.731845 0.251192 0.178580 0.106663
H35   H     H_    0.864370 0.829702 0.178743 0.105154
H36   H     H_    0.273174 0.252433 0.821237 0.109570
H37   H     H_    0.875503 0.409069 0.480123 0.188836
H38   H     H_    0.916073 0.588473 0.366755 0.192457
H39   H     H_    0.893637 0.411338 0.334058 0.160117
H40   H     H_    0.866306 0.586009 0.482673 0.194802
H41   H     H_    0.375509 0.909068 0.480124 0.188845
H42   H     H_    0.416022 0.088471 0.366702 0.192460
H43   H     H_    0.393566 0.911336 0.334002 0.160164
H44   H     H_    0.366316 0.086010 0.482678 0.194807
N1    N     N_R   0.892620 0.603790 0.941800 -0.045699
N2    N     N_R   0.107380 0.396210 0.058200 -0.041424
N3    N     N_R   0.107380 0.603790 0.058200 -0.042138
N4    N     N_R   0.892620 0.396210 0.941800 -0.039020
N5    N     N_R   0.392620 0.103790 0.941800 -0.045704
N6    N     N_R   0.607380 0.896210 0.058200 -0.041420
N7    N     N_R   0.607380 0.103790 0.058200 -0.042139
N8    N     N_R   0.392620 0.896210 0.941800 -0.039028
N9    N     N_R   0.952210 0.397600 0.057910 -0.043735
N10   N     N_R   0.047790 0.602400 0.942090 -0.035530
N11   N     N_R   0.047790 0.397600 0.942090 -0.037876
N12   N     N_R   0.952210 0.602400 0.057910 -0.039334
N13   N     N_R   0.452210 0.897600 0.057910 -0.043726
N14   N     N_R   0.547790 0.102400 0.942090 -0.035531
N15   N     N_R   0.547790 0.897600 0.942090 -0.037875
N16   N     N_R   0.452210 0.102400 0.057910 -0.039331
N17   N     N_R   0.026300 0.529110 0.206760 -0.125599
N18   N     N_R   0.973700 0.470890 0.793240 -0.129466
N19   N     N_R   0.973700 0.529110 0.793240 -0.122255
N20   N     N_R   0.026300 0.470890 0.206760 -0.131912
N21   N     N_R   0.526300 0.029110 0.206760 -0.125612
N22   N     N_R   0.473700 0.970890 0.793240 -0.129468
N23   N     N_R   0.473700 0.029110 0.793240 -0.122254
N24   N     N_R   0.526300 0.970890 0.206760 -0.131907
N25   N     N_R   0.818530 0.472270 0.792960 -0.052212
N26   N     N_R   0.181470 0.527730 0.207040 -0.038653
N27   N     N_R   0.181470 0.472270 0.207040 -0.037562
N28   N     N_R   0.818530 0.527730 0.792960 -0.044833
N29   N     N_R   0.318530 0.972270 0.792960 -0.052220
N30   N     N_R   0.681470 0.027730 0.207040 -0.038646
N31   N     N_R   0.681470 0.972270 0.207040 -0.037567
N32   N     N_R   0.318530 0.027730 0.792960 -0.044833
Ni1   Ni    Ni4+2 0.934150 0.565840 0.869060 0.221017
Ni2   Ni    Ni4+2 0.065850 0.434160 0.130940 0.189391
Ni3   Ni    Ni4+2 0.065850 0.565840 0.130940 0.201533
Ni4   Ni    Ni4+2 0.934150 0.434160 0.869060 0.203839
Ni5   Ni    Ni4+2 0.434150 0.065840 0.869060 0.221017
Ni6   Ni    Ni4+2 0.565850 0.934160 0.130940 0.189438
Ni7   Ni    Ni4+2 0.565850 0.065840 0.130940 0.201517
Ni8   Ni    Ni4+2 0.434150 0.934160 0.869060 0.203841
O1    O     O_3   0.930211 0.594654 0.223374 -0.640671
C101  C     C_3   0.831555 0.587234 0.139650 -0.268154
H45   H     H_    0.795448 0.566673 0.171042 0.146759
H46   H     H_    0.817659 0.563599 0.067208 0.145755
H47   H     H_    0.797831 0.628183 0.109677 0.175779
O2    O     O_3   0.921197 0.400027 0.656155 -0.640895
C102  C     C_3   0.837765 0.385108 0.644423 -0.293312
H48   H     H_    0.810319 0.346695 0.594670 0.165231
H49   H     H_    0.780501 0.416609 0.599368 0.136930
H50   H     H_    0.853615 0.376117 0.726133 0.162356
O3    O     O_3   0.947569 0.599030 0.669135 -0.633848
C103  C     C_3   0.035213 0.611911 0.688353 -0.339386
H51   H     H_    0.046256 0.588209 0.632640 0.163118
H52   H     H_    0.096418 0.604561 0.775770 0.156435
H53   H     H_    0.034866 0.656115 0.671448 0.173926
O4    O     O_3   0.033594 0.407495 0.335494 -0.636830
C104  C     C_3   0.122001 0.390269 0.360665 -0.255261
H54   H     H_    0.176079 0.423342 0.404110 0.143254
H55   H     H_    0.115265 0.376252 0.285314 0.139522
H56   H     H_    0.147789 0.354855 0.417345 0.167010
O5    O     O_3   0.430194 0.094656 0.223347 -0.640665
C105  C     C_3   0.331535 0.087247 0.139621 -0.268147
H57   H     H_    0.295419 0.066690 0.171006 0.146753
H58   H     H_    0.317632 0.063613 0.067174 0.145755
H59   H     H_    0.297825 0.128199 0.109655 0.175774
O6    O     O_3   0.421186 0.900027 0.656153 -0.640887
C106  C     C_3   0.337740 0.885120 0.644401 -0.293241
H60   H     H_    0.310291 0.846697 0.594670 0.165201
H61   H     H_    0.280484 0.916626 0.599329 0.136913
H62   H     H_    0.353583 0.876141 0.726111 0.162359
O7    O     O_3   0.447575 0.099030 0.669137 -0.633842
C107  C     C_3   0.535217 0.111910 0.688349 -0.339425
H63   H     H_    0.546258 0.088208 0.632634 0.163110
H64   H     H_    0.596424 0.104561 0.775765 0.156435
H65   H     H_    0.534869 0.156114 0.671442 0.173932
O8    O     O_3   0.533478 0.907475 0.335384 -0.636903
C108  C     C_3   0.622052 0.890351 0.360881 -0.255167
H66   H     H_    0.676041 0.923466 0.404503 0.143188
H67   H     H_    0.615572 0.876389 0.285639 0.139482
H68   H     H_    0.647798 0.854922 0.417520 0.166985
H69   H     H_    0.703294 0.414965 0.712578 0.090147
H70   H     H_    0.281931 0.589116 0.315566 0.093208
H71   H     H_    0.282292 0.413951 0.325956 0.089003
H72   H     H_    0.709793 0.589065 0.734312 0.104154
H73   H     H_    0.203288 0.914966 0.712625 0.090189
H74   H     H_    0.781921 0.089112 0.315613 0.093237
H75   H     H_    0.782261 0.913947 0.325974 0.088971
H76   H     H_    0.209800 0.089068 0.734322 0.104125
H77   H     H_    0.054292 0.747065 0.820471 0.108016
H78   H     H_    0.828001 0.320785 0.178622 0.117960
H79   H     H_    0.952222 0.752954 0.179111 0.110455
H80   H     H_    0.183161 0.327844 0.820854 0.119401
H81   H     H_    0.554299 0.247062 0.820464 0.108016
H82   H     H_    0.328058 0.820748 0.178629 0.118010
H83   H     H_    0.452226 0.252955 0.179111 0.110453
H84   H     H_    0.683163 0.827847 0.820855 0.119390

loop_
_geom_bond_atom_site_label_1
_geom_bond_atom_site_label_2
_ccdc_geom_bond_type
N28   Ni1   S    
C16   C28   A    
C10   C85   S    
C3    N3    A    
O2    C102  S    
C17   C34   A    
C3    H3    S    
C90   H22   S    
C104  H54   S    
C1    N1    A    
C65   C85   A    
C59   C82   A    
C42   H42   S    
C70   C88   A    
C9    C91   S    
C24   C32   A    
C27   H83   S    
C15   C32   A    
N6    Ni6   S    
C95   H27   S    
C5    H5    S    
O5    C105  S    
C16   C31   A    
C40   C46   A    
C96   H28   S    
C7    C79   A    
C69   N29   A    
C49   N9    A    
C8    N8    A    
C61   N21   A    
C107  H64   S    
N18   N19   A    
C108  H68   S    
C19   C36   A    
C58   C82   A    
C32   C74   S    
N12   Ni3   S    
C105  H58   S    
C31   C73   S    
C15   H31   S    
N26   N27   A    
C52   H12   S    
C19   H35   S    
C4    N4    A    
C96   C99   S    
C4    H4    S    
C50   H10   S    
C5    N5    A    
N2    Ni2   S    
C11   C99   S    
C2    N2    A    
C10   C98   S    
N3    N10   A    
C89   C97   S    
N30   N31   A    
C38   C45   A    
C34   C80   S    
C46   C82   S    
N1    N12   A    
C43   H43   S    
C26   C34   A    
C21   H77   S    
N2    N11   A    
C20   C24   A    
N29   Ni8   S    
O4    C104  S    
N19   Ni1   S    
C51   H11   S    
C107  H65   S    
N27   Ni2   S    
C18   H34   S    
C100  H20   S    
C67   H71   S    
N15   Ni8   S    
N17   Ni3   S    
C14   C26   A    
C3    C75   A    
C93   C99   S    
N16   Ni7   S    
N18   Ni4   S    
C69   C87   A    
C39   C45   A    
C23   H79   S    
C55   N15   A    
C66   N26   A    
C10   C92   S    
C93   C95   S    
C37   H37   S    
C91   H23   S    
N5    Ni5   S    
C68   C85   A    
C104  H55   S    
C13   C25   A    
C42   C44   A    
C103  H53   S    
C8    H8    S    
O3    C103  S    
O8    C108  S    
N5    N16   A    
C53   H13   S    
C92   C97   S    
C98   H18   S    
C94   H26   S    
C56   H16   S    
N32   Ni5   S    
C39   H39   S    
C4    C76   A    
N6    N15   A    
C64   O8    S    
C102  H48   S    
N21   Ni7   S    
N7    N14   A    
C13   C30   A    
C53   C80   A    
N22   Ni8   S    
C107  H63   S    
C10   C89   S    
C103  H52   S    
C52   C73   A    
C61   C83   A    
C55   C78   A    
C95   C100  S    
C33   C79   S    
C59   O3    S    
C58   O2    S    
C67   N27   A    
C21   C29   A    
C35   C77   S    
C17   C21   A    
C56   C77   A    
C48   C84   S    
C51   C74   A    
C65   N25   A    
C23   C31   A    
C89   C91   S    
N30   Ni7   S    
C19   C23   A    
O7    C107  S    
C102  H49   S    
C64   C83   A    
C41   H41   S    
C108  H66   S    
C24   H80   S    
C69   H73   S    
C9    C86   S    
C54   N14   A    
C30   C76   S    
C60   C81   A    
C26   H82   S    
C15   C27   A    
C70   H74   S    
C89   H21   S    
C25   H81   S    
C11   C88   S    
C44   H44   S    
C51   N11   A    
C66   H70   S    
C25   C33   A    
C62   O6    S    
C49   C76   A    
C65   H69   S    
C20   H36   S    
C94   C96   S    
C71   C88   A    
C70   N30   A    
N31   Ni6   S    
C7    N7    A    
C11   C94   S    
C53   N13   A    
C106  H61   S    
C92   H24   S    
C108  H67   S    
N21   N24   A    
C47   C83   S    
C17   H33   S    
N22   N23   A    
C64   N24   A    
N25   N28   A    
C7    H7    S    
C12   C93   S    
N8    Ni8   S    
N4    N9    A    
C14   C29   A    
C5    C77   A    
C22   H78   S    
C1    H1    S    
N17   N20   A    
N20   Ni2   S    
N11   Ni4   S    
C49   H9    S    
C54   C79   A    
C14   H30   S    
N29   N32   A    
C11   C95   S    
C62   C84   A    
N9    Ni2   S    
C67   C86   A    
C9    C97   S    
N25   Ni4   S    
C12   C87   S    
C62   N22   A    
C105  H57   S    
C57   O1    S    
C20   C35   A    
C45   C81   S    
C41   C43   A    
C103  H51   S    
C91   C98   S    
C2    C74   A    
C9    C90   S    
C66   C86   A    
C72   C87   A    
C68   H72   S    
N7    Ni7   S    
C29   C75   S    
C104  H56   S    
C52   N12   A    
C63   C84   A    
N24   Ni6   S    
N26   Ni3   S    
C56   N16   A    
C27   C35   A    
C101  H47   S    
C18   C22   A    
C90   C92   S    
C101  H45   S    
C102  H50   S    
C1    C73   A    
N14   Ni5   S    
C37   C39   A    
C71   H75   S    
C22   C30   A    
C50   C75   A    
C28   H84   S    
C38   C40   A    
C68   N28   A    
C105  H59   S    
O1    C101  S    
N23   Ni5   S    
C55   H15   S    
C50   N10   A    
C54   H14   S    
C63   N23   A    
C60   N20   A    
C41   C48   A    
C71   N31   A    
N8    N13   A    
C57   C81   A    
C42   C47   A    
C72   N32   A    
C94   C100  S    
C97   H17   S    
C16   H32   S    
C18   C33   A    
C93   H25   S    
C12   C100  S    
C43   C47   A    
C6    C78   A    
C60   O4    S    
C99   H19   S    
C106  H60   S    
C6    N6    A    
N3    Ni3   S    
C106  H62   S    
C57   N17   A    
C28   C36   A    
N4    Ni4   S    
O6    C106  S    
N13   Ni6   S    
N10   Ni1   S    
N1    Ni1   S    
C8    C80   A    
C59   N19   A    
C2    H2    S    
C12   C96   S    
C36   C78   S    
C38   H38   S    
C63   O7    S    
C37   C46   A    
C101  H46   S    
C90   C98   S    
C40   H40   S    
C13   H29   S    
C72   H76   S    
C44   C48   A    
C61   O5    S    
C6    H6    S    
C58   N18   A    
