data_mof_unit_4429.cif
_audit_creation_date              2012-12-11T14:06:43-0500
_audit_creation_method            fapswitch 2.2
_symmetry_space_group_name_H-M    P1
_symmetry_Int_Tables_number       1
_space_group_crystal_system       triclinic
_cell_length_a                    11.844951
_cell_length_b                    11.88395
_cell_length_c                    19.331854
_cell_angle_alpha                 90.1342
_cell_angle_beta                  89.467033
_cell_angle_gamma                 119.249085
_cell_volume                      2374.18605287

loop_
_atom_site_label
_atom_site_type_symbol
_atom_type_description
_atom_site_fract_x
_atom_site_fract_y
_atom_site_fract_z
_atom_type_partial_charge
C1    C     C_R   0.552743 0.475637 0.597284 0.530489
C2    C     C_R   0.400731 0.837327 0.131943 0.599842
C3    C     C_R   0.051889 0.515302 0.105574 0.567094
C4    C     C_R   0.476698 0.546365 0.119363 0.571752
C5    C     C_R   0.552721 0.476754 0.403944 0.661990
C6    C     C_R   0.523598 0.072993 0.403697 0.612001
C7    C     C_R   0.923729 0.446867 0.402638 0.607079
C8    C     C_1   0.034893 0.515625 0.858974 0.006676
C9    C     C_1   0.486950 0.520445 0.859179 0.005507
C10   C     C_1   0.436414 0.888806 0.847972 -0.000289
C11   C     C_1   0.993545 0.494873 0.726611 -0.028810
C12   C     C_R   0.522940 0.074518 0.596824 0.537878
C13   C     C_1   0.504834 0.498594 0.726734 -0.029120
C14   C     C_1   0.478101 0.963371 0.718961 -0.025828
C15   C     C_1   0.013603 0.507157 0.798152 -0.033020
C16   C     C_1   0.494536 0.507159 0.798303 -0.033161
C17   C     C_1   0.456201 0.920770 0.788141 -0.030770
C18   C     C_1   0.969498 0.477936 0.666166 0.015654
C19   C     C_1   0.520717 0.491044 0.666117 0.016190
C20   C     C_1   0.497485 0.008089 0.661534 0.011567
C21   C     C_2   0.974409 0.476001 0.331999 0.245223
C22   C     C_2   0.522341 0.500905 0.336103 0.247694
C23   C     C_R   0.922358 0.446513 0.597505 0.536135
C24   C     C_2   0.496965 0.995136 0.340270 0.258144
C25   C     C_2   0.965535 0.485662 0.165720 -0.058902
C26   C     C_2   0.505743 0.497666 0.180564 -0.095567
C27   C     C_2   0.409912 0.845767 0.207565 -0.052285
C28   C     C_2   0.952621 0.397547 0.213295 0.264931
C29   C     C_2   0.605767 0.577439 0.219556 0.202655
C30   C     C_2   0.341502 0.885959 0.247108 0.269743
C31   C     C_3   0.075849 0.305916 0.246138 0.021264
C32   C     C_3   0.135298 0.225986 0.219354 -0.356581
C33   C     C_3   0.738595 0.793812 0.245384 -0.019807
C34   C     C_2   0.896997 0.399084 0.281418 0.247629
C35   C     C_3   0.787439 0.923472 0.209689 -0.330722
C36   C     C_3   0.134304 0.839271 0.219877 -0.008448
C37   C     C_3   0.065335 0.854545 0.157557 -0.358446
C38   C     C_2   0.616548 0.532353 0.287309 0.199611
C39   C     C_2   0.373164 0.916478 0.321398 0.270894
C40   C     C_R   0.409605 0.851514 0.919118 0.567077
C41   C     C_R   0.076005 0.527997 0.928782 0.537061
C42   C     C_R   0.473260 0.548756 0.928957 0.544319
Cr1   Cr    Cr6+3 0.468420 0.238090 0.499960 1.086294
Cr2   Cr    Cr6+3 0.761910 0.230330 0.499960 1.052266
Cr3   Cr    Cr6+3 0.769670 0.531580 0.499960 1.067415
Cr4   Cr    Cr6+3 0.515700 0.760130 0.026360 1.049273
Cr5   Cr    Cr6+3 0.239870 0.755570 0.026360 1.006589
Cr6   Cr    Cr6+3 0.244430 0.484300 0.026360 1.027334
H1    H     H_    0.930213 0.552447 0.177497 0.023694
H2    H     H_    0.656713 0.779303 0.280103 0.138596
H3    H     H_    0.707151 0.925610 0.181712 0.203481
H4    H     H_    0.825940 0.001869 0.248687 0.131073
H5    H     H_    0.865036 0.939968 0.171903 0.145746
H6    H     H_    0.089825 0.856019 0.266799 0.141905
H7    H     H_    0.117276 0.738464 0.220652 0.155542
H8    H     H_    0.103832 0.836273 0.108904 0.185903
H9    H     H_    0.960313 0.784702 0.161221 0.128640
H10   H     H_    0.079501 0.953885 0.155726 0.145421
H11   H     H_    0.727699 0.267784 0.251824 0.345886
H12   H     H_    0.436041 0.401726 0.198888 0.074541
H13   H     H_    0.788542 0.561871 0.262331 0.325359
H14   H     H_    0.193753 0.816388 0.350054 0.325178
H15   H     H_    0.144773 0.599791 0.363404 0.325761
H16   H     H_    0.413411 0.555534 0.286940 0.303502
H17   H     H_    0.681011 0.068623 0.318807 0.355374
H18   H     H_    0.472879 0.815177 0.231736 0.077980
H19   H     H_    0.027578 0.264985 0.296681 0.149323
H20   H     H_    0.156692 0.406105 0.253455 0.197681
H21   H     H_    0.181249 0.262312 0.167927 0.175302
H22   H     H_    0.209948 0.232343 0.255929 0.145427
H23   H     H_    0.059748 0.123691 0.214705 0.135154
H24   H     H_    0.817900 0.796725 0.277008 0.149179
O1    O     O_R   0.434830 0.101190 0.575190 -0.501946
O2    O     O_R   0.664850 0.560590 0.424150 -0.491579
O3    O     O_R   0.484380 0.363570 0.430280 -0.484915
O4    O     O_R   0.636430 0.120810 0.430280 -0.509123
O5    O     O_R   0.879190 0.515620 0.430280 -0.468607
O6    O     O_3   0.666667 0.333333 0.499980 -0.286482
O7    O     O_R   0.548200 0.655360 0.951320 -0.517256
O8    O     O_R   0.344640 0.892840 0.951320 -0.492233
O9    O     O_R   0.107160 0.451800 0.951320 -0.505766
O10   O     O_R   0.505020 0.871000 0.955840 -0.474939
O11   O     O_R   0.129000 0.634020 0.955840 -0.530946
O12   O     O_R   0.898810 0.333640 0.575190 -0.508861
O13   O     O_R   0.365980 0.494980 0.955840 -0.496583
O14   O     O_R   0.543640 0.655270 0.102360 -0.461225
O15   O     O_R   0.344730 0.888370 0.102360 -0.443127
O16   O     O_R   0.111630 0.456360 0.102360 -0.447218
O17   O     O_R   0.500790 0.870920 0.095850 -0.481934
O18   O     O_R   0.129080 0.629870 0.095850 -0.547958
O19   O     O_R   0.370130 0.499210 0.095850 -0.516646
O20   O     O_3   0.985171 0.302313 0.197860 -0.547685
O21   O     O_3   0.701389 0.696565 0.194517 -0.553998
O22   O     O_3   0.266847 0.932624 0.216401 -0.525238
O23   O     O_R   0.666360 0.565170 0.575190 -0.511281
O24   O     O_3   0.768630 0.312215 0.295557 -0.683486
O25   O     O_3   0.729584 0.530632 0.303023 -0.671008
O26   O     O_3   0.275286 0.884538 0.369728 -0.706216
O27   O     O_3   0.102179 0.564905 0.318469 -0.805874
O28   O     O_3   0.406378 0.500708 0.326931 -0.757393
O29   O     O_3   0.597314 0.016177 0.295432 -0.777615
O30   O     O_3   0.333333 0.666667 0.026340 -0.292300
O31   O     O_R   0.480130 0.360720 0.570290 -0.503962
O32   O     O_R   0.639280 0.119410 0.570290 -0.503718
O33   O     O_R   0.880590 0.519870 0.570290 -0.502251
O34   O     O_R   0.439410 0.104260 0.424150 -0.453564
O35   O     O_R   0.895740 0.335150 0.424150 -0.506230

loop_
_geom_bond_atom_site_label_1
_geom_bond_atom_site_label_2
_ccdc_geom_bond_type
Cr1   O1    S    
C11   C18   T    
C35   H5    S    
H17   O29   S    
Cr2   O32   S    
Cr4   O17   S    
Cr1   O6    S    
C31   H19   S    
Cr4   O30   S    
C9    C42   S    
C3    O18   A    
C36   C37   S    
C9    C16   T    
C34   O24   S    
C12   O32   A    
Cr4   O7    S    
C21   O27   S    
C4    O14   A    
C10   C17   T    
C41   O11   A    
C24   C39   D    
Cr6   O9    S    
C10   C40   S    
C24   O29   S    
C5    O2    A    
Cr2   O4    S    
H15   O27   S    
C33   H24   S    
Cr4   O10   S    
C37   H8    S    
C11   C15   S    
C5    C22   S    
Cr6   O19   S    
C29   C38   S    
C40   O8    A    
C2    C27   S    
Cr5   O11   S    
C1    O31   A    
C37   H10   S    
C7    O5    A    
C4    O19   A    
Cr6   O30   S    
C42   O7    A    
Cr5   O30   S    
H14   O26   S    
C12   O1    A    
C27   C30   D    
C14   C17   S    
Cr5   O8    S    
C38   O25   S    
Cr3   O33   S    
C32   H23   S    
C25   H1    S    
Cr1   O3    S    
C31   H20   S    
C1    C19   S    
C22   O28   S    
C23   O12   A    
C13   C19   T    
C18   C23   S    
C40   O10   A    
C3    C25   S    
C8    C41   S    
C39   O26   S    
C32   H22   S    
C21   C34   D    
C33   H2    S    
C7    C21   S    
Cr3   O2    S    
C25   C28   D    
Cr1   O34   S    
Cr5   O15   S    
C5    O3    A    
C2    O17   A    
C14   C20   T    
C31   C32   S    
C1    O23   A    
C41   O9    A    
C12   C20   S    
Cr6   O16   S    
C6    O34   A    
C2    O15   A    
C28   O20   S    
C42   O13   A    
Cr3   O6    S    
C8    C15   T    
C35   H3    S    
Cr5   O18   S    
C7    O35   A    
H11   O24   S    
Cr3   O23   S    
Cr2   O35   S    
C3    O16   A    
H13   O25   S    
Cr2   O12   S    
C33   O21   S    
C4    C26   S    
C6    O4    A    
C32   H21   S    
Cr2   O6    S    
C30   O22   S    
C36   H7    S    
C29   O21   S    
C6    C24   S    
C33   C35   S    
C30   C39   S    
Cr1   O31   S    
C36   H6    S    
C28   C34   S    
C36   O22   S    
H16   O28   S    
C26   C29   D    
C31   O20   S    
C13   C16   S    
C35   H4    S    
C27   H18   S    
Cr6   O13   S    
Cr3   O5    S    
C26   H12   S    
C37   H9    S    
Cr4   O14   S    
C22   C38   D    
C23   O33   A    
