data_mof_unit_50.cif
_audit_creation_date              2012-12-10T20:37:26-0500
_audit_creation_method            fapswitch 2.2
_symmetry_space_group_name_H-M    P1
_symmetry_Int_Tables_number       1
_space_group_crystal_system       triclinic
_cell_length_a                    15.723094
_cell_length_b                    10.651408
_cell_length_c                    9.85287
_cell_angle_alpha                 90.1633
_cell_angle_beta                  90.197873
_cell_angle_gamma                 89.514242
_cell_volume                      1650.01486932

loop_
_atom_site_label
_atom_site_type_symbol
_atom_type_description
_atom_site_fract_x
_atom_site_fract_y
_atom_site_fract_z
_atom_type_partial_charge
C1    C     C_R   0.497546 0.259906 0.499856 0.897324
C2    C     C_3   0.083304 0.508694 0.503032 -0.009614
C3    C     C_3   0.971165 0.613726 0.572995 -0.454979
C4    C     C_3   0.917071 0.510812 0.504187 0.024990
C5    C     C_3   0.026657 0.612693 0.443526 0.534296
C6    C     C_3   0.971097 0.512654 0.373766 -0.279367
C7    C     C_1   0.174006 0.506232 0.500339 0.015512
C8    C     C_1   0.826256 0.507467 0.503092 0.036530
C9    C     C_R   0.485943 0.064318 0.622889 -0.007369
C10   C     C_R   0.483392 0.128803 0.500439 -0.108603
C11   C     C_R   0.463071 0.064987 0.380103 -0.229117
C12   C     C_R   0.337942 0.500357 0.499758 0.898298
C13   C     C_R   0.461382 0.935080 0.380697 -0.223164
C14   C     C_R   0.479283 0.871070 0.501927 -0.076981
C15   C     C_R   0.481698 0.936297 0.624635 0.055281
C16   C     C_3   0.541539 0.923765 0.742992 -0.578767
C17   C     C_3   0.548207 0.066501 0.739102 0.356935
C18   C     C_R   0.464390 0.403011 0.070741 0.216641
C19   C     C_R   0.542027 0.589482 0.072521 -0.128078
C20   C     C_R   0.542116 0.589396 0.928461 -0.121720
C21   C     C_R   0.464398 0.403043 0.928142 0.225851
C22   C     C_3   0.373888 0.362939 0.921542 -0.512193
C23   C     C_R   0.495758 0.739984 0.500259 0.875847
C24   C     C_3   0.373807 0.363018 0.075718 -0.510187
C25   C     C_R   0.662138 0.500414 0.500324 0.903293
C26   C     C_3   0.973577 0.407009 0.563978 0.537990
C27   C     C_3   0.028267 0.407054 0.434745 -0.376338
C28   C     C_1   0.249192 0.503302 0.499392 -0.196040
C29   C     C_1   0.751019 0.503975 0.501471 -0.186112
C30   C     C_3   0.028486 0.507956 0.631469 0.407726
H1    H     H_    0.053442 0.324001 0.379312 0.167417
H2    H     H_    0.600303 0.870135 0.718538 0.203650
H3    H     H_    0.519664 0.111604 0.830308 0.102437
H4    H     H_    0.574616 0.663026 0.127298 0.147073
H5    H     H_    0.574959 0.662632 0.874495 0.145357
H6    H     H_    0.331266 0.435841 0.876905 0.225178
H7    H     H_    0.367310 0.267589 0.876742 0.194685
H8    H     H_    0.331193 0.436023 0.120145 0.227922
H9    H     H_    0.366996 0.267723 0.119823 0.194549
H10   H     H_    0.944888 0.515985 0.269114 0.159051
H11   H     H_    0.945343 0.698735 0.623958 0.155961
H12   H     H_    0.454711 0.113987 0.284732 0.166025
H13   H     H_    0.452673 0.885669 0.285459 0.169586
H14   H     H_    0.508197 0.889567 0.834894 0.176182
N1    N     N_R   0.499430 0.499140 0.142800 -0.106211
N2    N     N_R   0.499430 0.499180 0.857150 -0.104119
O1    O     O_R   0.500010 0.316790 0.614690 -0.601245
O2    O     O_R   0.500000 0.316760 0.385350 -0.629276
O3    O     O_R   0.376780 0.500010 0.614650 -0.624701
O4    O     O_R   0.376770 0.499970 0.385310 -0.613507
O5    O     O_R   0.500000 0.683240 0.614650 -0.618195
O6    O     O_R   0.499990 0.683210 0.385310 -0.632054
O7    O     O_R   0.623230 0.500030 0.614690 -0.596556
O8    O     O_R   0.623220 0.499990 0.385350 -0.614923
Zn1   Zn    Zn3+2 0.500010 0.500020 0.653130 0.963963
Zn2   Zn    Zn3+2 0.499990 0.499980 0.346870 0.945552
O9    O     O_3   0.630255 0.117314 0.711236 -0.614876
C31   C     C_3   0.673766 0.065048 0.597830 0.134379
H15   H     H_    0.691170 0.143184 0.529097 0.148442
H16   H     H_    0.635800 0.999074 0.535550 0.139540
C32   C     C_3   0.755545 0.999539 0.645540 -0.328830
H17   H     H_    0.801619 0.071275 0.680770 0.242515
H18   H     H_    0.741794 0.936853 0.732490 0.223363
C33   C     C_3   0.795314 0.921243 0.531801 -1.022916
H19   H     H_    0.751452 0.845330 0.499877 0.268030
H20   H     H_    0.855312 0.877412 0.568554 0.265239
H21   H     H_    0.809739 0.981374 0.443002 0.268780
O10   O     O_3   0.938101 0.301025 0.627317 -0.643859
C34   C     C_3   0.002471 0.218316 0.674815 0.126685
H22   H     H_    0.984740 0.190035 0.779372 0.176741
H23   H     H_    0.067014 0.260499 0.682069 0.153381
C35   C     C_3   0.006972 0.101274 0.584541 -0.403311
H24   H     H_    0.941796 0.068760 0.561344 0.250839
H25   H     H_    0.038393 0.124491 0.487183 0.210701
C36   C     C_3   0.056307 0.995146 0.653730 -0.959469
H26   H     H_    0.121732 0.025883 0.679711 0.274670
H27   H     H_    0.060671 0.912848 0.584826 0.286262
H28   H     H_    0.023026 0.965872 0.747588 0.258785
O11   O     O_3   0.061437 0.720075 0.382020 -0.646759
C37   C     C_3   0.996920 0.793171 0.319182 0.075699
H29   H     H_    0.005359 0.892246 0.351552 0.165095
H30   H     H_    0.930782 0.767019 0.348084 0.139240
C38   C     C_3   0.006991 0.785870 0.165038 -0.343304
H31   H     H_    0.071663 0.817867 0.137163 0.235529
H32   H     H_    0.999895 0.687114 0.130838 0.210111
C39   C     C_3   0.941072 0.867515 0.092260 -0.977917
H33   H     H_    0.875815 0.835633 0.116684 0.269593
H34   H     H_    0.950521 0.860230 0.980848 0.257616
H35   H     H_    0.947971 0.967329 0.123052 0.268284
O12   O     O_3   0.062034 0.490454 0.763649 -0.659727
C40   C     C_3   0.073769 0.605609 0.832457 0.096672
H36   H     H_    0.081742 0.582849 0.941721 0.171571
H37   H     H_    0.016978 0.668207 0.826214 0.131980
C41   C     C_3   0.154203 0.672695 0.784470 -0.353778
H38   H     H_    0.207926 0.604378 0.779301 0.239697
H39   H     H_    0.143206 0.712451 0.681782 0.232917
C42   C     C_3   0.178666 0.779010 0.880648 -0.966782
H40   H     H_    0.125159 0.846847 0.891639 0.268156
H41   H     H_    0.234537 0.829191 0.839533 0.272639
H42   H     H_    0.195715 0.740802 0.982032 0.266687

loop_
_geom_bond_atom_site_label_1
_geom_bond_atom_site_label_2
_ccdc_geom_bond_type
C35   H25   S    
C3    C30   S    
C18   C21   A    
C19   C20   A    
C30   O12   S    
C42   H40   S    
C23   O6    A    
C26   C27   S    
C12   C28   S    
C38   H31   S    
C18   C24   S    
C8    C29   T    
C25   O7    A    
C35   C36   S    
C5    C6    S    
C39   H34   S    
C31   H16   S    
C15   C16   S    
C24   H9    S    
C11   H12   S    
C34   H23   S    
C32   H18   S    
C20   H5    S    
C2    C7    S    
N1    Zn2   S    
C16   C17   S    
N2    Zn1   S    
C24   H8    S    
C2    C27   S    
C5    O11   S    
C9    C10   A    
C16   H14   S    
C32   H17   S    
C4    C8    S    
C35   H24   S    
C31   C32   S    
C21   C22   S    
C34   H22   S    
C17   H3    S    
C37   C38   S    
C42   H41   S    
C12   O3    A    
O7    Zn1   S    
C25   C29   S    
O8    Zn2   S    
C27   H1    S    
C33   H21   S    
C6    H10   S    
C25   O8    A    
C37   H30   S    
C40   H36   S    
C39   H33   S    
O10   C34   S    
C41   C42   S    
C31   H15   S    
O3    Zn1   S    
C22   H7    S    
C39   H35   S    
O4    Zn2   S    
C7    C28   T    
C33   H20   S    
C14   C23   S    
C34   C35   S    
C36   H26   S    
C40   H37   S    
C23   O5    A    
C6    C27   S    
C41   H39   S    
C36   H27   S    
C4    C6    S    
C38   H32   S    
C26   C30   S    
C22   C24   S    
C2    C5    S    
O12   C40   S    
C3    C4    S    
C18   N1    A    
C13   H13   S    
C42   H42   S    
O1    Zn1   S    
C21   N2    A    
C9    C17   S    
O2    Zn2   S    
C3    H11   S    
C1    O1    A    
C1    C10   S    
C37   H29   S    
C3    C5    S    
C19   H4    S    
C4    C26   S    
C19   N1    A    
C1    O2    A    
C16   H2    S    
C22   H6    S    
C2    C30   S    
C26   O10   S    
C33   H19   S    
C9    C15   A    
C32   C33   S    
C11   C13   A    
O9    C31   S    
O5    Zn1   S    
C41   H38   S    
C36   H28   S    
C10   C11   A    
O11   C37   S    
C38   C39   S    
C14   C15   A    
C13   C14   A    
C12   O4    A    
C20   N2    A    
O6    Zn2   S    
C17   O9    S    
C40   C41   S    
