data_mof_unit_3199.cif
_audit_creation_date              2012-12-10T17:57:51-0500
_audit_creation_method            fapswitch 2.2
_symmetry_space_group_name_H-M    P1
_symmetry_Int_Tables_number       1
_space_group_crystal_system       triclinic
_cell_length_a                    10.886231
_cell_length_b                    9.773091
_cell_length_c                    15.061175
_cell_angle_alpha                 86.392991
_cell_angle_beta                  95.065731
_cell_angle_gamma                 90.237665
_cell_volume                      1592.96811467

loop_
_atom_site_label
_atom_site_type_symbol
_atom_type_description
_atom_site_fract_x
_atom_site_fract_y
_atom_site_fract_z
_atom_type_partial_charge
C1    C     C_R   0.263095 0.499999 0.498292 0.836614
C2    C     C_R   0.737450 0.500222 0.501669 0.773425
C3    C     C_R   0.281468 0.554970 0.031485 -0.179495
C4    C     C_R   0.719133 0.452796 0.968570 -0.180103
C5    C     C_R   0.071759 0.395581 0.548160 0.106079
C6    C     C_R   0.931684 0.609277 0.454631 0.080493
C7    C     C_R   0.943868 0.394228 0.548090 0.097085
C8    C     C_R   0.059283 0.605749 0.451451 0.132590
C9    C     C_R   0.872215 0.501292 0.501483 -0.162977
C10   C     C_R   0.129334 0.499832 0.498640 -0.127409
C11   C     C_R   0.423931 0.079561 0.438718 0.224060
C12   C     C_R   0.568993 0.919569 0.566064 0.210392
C13   C     C_R   0.564077 0.066928 0.567440 0.170366
C14   C     C_R   0.431063 0.932652 0.435066 0.198757
C15   C     C_R   0.498869 0.503281 0.329589 0.795250
C16   C     C_R   0.500667 0.496562 0.670483 0.812590
C17   C     C_R   0.607934 0.468399 0.821451 0.031883
C18   C     C_R   0.391198 0.529758 0.179122 0.038198
C19   C     C_R   0.496946 0.490242 0.767138 -0.131898
C20   C     C_R   0.502529 0.509240 0.233139 -0.125558
C21   C     C_R   0.385804 0.519653 0.804458 0.064081
C22   C     C_R   0.613927 0.481307 0.195699 0.065479
C23   C     C_R   0.387249 0.525324 0.898353 0.090879
C24   C     C_R   0.613159 0.480939 0.101628 0.093368
C25   C     C_R   0.499219 0.502205 0.952948 -0.004638
C26   C     C_R   0.501352 0.505496 0.047044 -0.006283
C27   C     C_R   0.609087 0.474588 0.914021 0.123144
C28   C     C_R   0.391053 0.530658 0.086161 0.122179
C29   C     C_R   0.279582 0.553051 0.939483 -0.233101
C30   C     C_R   0.721281 0.455984 0.060404 -0.232455
Cu1   Cu    Cu3+1 0.500000 0.640660 0.500000 0.906378
Cu2   Cu    Cu3+1 0.500000 0.359340 0.500000 0.911445
H1    H     H_    0.191853 0.573630 0.901933 0.158492
H2    H     H_    0.809445 0.437481 0.097786 0.157936
H3    H     H_    0.195702 0.576038 0.059432 0.177289
H4    H     H_    0.805083 0.432192 0.940746 0.178654
N1    N     N_R   0.500000 0.852070 0.500000 -0.225571
N2    N     N_R   0.500000 0.147930 0.500000 -0.218145
O1    O     O_R   0.319640 0.618740 0.499990 -0.572169
O2    O     O_R   0.680360 0.381260 0.500010 -0.589883
O3    O     O_R   0.680360 0.618740 0.500010 -0.614865
O4    O     O_R   0.319640 0.381260 0.499990 -0.565145
O5    O     O_R   0.499970 0.618800 0.370260 -0.589622
O6    O     O_R   0.500030 0.381200 0.629740 -0.586374
O7    O     O_R   0.500030 0.618800 0.629740 -0.573504
O8    O     O_R   0.499970 0.381200 0.370260 -0.598397
N3    N     N_3   0.720838 0.439815 0.783325 -0.624301
H5    H     H_    0.734919 0.512126 0.731150 0.202844
H6    H     H_    0.713349 0.343057 0.758305 0.216435
N4    N     N_3   0.276350 0.542793 0.218337 -0.619042
H7    H     H_    0.263386 0.455631 0.260334 0.210123
H8    H     H_    0.280443 0.628416 0.256328 0.223570
C31   C     C_3   0.266716 0.542247 0.743908 -0.387132
C32   C     C_3   0.236873 0.694502 0.725162 -0.806382
H9    H     H_    0.228054 0.745552 0.788028 0.242051
H10   H     H_    0.310316 0.746521 0.689099 0.269937
H11   H     H_    0.148428 0.706076 0.682600 0.238245
H12   H     H_    0.272641 0.496577 0.679280 0.208885
H13   H     H_    0.188458 0.487307 0.772401 0.187367
C33   C     C_3   0.731349 0.447982 0.256363 -0.390046
C34   C     C_3   0.756916 0.293871 0.266183 -0.787653
H14   H     H_    0.679344 0.239088 0.295957 0.266688
H15   H     H_    0.769251 0.252338 0.200694 0.241939
H16   H     H_    0.842365 0.273823 0.311031 0.234975
H17   H     H_    0.811640 0.505031 0.232472 0.187772
H18   H     H_    0.725008 0.482493 0.323979 0.196105
N5    N     N_3   0.143982 0.292312 0.601150 -0.570917
H19   H     H_    0.115593 0.195946 0.580993 0.241652
H20   H     H_    0.125942 0.297599 0.667878 0.222964
N6    N     N_3   0.865928 0.724182 0.409062 -0.605976
H21   H     H_    0.794530 0.690473 0.364956 0.226052
H22   H     H_    0.830986 0.784337 0.456002 0.241465
N7    N     N_3   0.890599 0.285876 0.600336 -0.620353
H23   H     H_    0.838192 0.222821 0.558210 0.238372
H24   H     H_    0.837156 0.329311 0.645215 0.207094
N8    N     N_3   0.118108 0.710006 0.398983 -0.612798
H25   H     H_    0.079828 0.709365 0.332844 0.229707
H26   H     H_    0.100160 0.805229 0.423140 0.239810
C35   C     C_3   0.321246 0.155065 0.378922 -0.321821
C36   C     C_3   0.191906 0.119385 0.407227 -0.878300
H27   H     H_    0.136421 0.067972 0.353615 0.230520
H28   H     H_    0.196037 0.051719 0.469524 0.250095
H29   H     H_    0.141130 0.214170 0.418260 0.258528
H30   H     H_    0.327505 0.265507 0.376847 0.251582
H31   H     H_    0.326966 0.134547 0.307900 0.167854
C37   C     C_3   0.664901 0.842647 0.632275 -0.342368
C38   C     C_3   0.633083 0.821769 0.729669 -0.814471
H32   H     H_    0.532744 0.806507 0.733821 0.268390
H33   H     H_    0.681457 0.729946 0.762004 0.238076
H34   H     H_    0.667314 0.905952 0.770884 0.239368
H35   H     H_    0.684061 0.741353 0.613365 0.254481
H36   H     H_    0.756240 0.893087 0.629712 0.144306
C39   C     C_3   0.614589 0.131321 0.651128 -0.326348
C40   C     C_3   0.515565 0.131803 0.718689 -0.749962
H37   H     H_    0.493211 0.028484 0.745724 0.225000
H38   H     H_    0.547452 0.192544 0.775941 0.229553
H39   H     H_    0.426111 0.172708 0.687200 0.273893
H40   H     H_    0.700360 0.083876 0.682921 0.163499
H41   H     H_    0.649994 0.232543 0.633090 0.225613
C41   C     C_3   0.370325 0.868546 0.353478 -0.341757
C42   C     C_3   0.453095 0.881969 0.276099 -0.830121
H42   H     H_    0.461349 0.990735 0.251614 0.229442
H43   H     H_    0.547532 0.843198 0.297237 0.271292
H44   H     H_    0.412996 0.823593 0.219731 0.245793
H45   H     H_    0.344180 0.763065 0.369852 0.262928
H46   H     H_    0.279608 0.912901 0.329974 0.185965

loop_
_geom_bond_atom_site_label_1
_geom_bond_atom_site_label_2
_ccdc_geom_bond_type
C38   H32   S    
C4    H4    S    
C39   C40   S    
C34   H16   S    
N7    H23   S    
C5    N5    S    
C6    C9    A    
C31   H13   S    
N3    H6    S    
C31   C32   S    
C41   H45   S    
C42   H42   S    
Cu1   O5    S    
C23   C29   A    
C3    C28   A    
C19   C21   A    
C24   C26   A    
C37   H35   S    
C22   C33   S    
C35   H30   S    
C11   C14   A    
C2    O3    A    
C29   H1    S    
C8    N8    S    
C7    C9    A    
C12   N1    A    
C34   H15   S    
Cu1   Cu2   S    
N4    H8    S    
N6    H21   S    
Cu2   N2    S    
C39   H41   S    
C23   C25   A    
C33   H18   S    
C42   H43   S    
N7    H24   S    
C34   H14   S    
C36   H29   S    
C15   C20   S    
C32   H10   S    
C30   H2    S    
N5    H19   S    
C17   C27   A    
C18   C28   A    
N8    H25   S    
C7    N7    S    
C5    C7    A    
C37   C38   S    
C6    C8    A    
C40   H39   S    
C25   C26   A    
Cu1   N1    S    
C13   C39   S    
C33   C34   S    
N5    H20   S    
C11   N2    A    
N3    H5    S    
C3    H3    S    
N4    H7    S    
Cu2   O6    S    
C40   H38   S    
C13   N2    A    
C11   C35   S    
C36   H28   S    
C20   C22   A    
C33   H17   S    
C42   H44   S    
C38   H33   S    
C22   C24   A    
C35   H31   S    
C4    C27   A    
C18   N4    S    
C6    N6    S    
C16   O6    A    
C32   H9    S    
Cu1   O3    S    
Cu2   O8    S    
C1    C10   S    
C17   N3    S    
N8    H26   S    
C36   H27   S    
C16   O7    A    
C31   H12   S    
C14   C41   S    
C41   H46   S    
C25   C27   A    
C26   C28   A    
C12   C37   S    
C21   C23   A    
C15   O5    A    
C5    C10   A    
C37   H36   S    
C14   N1    A    
C21   C31   S    
C3    C29   A    
C16   C19   S    
C41   C42   S    
C17   C19   A    
Cu1   O1    S    
C18   C20   A    
Cu2   O2    S    
C40   H37   S    
C24   C30   A    
C1    O1    A    
C35   C36   S    
C2    O2    A    
C1    O4    A    
C12   C13   A    
C8    C10   A    
Cu1   O7    S    
C38   H34   S    
Cu2   O4    S    
N6    H22   S    
C15   O8    A    
C2    C9    S    
C39   H40   S    
C4    C30   A    
C32   H11   S    
