data_mof_unit_2286.cif
_audit_creation_date              2012-10-26T19:59:40-0400
_audit_creation_method            fapswitch 2.2
_symmetry_space_group_name_H-M    P1
_symmetry_Int_Tables_number       1
_space_group_crystal_system       triclinic
_cell_length_a                    10.72041
_cell_length_b                    8.683768
_cell_length_c                    7.492537
_cell_angle_alpha                 103.118267
_cell_angle_beta                  94.203158
_cell_angle_gamma                 92.813516
_cell_volume                      675.924856057

loop_
_atom_site_label
_atom_site_type_symbol
_atom_type_description
_atom_site_fract_x
_atom_site_fract_y
_atom_site_fract_z
_atom_type_partial_charge
C1    C     C_R   0.494633 0.199819 0.453400 0.541682
C2    C     C_R   0.504106 0.800195 0.546828 0.523184
C3    C     C_R   0.737149 0.503123 0.498094 0.535246
C4    C     C_R   0.149906 0.793282 0.666147 -0.103087
C5    C     C_R   0.093729 0.933350 0.736349 -0.121383
C6    C     C_R   0.963639 0.935513 0.725807 -0.128693
C7    C     C_R   0.889049 0.797371 0.646145 -0.118066
C8    C     C_R   0.944104 0.653755 0.576815 0.025117
C9    C     C_3   0.676632 0.769129 0.055116 -0.221591
C10   C     C_R   0.075966 0.651986 0.585119 0.026662
C11   C     C_R   0.129629 0.509441 0.507110 0.008144
C12   C     C_R   0.055059 0.373077 0.420156 -0.153686
C13   C     C_R   0.926222 0.374209 0.414805 -0.156425
C14   C     C_R   0.871021 0.512203 0.494802 0.003564
C15   C     C_2   0.488319 0.031617 0.428291 -0.158874
C16   C     C_2   0.507597 0.968472 0.572930 -0.171505
C17   C     C_R   0.262954 0.501683 0.502432 0.533169
Cu1   Cu    Cu3+1 0.513920 0.517380 0.684380 0.941636
Cu2   Cu    Cu3+1 0.486080 0.482620 0.315620 0.974983
H1    H     H_    0.097069 0.264912 0.357970 0.118299
H2    H     H_    0.718250 0.535999 0.030232 0.252299
H3    H     H_    0.748900 0.822885 0.168952 0.105983
H4    H     H_    0.592917 0.839416 0.070750 0.150719
H5    H     H_    0.715034 0.773516 0.923044 0.146597
H6    H     H_    0.251125 0.797224 0.674552 0.132862
H7    H     H_    0.151362 0.040936 0.797556 0.114026
H8    H     H_    0.920351 0.044837 0.778379 0.114664
H9    H     H_    0.788443 0.804620 0.636403 0.112261
H10   H     H_    0.869268 0.266396 0.350997 0.115155
H11   H     H_    0.466701 0.959436 0.289870 0.126746
H12   H     H_    0.527170 0.040709 0.712097 0.129042
H13   H     H_    0.389299 0.396544 0.954935 0.212639
N1    N     N_2   0.465100 0.456430 0.038520 -0.206970
N2    N     N_2   0.534900 0.543570 0.961480 -0.052697
N3    N     N_2   0.645061 0.607302 0.062004 -0.325057
O1    O     O_R   0.509050 0.286130 0.619770 -0.508760
O2    O     O_R   0.485540 0.256780 0.308360 -0.505643
O3    O     O_R   0.331410 0.514680 0.655740 -0.518137
O4    O     O_R   0.307900 0.485330 0.344330 -0.502236
O5    O     O_R   0.514460 0.743220 0.691640 -0.522522
O6    O     O_R   0.490950 0.713870 0.380230 -0.471648
O7    O     O_R   0.692100 0.514670 0.655670 -0.515354
O8    O     O_R   0.668590 0.485320 0.344260 -0.482343

loop_
_geom_bond_atom_site_label_1
_geom_bond_atom_site_label_2
_ccdc_geom_bond_type
C11   C12   A    
C9    H5    S    
C6    C7    A    
C1    C15   S    
C2    C16   S    
C6    H8    S    
C1    O2    A    
H13   N1    S    
C12   H1    S    
N1    N2    D    
Cu1   O3    S    
C7    C8    A    
C3    O7    A    
C13   C14   A    
C16   H12   S    
Cu1   N2    S    
C3    O8    A    
C3    C14   S    
Cu2   O4    S    
H2    N3    S    
C15   C16   D    
C13   H10   S    
Cu2   O8    S    
C4    H6    S    
C17   O3    A    
Cu1   O7    S    
Cu2   N1    S    
C5    C6    A    
C9    H3    S    
C10   C11   A    
C2    O6    A    
C4    C10   A    
C5    H7    S    
C2    O5    A    
C12   C13   A    
C15   H11   S    
C8    C10   A    
N2    N3    S    
C17   O4    A    
C9    N3    S    
Cu1   O5    S    
Cu1   Cu2   S    
C8    C14   A    
Cu2   O2    S    
Cu1   O1    S    
C9    H4    S    
C7    H9    S    
Cu2   O6    S    
C1    O1    A    
C4    C5    A    
C11   C17   S    
