data_mof_unit_1808.cif
_audit_creation_date              2012-12-10T17:37:49-0500
_audit_creation_method            fapswitch 2.2
_symmetry_space_group_name_H-M    P1
_symmetry_Int_Tables_number       1
_space_group_crystal_system       triclinic
_cell_length_a                    12.459371
_cell_length_b                    13.414485
_cell_length_c                    17.180061
_cell_angle_alpha                 109.069502
_cell_angle_beta                  74.793721
_cell_angle_gamma                 118.08301
_cell_volume                      2373.97063732

loop_
_atom_site_label
_atom_site_type_symbol
_atom_type_description
_atom_site_fract_x
_atom_site_fract_y
_atom_site_fract_z
_atom_type_partial_charge
C1    C     C_R   0.144070 0.713558 0.510238 0.811406
C2    C     C_R   0.967510 0.609567 0.798365 -0.133124
C3    C     C_R   0.018530 0.605148 0.170259 -0.126817
C4    C     C_R   0.005554 0.595002 0.250484 -0.155207
C5    C     C_R   0.089876 0.451975 0.197669 -0.162719
C6    C     C_R   0.102178 0.461418 0.117255 -0.158070
C7    C     C_R   0.062288 0.534633 0.102714 0.164103
C8    C     C_2   0.983882 0.555784 0.994407 -0.218939
C9    C     C_2   0.062321 0.530722 0.016329 -0.177781
C10   C     C_R   0.036322 0.514857 0.264236 -0.037500
C11   C     C_R   0.706993 0.981492 0.364845 -0.188559
C12   C     C_R   0.986351 0.503873 0.652082 0.802021
C13   C     C_R   0.770958 0.162527 0.468995 -0.079927
C14   C     C_R   0.188456 0.911745 0.594036 -0.230677
C15   C     C_R   0.265104 0.028699 0.615978 -0.158301
C16   C     C_R   0.382376 0.074914 0.572645 0.398669
C17   C     C_R   0.428095 0.998223 0.509063 -0.040756
C18   C     C_R   0.341610 0.882484 0.479253 0.070328
C19   C     C_R   0.553859 0.028337 0.473834 0.128228
C20   C     C_R   0.584639 0.952466 0.401189 0.159526
C21   C     C_R   0.493466 0.847888 0.365644 -0.183265
C22   C     C_R   0.373826 0.812644 0.404483 -0.118017
C23   C     C_R   0.855316 0.286085 0.488705 0.825153
C24   C     C_R   0.651234 0.127548 0.510526 -0.142791
C25   C     C_R   0.799302 0.087066 0.397692 -0.109597
C26   C     C_R   0.224471 0.838310 0.525200 -0.047752
C27   C     C_R   0.607769 0.605298 0.660818 -0.174349
C28   C     C_R   0.277998 0.393702 0.370845 0.568388
C29   C     C_R   0.399365 0.441822 0.333979 -0.273083
C30   C     C_R   0.491935 0.509884 0.384743 -0.108454
C31   C     C_R   0.464198 0.511072 0.469535 0.020495
C32   C     C_R   0.342657 0.496220 0.504564 0.069159
C33   C     C_R   0.551942 0.534647 0.521324 -0.143980
C34   C     C_R   0.016509 0.500927 0.348345 0.821677
C35   C     C_R   0.517448 0.557600 0.608327 -0.015076
C36   C     C_R   0.394017 0.537305 0.639640 0.409615
C37   C     C_R   0.325960 0.546261 0.591116 0.334307
C38   C     C_R   0.662863 0.517831 0.492224 0.591841
C39   C     C_R   0.725106 0.612829 0.628226 -0.048222
C40   C     C_R   0.979489 0.513262 0.739429 0.007058
C41   C     C_R   0.982920 0.426052 0.764538 -0.128947
C42   C     C_R   0.982157 0.438358 0.848169 -0.088381
C43   C     C_R   0.977247 0.538032 0.906941 0.180295
C44   C     C_R   0.965939 0.621688 0.882135 -0.129229
Cu1   Cu    Cu3+1 0.900140 0.524980 0.518800 1.030738
Cu2   Cu    Cu3+1 0.099860 0.475020 0.481200 1.067497
H1    H     H_    0.985913 0.348790 0.719418 0.164653
H2    H     H_    0.138817 0.408377 0.066072 0.148195
H3    H     H_    0.515500 0.790831 0.309170 0.140041
H4    H     H_    0.730663 0.924285 0.309226 0.151427
H5    H     H_    0.099590 0.878687 0.630760 0.171490
H6    H     H_    0.306674 0.729476 0.375392 0.132240
H7    H     H_    0.793212 0.648842 0.669712 0.152687
H8    H     H_    0.970918 0.649461 0.301810 0.180978
H9    H     H_    0.590139 0.640842 0.726501 0.212414
H10   H     H_    0.423348 0.419524 0.267309 0.185024
H11   H     H_    0.119376 0.393426 0.207117 0.207240
N1    N     N_R   0.749710 0.562810 0.547300 -0.239476
N2    N     N_R   0.249640 0.437820 0.453210 -0.249479
O1    O     O_R   0.025490 0.682370 0.523640 -0.607308
O2    O     O_R   0.194150 0.640180 0.491890 -0.525199
O3    O     O_R   0.905900 0.523560 0.631310 -0.617473
O4    O     O_R   0.074570 0.481370 0.599560 -0.548214
O5    O     O_R   0.805850 0.359820 0.508110 -0.507652
O6    O     O_R   0.974510 0.317630 0.476360 -0.534885
O7    O     O_R   0.925430 0.518630 0.400440 -0.513078
O8    O     O_R   0.094100 0.476440 0.368690 -0.587547
H12   H     H_    0.891125 0.111719 0.364992 0.241364
H13   H     H_    0.636070 0.181032 0.570510 0.192520
S1    S     S_3+6 0.448207 0.228102 0.588183 -0.009731
O9    O     O_2   0.534305 0.263593 0.513130 -0.260582
O10   O     O_2   0.348379 0.267280 0.602302 -0.258118
O11   O     O_3   0.522799 0.291757 0.672228 -0.541294
H14   H     H_    0.572891 0.373957 0.669217 0.381995
H15   H     H_    0.230760 0.084635 0.666072 0.197234
S2    S     S_3+6 0.323311 0.506714 0.738365 0.045413
O12   O     O_2   0.408021 0.500658 0.783120 -0.297932
O13   O     O_2   0.278698 0.597252 0.791128 -0.234848
O14   O     O_3   0.202671 0.376366 0.722634 -0.532973
H16   H     H_    0.183271 0.349985 0.774219 0.363997
S3    S     S_3+6 0.668305 0.414874 0.392240 0.046496
O15   O     O_2   0.729258 0.339299 0.386137 -0.228058
O16   O     O_2   0.540507 0.331255 0.372558 -0.266536
O17   O     O_3   0.742112 0.487993 0.317231 -0.607179
H17   H     H_    0.725962 0.427762 0.264367 0.375827
S4    S     S_3+6 0.175193 0.257226 0.318551 0.018553
O18   O     O_2   0.068985 0.264586 0.299287 -0.308948
O19   O     O_2   0.240135 0.210756 0.238662 -0.287617
O20   O     O_3   0.120816 0.164288 0.380212 -0.520256
H18   H     H_    0.194517 0.163484 0.391269 0.364959
H19   H     H_    0.584878 0.550251 0.356669 0.202982
S5    S     S_3+6 0.349994 0.694962 0.620233 0.020885
O21   O     O_2   0.412188 0.747455 0.546537 -0.322480
O22   O     O_2   0.231366 0.706574 0.653400 -0.304605
O23   O     O_3   0.442428 0.771814 0.695168 -0.516851
H20   H     H_    0.455371 0.853319 0.704294 0.378833
H21   H     H_    0.122142 0.497481 0.968415 0.176620
H22   H     H_    0.959837 0.697833 0.927188 0.140134
H23   H     H_    0.993496 0.667502 0.161669 0.140298
H24   H     H_    0.962523 0.676534 0.779267 0.138880
H25   H     H_    0.923351 0.589746 0.040367 0.149730
H26   H     H_    0.985618 0.370410 0.866924 0.124228

loop_
_geom_bond_atom_site_label_1
_geom_bond_atom_site_label_2
_ccdc_geom_bond_type
C15   H15   S    
Cu1   O1    S    
C40   C41   A    
Cu2   N2    S    
C41   C42   A    
O23   H20   S    
C18   C26   A    
S2    O14   S    
C34   O7    A    
C21   H3    S    
S3    O15   D    
C39   H7    S    
Cu1   Cu2   S    
C6    H2    S    
C36   C37   A    
S2    O13   D    
C3    C7    A    
C14   H5    S    
C30   C31   A    
C27   H9    S    
C11   C25   A    
C15   C16   A    
Cu1   O3    S    
C13   C23   S    
O11   H14   S    
C36   S2    S    
C17   C19   A    
C38   N1    A    
C44   H22   S    
C19   C20   A    
C2    C44   A    
C8    C9    D    
C8    C43   S    
S1    O9    D    
C8    H25   S    
C2    H24   S    
C21   C22   A    
C13   C25   A    
C25   H12   S    
C42   H26   S    
S3    O16   D    
C24   H13   S    
Cu1   N1    S    
C11   C20   A    
C31   C33   A    
Cu2   O2    S    
C16   S1    S    
S2    O12   D    
Cu2   O6    S    
C1    O1    A    
C27   C39   A    
C12   O4    A    
S4    O18   D    
C16   C17   A    
C27   C35   A    
C39   N1    A    
S5    O23   S    
C14   C26   A    
C13   C24   A    
C35   C36   A    
C12   C40   S    
C43   C44   A    
C29   C30   A    
C2    C40   A    
C12   O3    A    
C31   C32   A    
S1    O11   S    
S5    O22   D    
C17   C18   A    
C41   H1    S    
C10   C34   S    
C32   C37   A    
O17   H17   S    
C23   O5    A    
C38   S3    S    
C28   S4    S    
C1    C26   S    
C42   C43   A    
C4    C10   A    
C3    C4    A    
S3    O17   S    
C22   H6    S    
C28   N2    A    
C7    C9    S    
C28   C29   A    
C9    H21   S    
C37   S5    S    
C4    H8    S    
C18   C22   A    
C30   H19   S    
S4    O20   S    
C1    O2    A    
C34   O8    A    
C6    C7    A    
C29   H10   S    
Cu1   O5    S    
C33   C38   A    
C5    H11   S    
Cu2   O4    S    
C23   O6    A    
C19   C24   A    
Cu2   O8    S    
C11   H4    S    
C5    C6    A    
S5    O21   D    
C33   C35   A    
S4    O19   D    
O14   H16   S    
C3    H23   S    
C5    C10   A    
C20   C21   A    
Cu1   O7    S    
C14   C15   A    
S1    O10   D    
C32   N2    A    
O20   H18   S    
