data_mof_unit_2060.cif
_audit_creation_date              2012-10-26T20:34:00-0400
_audit_creation_method            fapswitch 2.2
_symmetry_space_group_name_H-M    P1
_symmetry_Int_Tables_number       1
_space_group_crystal_system       triclinic
_cell_length_a                    15.902513
_cell_length_b                    9.088391
_cell_length_c                    7.787343
_cell_angle_alpha                 89.991061
_cell_angle_beta                  90.117761
_cell_angle_gamma                 90.054098
_cell_volume                      1125.48821061

loop_
_atom_site_label
_atom_site_type_symbol
_atom_type_description
_atom_site_fract_x
_atom_site_fract_y
_atom_site_fract_z
_atom_type_partial_charge
C1    C     C_R   0.499985 0.220034 0.500009 0.549723
C2    C     C_3   0.047690 0.491817 0.326431 -0.245505
C3    C     C_3   0.951294 0.383628 0.616269 -0.268416
C4    C     C_3   0.951008 0.509014 0.328183 -0.245483
C5    C     C_1   0.749731 0.504741 0.501891 -0.037668
C6    C     C_1   0.250270 0.503822 0.500215 -0.045572
C7    C     C_3   0.082932 0.516753 0.510469 0.048873
C8    C     C_3   0.917214 0.518190 0.515739 0.059077
C9    C     C_3   0.949818 0.664512 0.605393 0.594445
C10   C     C_3   0.049570 0.673793 0.575068 0.588017
C11   C     C_3   0.112368 0.639614 0.859368 -0.122480
C12   C     C_1   0.825095 0.510468 0.507245 -0.046293
C13   C     C_3   0.134153 0.861239 0.442333 -0.089412
C14   C     C_3   0.848510 0.670451 0.835124 -0.124200
C15   C     C_3   0.925808 0.923943 0.605242 -0.064455
C16   C     C_1   0.174894 0.509262 0.503457 -0.065181
C17   C     C_R   0.339770 0.499939 0.499873 0.539912
C18   C     C_R   0.660232 0.500247 0.500257 0.541896
C19   C     C_1   0.499977 0.934617 0.499992 -0.052132
C20   C     C_1   0.499976 0.065382 0.500014 -0.052163
C21   C     C_R   0.499989 0.779970 0.499993 0.549867
C22   C     C_3   0.048338 0.384856 0.617485 -0.274302
Cu1   Cu    Cu3+1 0.500000 0.500010 0.669080 1.015212
Cu2   Cu    Cu3+1 0.500000 0.500010 0.330920 1.018941
H1    H     H_    0.928650 0.280176 0.555050 0.109786
H2    H     H_    0.134243 0.707938 0.968693 0.143580
H3    H     H_    0.166211 0.568462 0.825384 0.115497
H4    H     H_    0.190941 0.796946 0.476715 0.140835
H5    H     H_    0.125175 0.952948 0.534824 0.142594
H6    H     H_    0.145197 0.910565 0.314064 0.115521
H7    H     H_    0.822682 0.558209 0.854091 0.120616
H8    H     H_    0.808064 0.732757 0.744509 0.156776
H9    H     H_    0.844946 0.727438 0.960828 0.139672
H10   H     H_    0.968819 0.918550 0.717729 0.178003
H11   H     H_    0.865803 0.973937 0.648107 0.099335
H12   H     H_    0.922384 0.413731 0.259624 0.113242
H13   H     H_    0.954110 0.999037 0.509001 0.135895
H14   H     H_    0.070797 0.279732 0.560074 0.119190
H15   H     H_    0.064361 0.379844 0.279395 0.110833
H16   H     H_    0.075706 0.570050 0.232884 0.151545
H17   H     H_    0.072438 0.380988 0.750361 0.106974
H18   H     H_    0.933027 0.609827 0.255807 0.181192
H19   H     H_    0.927591 0.382832 0.750419 0.143785
H20   H     H_    0.058558 0.575499 0.908741 0.154466
N1    N     N_1   0.500000 0.499970 0.076820 -0.080933
N2    N     N_1   0.500000 0.499970 0.923180 -0.081085
O1    O     O_R   0.500000 0.288400 0.642760 -0.495028
O2    O     O_3   0.060693 0.773559 0.433722 -0.571806
O3    O     O_3   0.934131 0.661745 0.786695 -0.602297
O4    O     O_3   0.908396 0.786740 0.525506 -0.562592
O5    O     O_R   0.500000 0.288400 0.357240 -0.495128
O6    O     O_R   0.379440 0.500020 0.642850 -0.497804
O7    O     O_R   0.379440 0.500020 0.357150 -0.499330
O8    O     O_R   0.620560 0.500020 0.642850 -0.504279
O9    O     O_R   0.620560 0.500020 0.357150 -0.495062
O10   O     O_R   0.500000 0.711620 0.642810 -0.495483
O11   O     O_R   0.500000 0.711620 0.357190 -0.495117
O12   O     O_3   0.090551 0.735829 0.724165 -0.576091

loop_
_geom_bond_atom_site_label_1
_geom_bond_atom_site_label_2
_ccdc_geom_bond_type
C8    C9    S    
C13   O2    S    
C2    C4    S    
Cu1   Cu2   S    
C4    H12   S    
C13   H4    S    
C21   O11   A    
C11   H3    S    
C7    C10   S    
C11   O12   S    
C9    C10   S    
C15   H10   S    
C19   C20   T    
C8    C12   S    
C14   H7    S    
C4    C8    S    
C14   H9    S    
C11   H20   S    
Cu1   N2    S    
N1    N2    T    
Cu2   O9    S    
C1    O5    A    
C21   O10   A    
C3    H19   S    
Cu1   O6    S    
C4    H18   S    
C18   O9    A    
Cu1   O8    S    
Cu2   N1    S    
C17   O6    A    
C15   H11   S    
C7    C16   S    
C10   O12   S    
C10   O2    S    
C22   H17   S    
Cu1   O1    S    
C18   O8    A    
C6    C16   T    
C7    C22   S    
C17   O7    A    
C13   H6    S    
C3    H1    S    
C9    O3    S    
C14   O3    S    
C2    C7    S    
C5    C12   T    
C3    C8    S    
C1    C20   S    
C15   O4    S    
Cu1   O10   S    
C6    C17   S    
C15   H13   S    
C3    C22   S    
C5    C18   S    
C11   H2    S    
C19   C21   S    
Cu2   O7    S    
C2    H15   S    
C1    O1    A    
C9    O4    S    
C2    H16   S    
C13   H5    S    
C14   H8    S    
Cu2   O11   S    
Cu2   O5    S    
C22   H14   S    
