data_mof_unit_1951.cif
_audit_creation_date              2012-12-10T18:42:28-0500
_audit_creation_method            fapswitch 2.2
_symmetry_space_group_name_H-M    P1
_symmetry_Int_Tables_number       1
_space_group_crystal_system       triclinic
_cell_length_a                    8.697477
_cell_length_b                    10.728886
_cell_length_c                    9.962968
_cell_angle_alpha                 90.863026
_cell_angle_beta                  99.295129
_cell_angle_gamma                 95.174853
_cell_volume                      913.324577814

loop_
_atom_site_label
_atom_site_type_symbol
_atom_type_description
_atom_site_fract_x
_atom_site_fract_y
_atom_site_fract_z
_atom_type_partial_charge
C1    C     C_R   0.505992 0.260809 0.500362 0.940943
C2    C     C_R   0.494006 0.739191 0.499638 0.940944
C3    C     C_R   0.201741 0.500227 0.464448 0.932363
C4    C     C_R   0.798259 0.499774 0.535552 0.932365
C5    C     C_2   0.036465 0.486041 0.446927 0.116434
C6    C     C_2   0.963535 0.513961 0.553073 0.116425
C7    C     C_R   0.443358 0.060183 0.381883 -0.219340
C8    C     C_R   0.556632 0.939817 0.618118 -0.219332
C9    C     C_R   0.429598 0.931874 0.380689 0.423485
C10   C     C_R   0.570392 0.068125 0.619312 0.423486
C11   C     C_R   0.489917 0.871628 0.499409 -0.206508
C12   C     C_R   0.510076 0.128372 0.500592 -0.206505
C13   C     C_R   0.600694 0.581542 0.090105 0.367939
C14   C     C_R   0.399307 0.418458 0.909894 0.367944
C15   C     C_R   0.602992 0.582935 0.946848 0.296133
C16   C     C_R   0.397008 0.417065 0.053151 0.296131
H1    H     H_    0.398428 0.106056 0.290243 0.251202
H2    H     H_    0.601557 0.893943 0.709760 0.251210
N1    N     N_R   0.499960 0.499970 0.857200 -0.209858
N2    N     N_R   0.500040 0.500030 0.142800 -0.209857
O1    O     O_R   0.499990 0.316750 0.614620 -0.554053
O2    O     O_R   0.500010 0.683250 0.385380 -0.554053
O3    O     O_R   0.499990 0.316780 0.385290 -0.577238
O4    O     O_R   0.500010 0.683220 0.614710 -0.577236
O5    O     O_R   0.271750 0.499990 0.587840 -0.576882
O6    O     O_R   0.728250 0.500010 0.412160 -0.576880
O7    O     O_R   0.271750 0.500010 0.358510 -0.520237
O8    O     O_R   0.728250 0.499990 0.641490 -0.520237
Zn1   Zn    Zn3+2 0.500000 0.499980 0.653120 1.145153
Zn2   Zn    Zn3+2 0.500000 0.500020 0.346880 1.145153
Cl1   Cl    Cl    0.944066 0.412473 0.289055 -0.445639
Cl2   Cl    Cl    0.055934 0.587526 0.710949 -0.445649
Cl3   Cl    Cl    0.327932 0.853206 0.230749 -0.431034
Cl4   Cl    Cl    0.672049 0.146791 0.769255 -0.431033
Cl5   Cl    Cl    0.728181 0.685635 0.205786 -0.378634
Cl6   Cl    Cl    0.271818 0.314365 0.794214 -0.378632
S1    S     S_3+6 0.748347 0.696876 0.899629 0.157550
O9    O     O_2   0.716269 0.822425 0.952413 -0.228359
O10   O     O_2   0.904404 0.666215 0.973918 -0.144435
O11   O     O_3   0.768432 0.714875 0.737128 -0.530413
H3    H     H_    0.847073 0.787793 0.737660 0.391421
S2    S     S_3+6 0.251652 0.303125 0.100370 0.157550
O12   O     O_2   0.095595 0.333785 0.026078 -0.144430
O13   O     O_2   0.283731 0.177576 0.047587 -0.228366
O14   O     O_3   0.231561 0.285124 0.262870 -0.530407
H4    H     H_    0.152936 0.212195 0.262335 0.391416

loop_
_geom_bond_atom_site_label_1
_geom_bond_atom_site_label_2
_ccdc_geom_bond_type
C2    O2    A    
C6    Cl2   S    
S2    O13   D    
C1    O1    A    
S1    O9    D    
C8    H2    S    
C4    O6    A    
C16   N2    A    
C1    O3    A    
C3    O7    A    
S1    O10   D    
N2    Zn2   S    
O14   H4    S    
O7    Zn2   S    
C15   N1    A    
C9    C11   A    
C5    C6    D    
C1    C12   S    
C10   C12   A    
C9    Cl3   S    
C8    C11   A    
C2    C11   S    
C8    C10   A    
O8    Zn1   S    
C4    O8    A    
O6    Zn2   S    
S1    O11   S    
C13   C15   A    
C2    O4    A    
C7    C12   A    
C14   C16   A    
S2    O12   D    
C10   Cl4   S    
O3    Zn2   S    
C16   S2    S    
C3    O5    A    
O5    Zn1   S    
C4    C6    S    
C7    C9    A    
O4    Zn1   S    
O11   H3    S    
C14   Cl6   S    
C5    Cl1   S    
O2    Zn2   S    
C13   N2    A    
C3    C5    S    
O1    Zn1   S    
C14   N1    A    
C13   Cl5   S    
C15   S1    S    
C7    H1    S    
S2    O14   S    
N1    Zn1   S    
