data_mof_unit_994.cif
_audit_creation_date              2012-12-11T14:17:40-0500
_audit_creation_method            fapswitch 2.2
_symmetry_space_group_name_H-M    P1
_symmetry_Int_Tables_number       1
_space_group_crystal_system       triclinic
_cell_length_a                    6.947236
_cell_length_b                    13.639582
_cell_length_c                    20.418851
_cell_angle_alpha                 102.09628
_cell_angle_beta                  90.51811
_cell_angle_gamma                 90.466721
_cell_volume                      1891.70054072

loop_
_atom_site_label
_atom_site_type_symbol
_atom_type_description
_atom_site_fract_x
_atom_site_fract_y
_atom_site_fract_z
_atom_type_partial_charge
O1    O     O_R   0.506860 0.599390 0.449240 -0.538976
O2    O     O_R   0.180220 0.594600 0.586780 -0.542533
O3    O     O_R   0.004500 0.400610 0.550760 -0.539090
C1    C     C_R   0.349691 0.613274 0.614166 0.750247
O4    O     O_R   0.177490 0.611290 0.451970 -0.541267
O5    O     O_R   0.001750 0.417420 0.414990 -0.539148
C2    C     C_R   0.346119 0.637914 0.435209 0.696827
O6    O     O_R   0.509610 0.582580 0.585010 -0.544389
O7    O     O_3   0.337420 0.436370 0.488020 -0.373364
V1    V     V_3+5 0.064680 0.511800 0.502220 1.418297
O8    O     O_R   0.671710 0.405400 0.413220 -0.546956
C3    C     C_R   0.839334 0.384049 0.386521 0.740801
O9    O     O_R   0.674440 0.388710 0.548030 -0.542207
C4    C     C_R   0.843519 0.362092 0.564778 0.695933
V2    V     V_3+5 0.564010 0.488200 0.497780 1.411841
O10   O     O_3   0.841140 0.563630 0.511980 -0.372347
C5    C     C_R   0.916575 0.114489 0.613341 -0.160692
H1    H     H_    0.909770 0.164630 0.520552 0.105215
H2    H     H_    0.956382 0.991315 0.696981 0.131438
H3    H     H_    0.947261 0.037892 0.588733 0.113566
C6    C     C_R   0.854699 0.285253 0.604861 -0.031342
C7    C     C_R   0.820526 0.313119 0.928053 -0.167479
C8    C     C_R   0.799501 0.388309 0.892110 -0.120619
C9    C     C_R   0.813349 0.366475 0.822545 -0.159842
C10   C     C_R   0.849939 0.267673 0.786833 0.080263
C11   C     C_R   0.874618 0.191190 0.824224 0.070778
C12   C     C_R   0.862264 0.242170 0.715418 0.073024
C13   C     C_R   0.901586 0.141423 0.683329 0.143786
C14   C     C_R   0.926680 0.068245 0.721154 -0.229061
C15   C     C_R   0.913078 0.092490 0.790415 -0.214619
C16   C     C_R   0.837787 0.313097 0.674477 -0.215860
C17   C     C_R   0.894564 0.186192 0.574406 -0.175506
C18   C     C_R   0.858282 0.214910 0.894902 -0.078727
H4    H     H_    0.808438 0.390885 0.694873 0.093487
H5    H     H_    0.806509 0.331468 0.982054 0.103104
H6    H     H_    0.794477 0.428816 0.798444 0.105529
H7    H     H_    0.770746 0.464245 0.918354 0.117708
H8    H     H_    0.932566 0.032674 0.817255 0.130590
C19   C     C_2   0.004739 0.288622 0.285557 -0.132592
C20   C     C_2   0.841340 0.315703 0.319711 -0.311190
C21   C     C_2   0.013970 0.220595 0.217980 -0.135666
C22   C     C_2   0.859299 0.183287 0.180301 -0.306312
H9    H     H_    0.156938 0.201368 0.198598 0.131224
H10   H     H_    0.715170 0.201741 0.198224 0.127184
C23   C     C_2   0.227821 0.768526 0.789324 -0.187935
C24   C     C_2   0.357433 0.842505 0.813037 0.010683
H11   H     H_    0.124900 0.747516 0.823851 0.111781
C25   C     C_2   0.211191 0.712779 0.718650 -0.139850
C26   C     C_2   0.364877 0.673799 0.683048 -0.340595
H12   H     H_    0.067140 0.695869 0.698085 0.141918
H13   H     H_    0.507398 0.684419 0.705989 0.135201
C27   C     C_R   0.356936 0.888949 0.387498 -0.158301
H14   H     H_    0.352191 0.838747 0.480272 0.103213
H15   H     H_    0.357452 0.967314 0.412554 0.113006
C28   C     C_R   0.354090 0.714788 0.395103 -0.030601
C29   C     C_R   0.356853 0.684582 0.071331 -0.169649
C30   C     C_R   0.353221 0.608450 0.107043 -0.118699
C31   C     C_R   0.352686 0.631172 0.176829 -0.156954
C32   C     C_R   0.355543 0.731949 0.213042 0.077095
C33   C     C_R   0.357761 0.809736 0.175979 0.067288
C34   C     C_R   0.356383 0.758129 0.284628 0.072106
C35   C     C_R   0.357764 0.861110 0.317275 0.141715
C36   C     C_R   0.359470 0.935714 0.279789 -0.203144
C37   C     C_R   0.359800 0.910655 0.210334 -0.194572
C38   C     C_R   0.355518 0.685834 0.325226 -0.213511
C39   C     C_R   0.354328 0.816136 0.426154 -0.175824
C40   C     C_R   0.358820 0.784884 0.105020 -0.073604
H16   H     H_    0.354510 0.606422 0.304431 0.093079
H17   H     H_    0.358373 0.665250 0.017079 0.099687
H18   H     H_    0.349976 0.567913 0.200695 0.106588
H19   H     H_    0.351371 0.530933 0.080406 0.118494
H20   H     H_    0.361414 0.971491 0.183742 0.118224
O11   O     O_R   0.203230 0.917310 0.915020 -0.546270
O12   O     O_R   0.535500 0.888690 0.048040 -0.540011
O13   O     O_R   0.711080 0.082610 0.085000 -0.543436
C41   C     C_R   0.366934 0.862267 0.064980 0.688364
O14   O     O_R   0.532630 0.905370 0.913230 -0.545052
O15   O     O_R   0.708190 0.099410 0.949230 -0.541482
C42   C     C_R   0.363731 0.888462 0.885484 0.721456
O16   O     O_R   0.206120 0.900510 0.050790 -0.538562
O17   O     O_3   0.375360 0.063570 0.011990 -0.373105
V3    V     V_3+5 0.648170 0.988200 0.997780 1.411346
O18   O     O_R   0.038240 0.111390 0.951940 -0.540907
C43   C     C_R   0.869211 0.137549 0.934897 0.687563
O19   O     O_R   0.041120 0.094710 0.086750 -0.542400
C44   C     C_R   0.872963 0.115705 0.113525 0.745212
V4    V     V_3+5 0.148810 0.011930 0.002180 1.412163
O20   O     O_3   0.871750 0.936430 0.988010 -0.371210
H21   H     H_    0.702689 0.287758 0.298943 0.126216
C45   C     C_3   0.487383 0.889487 0.767975 -0.364260
C46   C     C_3   0.447768 0.001429 0.775911 -0.737860
H22   H     H_    0.292235 0.013560 0.768595 0.231014
H23   H     H_    0.493587 0.043435 0.826305 0.230529
H24   H     H_    0.528001 0.031602 0.737617 0.228256
H25   H     H_    0.640515 0.878917 0.780836 0.175392
H26   H     H_    0.466142 0.856220 0.714176 0.202381
H27   H     H_    0.360602 0.014299 0.304395 0.122646
H28   H     H_    0.141812 0.317051 0.308054 0.134121

loop_
_geom_bond_atom_site_label_1
_geom_bond_atom_site_label_2
_ccdc_geom_bond_type
O18   V4    S    
V4    O20   S    
C21   C22   D    
C2    C28   S    
C1    O6    A    
O17   V3    S    
C45   C46   S    
C45   H25   S    
C19   C21   S    
C23   C24   D    
C7    H5    S    
C6    C16   A    
C9    H6    S    
O12   C41   A    
C4    C6    S    
C13   C14   A    
O16   V4    S    
O19   C44   A    
C24   C42   S    
V2    O10   S    
C5    H3    S    
C29   C30   A    
C15   H8    S    
C23   H11   S    
O11   V4    S    
O13   C44   A    
O8    V2    S    
C33   C40   A    
C26   H13   S    
C8    C9    A    
C22   C44   S    
C20   H21   S    
O7    V1    S    
C25   H12   S    
C32   C33   A    
O9    C4    A    
C21   H9    S    
C22   H10   S    
O12   V3    S    
C28   C38   A    
C27   H15   S    
O14   C42   A    
C6    C17   A    
C32   C34   A    
O19   V4    S    
C12   C16   A    
C9    C10   A    
C46   H22   S    
O4    C2    A    
C31   H18   S    
C19   H28   S    
C31   C32   A    
C8    H7    S    
C3    C20   S    
O2    C1    A    
C14   C15   A    
O15   C43   A    
C46   H23   S    
O15   V3    S    
C11   C18   A    
O18   C43   A    
C38   H16   S    
C35   C36   A    
O11   C42   A    
C16   H4    S    
C30   H19   S    
H14   C39   S    
O17   V4    S    
O3    C4    A    
O1    V2    S    
C25   C26   D    
C11   C15   A    
O6    V2    S    
O9    V2    S    
H1    C17   S    
O2    V1    S    
C19   C20   D    
C28   C39   A    
C27   C39   A    
C23   C25   S    
C7    C18   A    
O1    C2    A    
C5    C13   A    
C41   O16   A    
O5    V1    S    
O8    C3    A    
O13   V3    S    
C45   H26   S    
C24   C45   S    
C10   C12   A    
C29   C40   A    
C1    C26   S    
C33   C37   A    
C10   C11   A    
O4    V1    S    
C36   H27   S    
O3    V1    S    
V1    O10   S    
C46   H24   S    
O5    C3    A    
C30   C31   A    
O14   V3    S    
V3    O20   S    
C37   H20   S    
O7    V2    S    
C34   C35   A    
C18   C43   S    
C36   C37   A    
C34   C38   A    
C29   H17   S    
C12   C13   A    
C5    C17   A    
C7    C8    A    
C27   C35   A    
C40   C41   S    
H2    C14   S    
