data_mof_unit_1298.cif
_audit_creation_date              2012-12-11T14:04:09-0500
_audit_creation_method            fapswitch 2.2
_symmetry_space_group_name_H-M    P1
_symmetry_Int_Tables_number       1
_space_group_crystal_system       triclinic
_cell_length_a                    19.172319
_cell_length_b                    11.000923
_cell_length_c                    18.656402
_cell_angle_alpha                 89.933144
_cell_angle_beta                  89.685336
_cell_angle_gamma                 90.032813
_cell_volume                      3934.81886172

loop_
_atom_site_label
_atom_site_type_symbol
_atom_type_description
_atom_site_fract_x
_atom_site_fract_y
_atom_site_fract_z
_atom_type_partial_charge
C1    C     C_R   0.239535 0.467434 0.646880 0.542583
C2    C     C_R   0.760487 0.467525 0.353207 0.542737
C3    C     C_R   0.739535 0.967434 0.646880 0.542583
C4    C     C_R   0.260487 0.967525 0.353207 0.542737
C5    C     C_2   0.283699 0.831623 0.534023 -0.163957
C6    C     C_2   0.716577 0.830384 0.466480 -0.161275
C7    C     C_2   0.783700 0.331624 0.534023 -0.163958
C8    C     C_2   0.216577 0.330384 0.466480 -0.161274
C9    C     C_R   0.007329 0.667827 0.425183 -0.031787
C10   C     C_R   0.990992 0.662477 0.575560 -0.029087
C11   C     C_R   0.507329 0.167827 0.425183 -0.031787
C12   C     C_R   0.490992 0.162477 0.575560 -0.029088
C13   C     C_R   0.002414 0.897395 0.428475 0.059930
C14   C     C_R   0.958753 0.886094 0.573809 0.030510
C15   C     C_R   0.502414 0.397395 0.428474 0.059930
C16   C     C_R   0.458753 0.386095 0.573809 0.030510
C17   C     C_R   0.969935 0.995559 0.461687 -0.126009
C18   C     C_R   0.947145 0.989040 0.531431 -0.141461
C19   C     C_R   0.469935 0.495559 0.461687 -0.126009
C20   C     C_R   0.447145 0.489040 0.531431 -0.141461
C21   C     C_R   0.984741 0.776602 0.539400 0.005853
C22   C     C_R   0.000137 0.780300 0.463506 0.008034
C23   C     C_R   0.484741 0.276602 0.539400 0.005853
C24   C     C_R   0.500137 0.280300 0.463506 0.008034
C25   C     C_R   0.990850 0.552230 0.534950 0.019734
C26   C     C_R   0.016524 0.557206 0.463380 0.015388
C27   C     C_R   0.490850 0.052230 0.534950 0.019734
C28   C     C_R   0.516524 0.057206 0.463380 0.015388
C29   C     C_R   0.974001 0.434542 0.565022 0.064981
C30   C     C_R   0.043448 0.447343 0.430951 0.062306
C31   C     C_R   0.474001 0.934542 0.565022 0.064981
C32   C     C_R   0.543448 0.947342 0.430951 0.062306
C33   C     C_R   0.998247 0.330376 0.530523 -0.145794
C34   C     C_R   0.033550 0.336714 0.466293 -0.140716
C35   C     C_R   0.498246 0.830376 0.530523 -0.145794
C36   C     C_R   0.533550 0.836714 0.466294 -0.140717
C37   C     C_2   0.237613 0.895229 0.929321 -0.107215
C38   C     C_2   0.762583 0.895292 0.070529 -0.105203
C39   C     C_2   0.737613 0.395229 0.929321 -0.107215
C40   C     C_2   0.262583 0.395292 0.070529 -0.105206
C41   C     C_2   0.246834 0.893598 0.086123 -0.086437
C42   C     C_2   0.752286 0.893416 0.914068 -0.086017
C43   C     C_2   0.746834 0.393598 0.086123 -0.086437
C44   C     C_2   0.252286 0.393416 0.914068 -0.086017
C45   C     C_R   0.225938 0.871406 0.646447 0.542647
C46   C     C_R   0.774389 0.870581 0.353883 0.543604
C47   C     C_R   0.725938 0.371406 0.646447 0.542648
C48   C     C_R   0.274389 0.370581 0.353883 0.543604
C49   C     C_2   0.186395 0.901133 0.050394 0.130582
C50   C     C_2   0.813297 0.896749 0.948786 0.129801
C51   C     C_2   0.686395 0.401133 0.050394 0.130582
C52   C     C_2   0.313297 0.396750 0.948786 0.129801
C53   C     C_2   0.184275 0.871749 0.974505 -0.109565
C54   C     C_2   0.815646 0.870237 0.025233 -0.107871
C55   C     C_2   0.684275 0.371749 0.974505 -0.109565
C56   C     C_2   0.315645 0.370239 0.025233 -0.107872
C57   C     C_2   0.012468 0.654295 0.927426 -0.094117
C58   C     C_2   0.010526 0.665134 0.084012 -0.101689
C59   C     C_2   0.512467 0.154296 0.927426 -0.094120
C60   C     C_2   0.510526 0.165133 0.084012 -0.101689
C61   C     C_2   0.029333 0.566659 0.047388 -0.168195
C62   C     C_2   0.043206 0.572631 0.970964 -0.158124
C63   C     C_2   0.529330 0.066657 0.047387 -0.168196
C64   C     C_2   0.543202 0.072628 0.970964 -0.158127
C65   C     C_R   0.028140 0.655071 0.645376 0.541888
C66   C     C_R   0.971522 0.655662 0.354820 0.542203
C67   C     C_R   0.528140 0.155071 0.645376 0.541888
C68   C     C_R   0.471522 0.155662 0.354820 0.542203
C69   C     C_R   0.239583 0.462419 0.849120 0.560373
C70   C     C_R   0.760337 0.462721 0.150806 0.565641
C71   C     C_R   0.739583 0.962419 0.849120 0.560373
C72   C     C_R   0.260337 0.962721 0.150806 0.565642
C73   C     C_R   0.225887 0.870647 0.854335 0.544001
C74   C     C_R   0.774156 0.870729 0.145611 0.544662
C75   C     C_R   0.725887 0.370647 0.854335 0.544001
C76   C     C_R   0.274156 0.370729 0.145611 0.544662
C77   C     C_R   0.031624 0.651410 0.852478 0.553433
C78   C     C_R   0.972381 0.652905 0.150519 0.548450
C79   C     C_R   0.531624 0.151410 0.852478 0.553434
C80   C     C_R   0.472382 0.152905 0.150519 0.548451
C81   C     C_2   0.246851 0.909056 0.575219 -0.113141
C82   C     C_2   0.754108 0.907307 0.425447 -0.109180
C83   C     C_2   0.746851 0.409056 0.575219 -0.113141
C84   C     C_2   0.254108 0.407307 0.425447 -0.109180
C85   C     C_2   0.245049 0.905936 0.419720 -0.125374
C86   C     C_2   0.755232 0.904836 0.580848 -0.127006
C87   C     C_2   0.745050 0.405936 0.419720 -0.125374
C88   C     C_2   0.255232 0.404836 0.580848 -0.127006
C89   C     C_2   0.295927 0.856927 0.458668 -0.165526
C90   C     C_2   0.704571 0.855183 0.541984 -0.164168
C91   C     C_2   0.795928 0.356928 0.458668 -0.165527
C92   C     C_2   0.204572 0.355183 0.541984 -0.164168
Cr1   Cr    Cr6+3 0.113970 0.508630 0.747920 1.011382
Cr2   Cr    Cr6+3 0.886030 0.508630 0.252080 1.014570
Cr3   Cr    Cr6+3 0.613970 0.008630 0.747920 1.011381
Cr4   Cr    Cr6+3 0.386030 0.008630 0.252080 1.014570
Cr5   Cr    Cr6+3 0.269200 0.666740 0.749850 1.024055
Cr6   Cr    Cr6+3 0.730800 0.666740 0.250150 1.024681
Cr7   Cr    Cr6+3 0.769200 0.166740 0.749850 1.024055
Cr8   Cr    Cr6+3 0.230800 0.166740 0.250150 1.024681
Cr9   Cr    Cr6+3 0.112300 0.820070 0.749800 1.030643
Cr10  Cr    Cr6+3 0.887700 0.820070 0.250200 1.028050
Cr11  Cr    Cr6+3 0.612300 0.320070 0.749800 1.030642
Cr12  Cr    Cr6+3 0.387700 0.320070 0.250200 1.028050
H1    H     H_    0.347766 0.841125 0.436772 0.161155
H2    H     H_    0.652891 0.839045 0.564102 0.166182
H3    H     H_    0.847767 0.341129 0.436773 0.161156
H4    H     H_    0.152891 0.339045 0.564102 0.166182
H5    H     H_    0.134448 0.840296 0.953912 0.179174
H6    H     H_    0.865273 0.837995 0.045925 0.171883
H7    H     H_    0.634448 0.340296 0.953912 0.179173
H8    H     H_    0.365273 0.337997 0.045924 0.171884
H9    H     H_    0.291413 0.848462 0.061664 0.089181
H10   H     H_    0.706807 0.852673 0.939546 0.081345
H11   H     H_    0.791413 0.348462 0.061664 0.089182
H12   H     H_    0.206807 0.352674 0.939546 0.081346
H13   H     H_    0.288289 0.926554 0.947267 0.093749
H14   H     H_    0.712030 0.927351 0.052700 0.084634
H15   H     H_    0.788289 0.426554 0.947267 0.093748
H16   H     H_    0.212032 0.427356 0.052700 0.084634
H17   H     H_    0.029748 0.477307 0.072282 0.168285
H18   H     H_    0.077106 0.502153 0.949488 0.162561
H19   H     H_    0.529745 0.977305 0.072282 0.168286
H20   H     H_    0.577099 0.002146 0.949488 0.162565
H21   H     H_    0.013284 0.754615 0.059846 0.163178
H22   H     H_    0.978651 0.725582 0.947293 0.143545
H23   H     H_    0.513285 0.254614 0.059846 0.163177
H24   H     H_    0.478654 0.225586 0.947293 0.143548
H25   H     H_    0.304729 0.747326 0.555207 0.148935
H26   H     H_    0.693908 0.747866 0.444709 0.149448
H27   H     H_    0.804729 0.247327 0.555208 0.148935
H28   H     H_    0.193908 0.247866 0.444709 0.149447
H29   H     H_    0.193019 0.917077 0.442293 0.113775
H30   H     H_    0.807294 0.915392 0.558549 0.125055
H31   H     H_    0.693019 0.417075 0.442293 0.113775
H32   H     H_    0.307294 0.415392 0.558549 0.125055
H33   H     H_    0.225914 0.993272 0.553732 0.105852
H34   H     H_    0.776105 0.990447 0.447206 0.106487
H35   H     H_    0.725914 0.493272 0.553732 0.105853
H36   H     H_    0.276105 0.490446 0.447206 0.106487
H37   H     H_    0.964708 0.081718 0.433925 0.099212
H38   H     H_    0.922884 0.069689 0.553469 0.093508
H39   H     H_    0.464707 0.581718 0.433924 0.099212
H40   H     H_    0.422883 0.569689 0.553468 0.093509
H41   H     H_    0.990622 0.241839 0.554502 0.096821
H42   H     H_    0.052236 0.252454 0.443069 0.091376
H43   H     H_    0.490622 0.741839 0.554503 0.096821
H44   H     H_    0.552235 0.752454 0.443070 0.091376
O1    O     O_R   0.043230 0.549300 0.667990 -0.517693
O2    O     O_R   0.956770 0.549300 0.332010 -0.521848
O3    O     O_R   0.543230 0.049300 0.667990 -0.517693
O4    O     O_R   0.456770 0.049300 0.332010 -0.521848
O5    O     O_R   0.262920 0.788600 0.824420 -0.486339
O6    O     O_R   0.737080 0.788600 0.175580 -0.485606
O7    O     O_R   0.762920 0.288600 0.824420 -0.486339
O8    O     O_R   0.237080 0.288600 0.175580 -0.485605
O9    O     O_R   0.167530 0.905110 0.830340 -0.499565
O10   O     O_R   0.832470 0.905110 0.169660 -0.500637
O11   O     O_R   0.667530 0.405110 0.830340 -0.499566
O12   O     O_R   0.332470 0.405110 0.169660 -0.500637
O13   O     O_R   0.054010 0.748440 0.822860 -0.481609
O14   O     O_R   0.945990 0.748440 0.177140 -0.490256
O15   O     O_R   0.554010 0.248440 0.822860 -0.481609
O16   O     O_R   0.445990 0.248440 0.177140 -0.490255
O17   O     O_3   0.165160 0.665150 0.749190 -0.255356
O18   O     O_3   0.834840 0.665150 0.250810 -0.253465
O19   O     O_3   0.665160 0.165150 0.749190 -0.255356
O20   O     O_3   0.334840 0.165150 0.250810 -0.253465
O21   O     O_R   0.178620 0.457600 0.674100 -0.492130
O22   O     O_R   0.821380 0.457600 0.325900 -0.492924
O23   O     O_R   0.678620 0.957600 0.674100 -0.492130
O24   O     O_R   0.321380 0.957600 0.325900 -0.492924
O25   O     O_R   0.284680 0.542100 0.669460 -0.541174
O26   O     O_R   0.715320 0.542100 0.330540 -0.541141
O27   O     O_R   0.784680 0.042100 0.669460 -0.541174
O28   O     O_R   0.215320 0.042100 0.330540 -0.541141
O29   O     O_R   0.262860 0.790390 0.676650 -0.511941
O30   O     O_R   0.737140 0.790390 0.323350 -0.514014
O31   O     O_R   0.762860 0.290390 0.676650 -0.511941
O32   O     O_R   0.237140 0.290390 0.323350 -0.514014
O33   O     O_R   0.167460 0.907030 0.670940 -0.512611
O34   O     O_R   0.832540 0.907030 0.329060 -0.513361
O35   O     O_R   0.667460 0.407030 0.670940 -0.512611
O36   O     O_R   0.332540 0.407030 0.329060 -0.513360
O37   O     O_R   0.053950 0.750220 0.675100 -0.506327
O38   O     O_R   0.946050 0.750220 0.324900 -0.499430
O39   O     O_R   0.553950 0.250220 0.675100 -0.506327
O40   O     O_R   0.446050 0.250220 0.324900 -0.499430
O41   O     O_R   0.043300 0.547370 0.827390 -0.518586
O42   O     O_R   0.956700 0.547370 0.172610 -0.516294
O43   O     O_R   0.543300 0.047370 0.827390 -0.518587
O44   O     O_R   0.456700 0.047370 0.172610 -0.516295
O45   O     O_R   0.178690 0.455820 0.821860 -0.514819
O46   O     O_R   0.821310 0.455820 0.178140 -0.505596
O47   O     O_R   0.678690 0.955820 0.821860 -0.514819
O48   O     O_R   0.321310 0.955820 0.178140 -0.505596
O49   O     O_R   0.284750 0.540170 0.828860 -0.451186
O50   O     O_R   0.715250 0.540170 0.171140 -0.452423
O51   O     O_R   0.784750 0.040170 0.828860 -0.451186
O52   O     O_R   0.215250 0.040170 0.171140 -0.452423
C93   C     C_3   0.039687 0.934296 0.358758 -0.242041
C94   C     C_3   0.091062 0.846301 0.324430 -0.411113
H45   H     H_    0.119945 0.794785 0.365656 0.129651
H46   H     H_    0.064238 0.787351 0.285568 0.164012
H47   H     H_    0.128808 0.897008 0.290790 0.183999
H48   H     H_    0.070580 0.017601 0.370624 0.128654
H49   H     H_    0.000427 0.962010 0.318245 0.168109
C95   C     C_3   0.940656 0.906194 0.653293 -0.241217
C96   C     C_3   0.892028 0.813149 0.687704 -0.408856
H50   H     H_    0.852997 0.858927 0.722507 0.180684
H51   H     H_    0.863729 0.760213 0.646666 0.132996
H52   H     H_    0.922303 0.754500 0.724193 0.156695
H53   H     H_    0.988071 0.920168 0.685654 0.182320
H54   H     H_    0.914494 0.995399 0.660607 0.145323
C97   C     C_3   0.539687 0.434296 0.358758 -0.242042
C98   C     C_3   0.591062 0.346300 0.324430 -0.411112
H55   H     H_    0.619945 0.294784 0.365656 0.129650
H56   H     H_    0.564238 0.287350 0.285568 0.164011
H57   H     H_    0.628808 0.397007 0.290790 0.183999
H58   H     H_    0.570580 0.517601 0.370624 0.128654
H59   H     H_    0.500427 0.462009 0.318245 0.168109
C99   C     C_3   0.440656 0.406195 0.653292 -0.241217
C100  C     C_3   0.392029 0.313150 0.687705 -0.408856
H60   H     H_    0.352997 0.358929 0.722507 0.180685
H61   H     H_    0.363729 0.260214 0.646667 0.132996
H62   H     H_    0.422303 0.254501 0.724194 0.156696
H63   H     H_    0.488072 0.420169 0.685654 0.182320
H64   H     H_    0.414494 0.495400 0.660607 0.145323
C101  C     C_3   0.083528 0.436447 0.359987 -0.242530
C102  C     C_3   0.129512 0.543830 0.339701 -0.424632
H65   H     H_    0.099185 0.606314 0.306410 0.140331
H66   H     H_    0.173049 0.513621 0.304744 0.149756
H67   H     H_    0.151075 0.589350 0.387828 0.149293
H68   H     H_    0.118344 0.356533 0.362770 0.145670
H69   H     H_    0.048338 0.412708 0.315186 0.168842
C103  C     C_3   0.931090 0.406861 0.632586 -0.234489
C104  C     C_3   0.884094 0.507298 0.660818 -0.414824
H70   H     H_    0.859086 0.557498 0.616239 0.144977
H71   H     H_    0.843426 0.468500 0.696307 0.155284
H72   H     H_    0.913970 0.567071 0.696106 0.150676
H73   H     H_    0.896561 0.328526 0.621093 0.131735
H74   H     H_    0.965735 0.374072 0.676057 0.162659
C105  C     C_3   0.583527 0.936446 0.359987 -0.242530
C106  C     C_3   0.629511 0.043828 0.339701 -0.424632
H75   H     H_    0.599185 0.106313 0.306410 0.140331
H76   H     H_    0.673049 0.013620 0.304743 0.149756
H77   H     H_    0.651075 0.089349 0.387828 0.149292
H78   H     H_    0.618344 0.856532 0.362770 0.145670
H79   H     H_    0.548338 0.912706 0.315187 0.168842
C107  C     C_3   0.431090 0.906862 0.632586 -0.234489
C108  C     C_3   0.384094 0.007299 0.660818 -0.414824
H80   H     H_    0.359086 0.057500 0.616239 0.144977
H81   H     H_    0.343426 0.968501 0.696307 0.155284
H82   H     H_    0.413970 0.067072 0.696107 0.150676
H83   H     H_    0.396560 0.828527 0.621094 0.131735
H84   H     H_    0.465735 0.874072 0.676058 0.162658
Br1   Br    Br    0.099556 0.957918 0.091046 -0.514930
Br2   Br    Br    0.901006 0.940441 0.904556 -0.519848
Br3   Br    Br    0.599556 0.457919 0.091046 -0.514931
Br4   Br    Br    0.401006 0.440441 0.904555 -0.519849

loop_
_geom_bond_atom_site_label_1
_geom_bond_atom_site_label_2
_ccdc_geom_bond_type
C47   C83   S    
C7    C83   D    
Cr6   O6    S    
Cr11  O19   S    
C95   H53   S    
C6    C82   D    
C14   C95   S    
C63   H19   S    
Cr5   O49   S    
C93   C94   S    
C20   H40   S    
Cr1   O1    S    
C35   C36   A    
C78   O42   A    
C98   H57   S    
C48   O32   A    
C6    H26   S    
C57   C77   S    
Cr11  O11   S    
Cr2   O18   S    
C83   H35   S    
C100  H62   S    
C45   O33   A    
C57   C62   D    
C103  C104  S    
C81   H33   S    
C12   C23   A    
Cr1   O21   S    
C59   C64   D    
C50   C54   S    
C94   H46   S    
C60   C63   D    
C105  H79   S    
C32   C36   A    
C30   C101  S    
C17   H37   S    
C98   H56   S    
C66   O2    A    
C87   C91   D    
Cr6   O26   S    
C39   H15   S    
C9    C22   A    
C108  H81   S    
Cr12  O20   S    
C53   H5    S    
C105  C106  S    
C52   Br4   S    
C104  H71   S    
C29   C33   A    
C11   C24   A    
C2    O26   A    
C96   H52   S    
C106  H75   S    
C74   O6    A    
C102  H67   S    
C61   H17   S    
Cr7   O31   S    
C103  H74   S    
C101  H68   S    
C46   O30   A    
C9    C66   S    
C80   O16   A    
C47   O31   A    
C43   H11   S    
C43   C51   D    
C46   C82   S    
C49   Br1   S    
C86   H30   S    
C39   C55   D    
C88   C92   D    
C67   O39   A    
C95   C96   S    
C40   C56   D    
C94   H47   S    
Cr7   O7    S    
C8    H28   S    
C95   H54   S    
C93   H48   S    
Cr4   O20   S    
C8    C92   S    
C39   C75   S    
Cr6   O30   S    
C7    H27   S    
Cr3   O47   S    
Cr10  O14   S    
C72   O48   A    
C84   H36   S    
C99   H64   S    
C37   C53   D    
C70   O46   A    
C44   C52   D    
C58   C61   D    
C5    H25   S    
Cr1   O17   S    
C70   O50   A    
Cr2   O46   S    
C21   C22   A    
C3    C86   S    
C69   O49   A    
C80   O44   A    
Cr10  O10   S    
C61   C62   S    
Cr12  O12   S    
Cr9   O37   S    
C97   H59   S    
C41   C49   D    
C92   H4    S    
C9    C26   A    
C33   C34   A    
Cr7   O19   S    
C10   C21   A    
C25   C29   A    
Cr12  O40   S    
C12   C67   S    
C65   O37   A    
Cr5   O25   S    
C94   H45   S    
C30   C34   A    
C12   C27   A    
C27   C31   A    
Cr10  O34   S    
C91   H3    S    
C28   C32   A    
Cr11  O39   S    
C98   H55   S    
C88   H32   S    
C100  H60   S    
C108  H80   S    
C86   C90   D    
C59   C79   S    
C57   H22   S    
C48   O36   A    
Cr6   O50   S    
C108  H82   S    
C35   H43   S    
C4    C85   S    
C50   Br2   S    
C51   C55   S    
C25   C26   A    
C64   H20   S    
C67   O3    A    
C76   O8    A    
C48   C84   S    
C31   C107  S    
Cr5   O29   S    
C54   H6    S    
C103  H73   S    
C101  H69   S    
C15   C19   A    
C97   C98   S    
Cr2   O42   S    
C29   C103  S    
Cr8   O28   S    
C101  C102  S    
C68   O4    A    
C87   H31   S    
C73   O5    A    
C72   O52   A    
C5    C81   D    
C71   O47   A    
C96   H50   S    
C38   C54   D    
C18   H38   S    
C16   C20   A    
C1    O25   A    
C59   H24   S    
C69   O45   A    
C17   C18   A    
C93   H49   S    
Cr7   O27   S    
C2    C87   S    
Cr10  O38   S    
C74   O10   A    
C102  H66   S    
C47   O35   A    
C90   H2    S    
Cr6   O18   S    
C33   H41   S    
C42   C50   D    
C41   C72   S    
Cr8   O52   S    
C10   C25   A    
C15   C97   S    
C15   C24   A    
Cr12  O36   S    
C2    O22   A    
C78   O14   A    
C16   C23   A    
Cr5   O5    S    
C66   O38   A    
C32   C105  S    
Cr4   O24   S    
C40   H16   S    
C68   O40   A    
Cr11  O35   S    
C42   H10   S    
C104  H72   S    
Cr3   O3    S    
Cr8   O8    S    
C89   H1    S    
Cr8   O32   S    
C7    C91   S    
C62   H18   S    
Cr9   O33   S    
C11   C68   S    
C14   C21   A    
C3    O27   A    
C38   C74   S    
C10   C65   S    
C75   O11   A    
C107  H83   S    
C37   C73   S    
C60   C80   S    
C19   H39   S    
Cr3   O43   S    
C4    O24   A    
C107  H84   S    
C55   H7    S    
C8    C84   D    
C99   H63   S    
C14   C18   A    
C60   H23   S    
C45   C81   S    
C79   O15   A    
Cr3   O19   S    
C16   C99   S    
Cr12  O16   S    
C51   Br3   S    
C100  H61   S    
C71   O51   A    
Cr4   O44   S    
C73   O9    A    
Cr1   O41   S    
C43   C70   S    
Cr11  O15   S    
C106  H77   S    
C13   C17   A    
Cr8   O20   S    
C77   O41   A    
C46   O34   A    
C19   C20   A    
Cr9   O13   S    
C107  C108  S    
C13   C93   S    
C82   H34   S    
C6    C90   S    
C97   H58   S    
Cr9   O17   S    
C45   O29   A    
C34   H42   S    
C3    O23   A    
C76   O12   A    
C36   H44   S    
C1    C88   S    
Cr5   O17   S    
C41   H9    S    
C42   C71   S    
C96   H51   S    
C77   O13   A    
C106  H76   S    
C13   C22   A    
C31   C35   A    
C65   O1    A    
C102  H65   S    
C5    C89   S    
C49   C53   S    
C58   C78   S    
C23   C24   A    
Cr9   O9    S    
C63   C64   S    
C38   H14   S    
C75   O7    A    
Cr2   O2    S    
Cr4   O48   S    
C11   C28   A    
C37   H13   S    
C44   H12   S    
C58   H21   S    
Cr10  O18   S    
C105  H78   S    
C4    O28   A    
C40   C76   S    
Cr7   O51   S    
C27   C28   A    
C44   C69   S    
C1    O21   A    
C79   O43   A    
Cr1   O45   S    
C104  H70   S    
Cr3   O23   S    
C99   C100  S    
C56   H8    S    
Cr2   O22   S    
C85   C89   D    
C52   C56   S    
C85   H29   S    
C26   C30   A    
Cr4   O4    S    
