data_mof_unit_1066.cif
_audit_creation_date              2012-12-10T17:52:27-0500
_audit_creation_method            fapswitch 2.2
_symmetry_space_group_name_H-M    P1
_symmetry_Int_Tables_number       1
_space_group_crystal_system       triclinic
_cell_length_a                    19.095213
_cell_length_b                    10.725651
_cell_length_c                    9.898889
_cell_angle_alpha                 92.133685
_cell_angle_beta                  89.263614
_cell_angle_gamma                 92.313575
_cell_volume                      2024.18965822

loop_
_atom_site_label
_atom_site_type_symbol
_atom_type_description
_atom_site_fract_x
_atom_site_fract_y
_atom_site_fract_z
_atom_type_partial_charge
C1    C     C_R   0.505389 0.260588 0.496878 0.863233
C2    C     C_R   0.853513 0.451923 0.507935 0.013472
C3    C     C_R   0.603718 0.145176 0.675247 -0.140092
C4    C     C_R   0.365289 0.496366 0.501001 0.865457
C5    C     C_R   0.644072 0.087964 0.769495 -0.106382
C6    C     C_R   0.641394 0.958779 0.776577 -0.131313
C7    C     C_R   0.598234 0.886241 0.689675 -0.184116
C8    C     C_R   0.554732 0.942623 0.596512 0.106412
C9    C     C_R   0.557607 0.073702 0.588929 0.102338
C10   C     C_R   0.517743 0.128755 0.488630 -0.159821
C11   C     C_R   0.485475 0.054179 0.384986 -0.037074
C12   C     C_R   0.289399 0.474875 0.504831 -0.058235
C13   C     C_R   0.477056 0.928794 0.401740 -0.254637
C14   C     C_R   0.510403 0.872827 0.505829 -0.134800
C15   C     C_R   0.400369 0.349936 0.136262 -0.155866
C16   C     C_R   0.503828 0.739826 0.502494 0.888778
C17   C     C_R   0.348912 0.281084 0.064475 -0.114090
C18   C     C_R   0.349981 0.278592 0.924661 -0.164345
C19   C     C_R   0.401595 0.347068 0.856138 -0.174887
C20   C     C_R   0.451112 0.425513 0.925837 0.168782
C21   C     C_R   0.450792 0.426313 0.070455 0.159687
C22   C     C_R   0.547075 0.570783 0.073302 -0.055001
C23   C     C_R   0.929088 0.437087 0.512983 0.317768
C24   C     C_R   0.546979 0.570924 0.930103 -0.103827
C25   C     C_R   0.634300 0.496979 0.498934 0.884590
C26   C     C_R   0.256062 0.449759 0.628596 -0.236669
C27   C     C_R   0.184620 0.418701 0.634913 -0.016441
C28   C     C_R   0.145498 0.419648 0.514650 0.008280
C29   C     C_R   0.179231 0.441513 0.390546 -0.158407
C30   C     C_R   0.250856 0.468382 0.385478 -0.183217
C31   C     C_2   0.153732 0.381705 0.767093 0.907712
C32   C     C_2   0.466730 0.097963 0.250909 0.924436
C33   C     C_R   0.069347 0.417940 0.518246 0.339510
C34   C     C_R   0.820802 0.530893 0.603343 -0.134972
C35   C     C_R   0.749241 0.546241 0.598035 -0.249284
C36   C     C_R   0.709516 0.483440 0.497136 -0.123175
C37   C     C_R   0.741839 0.403267 0.401299 0.372877
C38   C     C_R   0.813679 0.388497 0.407119 -0.193117
Cl1   Cl    Cl    0.694292 0.312977 0.278301 -0.577984
H1    H     H_    0.286151 0.450736 0.720530 0.198182
H2    H     H_    0.311589 0.221066 0.868785 0.166410
H3    H     H_    0.401355 0.334949 0.749005 0.204064
H4    H     H_    0.585355 0.628821 0.877691 0.133115
H5    H     H_    0.149643 0.442921 0.297960 0.160206
H6    H     H_    0.275764 0.485588 0.288652 0.170555
H7    H     H_    0.850338 0.581088 0.682179 0.167888
H8    H     H_    0.724804 0.607441 0.672745 0.159905
H9    H     H_    0.838031 0.326133 0.333619 0.188058
H10   H     H_    0.160416 0.391853 0.970691 0.347243
H11   H     H_    0.501675 0.173226 0.077404 0.340982
H12   H     H_    0.611705 0.244895 0.667287 0.169568
H13   H     H_    0.679037 0.143913 0.834673 0.167297
H14   H     H_    0.674176 0.914324 0.847478 0.146584
H15   H     H_    0.601574 0.786427 0.694457 0.148940
H16   H     H_    0.447378 0.872734 0.326952 0.197520
H17   H     H_    0.585480 0.628637 0.128544 0.148724
H18   H     H_    0.401408 0.335690 0.242098 0.201873
H19   H     H_    0.309898 0.224892 0.117613 0.184454
N1    N     N_R   0.031578 0.359600 0.417877 -0.160357
N2    N     N_R   0.962443 0.368578 0.415723 -0.164204
N3    N     N_R   0.967139 0.495400 0.612956 -0.159468
N4    N     N_R   0.036121 0.486486 0.615163 -0.135825
N5    N     N_R   0.499340 0.498800 0.142780 -0.109632
N6    N     N_R   0.499320 0.498720 0.857170 -0.119932
O1    O     O_R   0.500000 0.316780 0.614690 -0.651212
O2    O     O_R   0.185369 0.424992 0.887588 -0.809537
O3    O     O_2   0.409491 0.068133 0.203104 -0.661824
O4    O     O_R   0.517711 0.160212 0.172878 -0.731722
O5    O     O_R   0.499990 0.316750 0.385360 -0.586085
O6    O     O_R   0.398140 0.500000 0.614700 -0.631959
O7    O     O_R   0.398130 0.499970 0.385370 -0.643461
O8    O     O_R   0.500010 0.683250 0.614640 -0.617426
O9    O     O_R   0.500000 0.683220 0.385310 -0.619597
O10   O     O_R   0.601870 0.500030 0.614630 -0.642832
O11   O     O_R   0.601860 0.500000 0.385300 -0.561765
O12   O     O_2   0.102196 0.310372 0.771093 -0.603944
Zn1   Zn    Zn3+2 0.500000 0.500020 0.653130 0.938931
Zn2   Zn    Zn3+2 0.500000 0.499980 0.346870 0.994701

loop_
_geom_bond_atom_site_label_1
_geom_bond_atom_site_label_2
_ccdc_geom_bond_type
C31   O2    S    
N6    Zn1   S    
C30   H6    S    
C35   C36   A    
C16   O8    A    
C35   H8    S    
C4    O6    A    
C7    C8    A    
C26   C27   A    
C29   C30   A    
C28   C29   A    
C37   C38   A    
C34   C35   A    
C5    C6    A    
C18   C19   A    
C22   N5    A    
C19   C20   A    
C33   N4    A    
O10   Zn1   S    
C1    O1    A    
O9    Zn2   S    
C5    H13   S    
C34   H7    S    
C4    C12   S    
C9    C10   A    
C38   H9    S    
C19   H3    S    
C17   H19   S    
C32   O4    S    
C2    C34   A    
N1    N2    A    
C24   N6    A    
C13   C14   A    
O6    Zn1   S    
C15   H18   S    
O5    Zn2   S    
C23   N2    A    
C25   O10   A    
O1    Zn1   S    
H10   O2    S    
C27   C31   S    
C16   O9    A    
C18   H2    S    
C3    H12   S    
C8    C9    A    
C22   H17   S    
C1    O5    A    
C12   C26   A    
C25   O11   A    
C20   N6    A    
O8    Zn1   S    
C3    C9    A    
C2    C38   A    
C15   C21   A    
C17   C18   A    
C32   O3    D    
C11   C32   S    
C29   H5    S    
C14   C16   S    
C6    H14   S    
C2    C23   S    
C15   C17   A    
C36   C37   A    
C8    C14   A    
C12   C30   A    
C1    C10   S    
C3    C5    A    
C28   C33   S    
C6    C7    A    
C37   Cl1   S    
C11   C13   A    
C26   H1    S    
C31   O12   D    
C22   C24   A    
O7    Zn2   S    
N3    N4    A    
O11   Zn2   S    
C21   N5    A    
C10   C11   A    
C25   C36   S    
C23   N3    A    
C20   C21   A    
C33   N1    A    
C27   C28   A    
C24   H4    S    
C7    H15   S    
H11   O4    S    
C4    O7    A    
C13   H16   S    
N5    Zn2   S    
