data_mof_unit_3420.cif
_audit_creation_date              2012-12-11T14:42:17-0500
_audit_creation_method            fapswitch 2.2
_symmetry_space_group_name_H-M    P1
_symmetry_Int_Tables_number       1
_space_group_crystal_system       triclinic
_cell_length_a                    19.110174
_cell_length_b                    10.986386
_cell_length_c                    18.91737
_cell_angle_alpha                 89.299657
_cell_angle_beta                  90.66213
_cell_angle_gamma                 90.219432
_cell_volume                      3971.14598762

loop_
_atom_site_label
_atom_site_type_symbol
_atom_type_description
_atom_site_fract_x
_atom_site_fract_y
_atom_site_fract_z
_atom_type_partial_charge
C1    C     C_R   0.725468 0.959067 0.854974 0.609532
C2    C     C_R   0.238627 0.432726 0.929313 0.007799
C3    C     C_3   0.909524 0.979455 0.614067 -0.251729
C4    C     C_3   0.635216 0.602585 0.625059 -0.263415
C5    C     C_3   0.419391 0.498148 0.427824 -0.207532
C6    C     C_3   0.148410 0.112114 0.628558 -0.271442
C7    C     C_3   0.918922 0.998041 0.428674 -0.211174
C8    C     C_3   0.609050 0.582479 0.898235 -0.243265
C9    C     C_3   0.405888 0.546220 0.092870 -0.198908
C10   C     C_3   0.104995 0.074874 0.899730 -0.238956
C11   C     C_3   0.911064 0.031532 0.089174 -0.194714
C12   C     C_3   0.608287 0.581870 0.086070 -0.214301
C13   C     C_R   0.246717 0.922623 0.075783 -0.003035
C14   C     C_3   0.407842 0.524826 0.895635 -0.229998
C15   C     C_3   0.107254 0.082186 0.087776 -0.211204
C16   C     C_3   0.908940 0.012542 0.894252 -0.234540
C17   C     C_3   0.455135 0.831837 0.482109 -0.241773
C18   C     C_3   0.379450 0.069420 0.621533 -0.319174
C19   C     C_3   0.955236 0.330395 0.477488 -0.233296
C20   C     C_3   0.884236 0.555574 0.618402 -0.337661
C21   C     C_R   0.738312 0.934739 0.929481 0.001442
C22   C     C_R   0.773938 0.317205 0.047241 0.369449
C23   C     C_R   0.180521 0.430217 0.974413 0.366524
C24   C     C_R   0.268332 0.812545 0.048961 0.384799
C25   C     C_R   0.680548 0.938329 0.974964 0.383370
C26   C     C_R   0.770128 0.297718 0.975623 0.370160
C27   C     C_R   0.189638 0.426281 0.046552 0.395387
C28   C     C_R   0.266125 0.793913 0.977011 0.377763
C29   C     C_R   0.272038 0.958136 0.146116 0.601539
C30   C     C_R   0.690061 0.930537 0.047029 0.387537
C31   C     C_R   0.742141 0.386629 0.929324 -0.000952
C32   C     C_R   0.256449 0.416975 0.075596 0.018445
C33   C     C_R   0.240134 0.883960 0.930361 0.001598
C34   C     C_R   0.756903 0.915185 0.075330 0.006684
C35   C     C_R   0.552305 0.253271 0.523013 0.358616
C36   C     C_R   0.544349 0.244750 0.451234 0.372020
C37   C     C_R   0.052341 0.756238 0.522574 0.347569
C38   C     C_R   0.044923 0.747467 0.450637 0.366838
C39   C     C_R   0.502977 0.152599 0.423868 -0.006950
C40   C     C_R   0.225632 0.458461 0.854851 0.598896
C41   C     C_R   0.516876 0.172716 0.568427 0.018024
C42   C     C_R   0.005158 0.653319 0.422845 -0.008223
C43   C     C_R   0.018959 0.672254 0.567527 0.011689
C44   C     C_R   0.478514 0.055536 0.468389 0.146729
C45   C     C_R   0.477266 0.076196 0.541668 0.125430
C46   C     C_R   0.982981 0.554045 0.466700 0.153162
C47   C     C_R   0.982351 0.572523 0.540176 0.139196
C48   C     C_R   0.768949 0.296756 0.525836 0.362299
C49   C     C_R   0.190444 0.426100 0.453634 0.372844
C50   C     C_R   0.267535 0.793851 0.525218 0.354905
C51   C     C_R   0.772714 0.459181 0.145663 0.608151
C52   C     C_R   0.690593 0.929835 0.453203 0.373165
C53   C     C_R   0.773799 0.314632 0.454053 0.375480
C54   C     C_R   0.181511 0.441108 0.525195 0.353146
C55   C     C_R   0.273327 0.812738 0.453465 0.378449
C56   C     C_R   0.681642 0.945040 0.524844 0.365269
C57   C     C_R   0.531092 0.176900 0.849885 0.585498
C58   C     C_R   0.446207 0.181696 0.141976 0.595539
C59   C     C_R   0.063276 0.681300 0.856527 0.616357
C60   C     C_R   0.969416 0.678429 0.149584 0.603866
C61   C     C_R   0.746551 0.419285 0.423300 -0.009251
C62   C     C_R   0.712702 0.509494 0.029895 0.064610
C63   C     C_R   0.238581 0.432233 0.572672 0.008656
C64   C     C_R   0.246650 0.918266 0.422906 -0.003624
C65   C     C_R   0.738356 0.932509 0.572550 0.019868
C66   C     C_R   0.704327 0.499550 0.464146 0.153081
C67   C     C_R   0.306161 0.412388 0.547838 0.100115
C68   C     C_R   0.205625 0.999281 0.464202 0.128757
C69   C     C_R   0.805674 0.910080 0.547853 0.100654
C70   C     C_R   0.710166 0.492798 0.539159 0.145839
C71   C     C_R   0.315956 0.403209 0.474430 0.106964
C72   C     C_R   0.212747 0.992668 0.538890 0.142447
C73   C     C_R   0.307027 0.432729 0.957242 0.118553
C74   C     C_R   0.815641 0.901876 0.474473 0.109789
C75   C     C_R   0.742554 0.388539 0.569553 0.003710
C76   C     C_R   0.256777 0.403560 0.427559 0.011324
C77   C     C_R   0.242203 0.886206 0.569069 0.030342
C78   C     C_R   0.756681 0.904295 0.427394 0.014935
C79   C     C_R   0.736792 0.357331 0.854674 0.603093
C80   C     C_R   0.262816 0.364396 0.146853 0.602851
C81   C     C_R   0.236135 0.855604 0.855329 0.595695
C82   C     C_R   0.762907 0.863913 0.146764 0.614036
C83   C     C_R   0.725983 0.958695 0.646393 0.588551
C84   C     C_R   0.210544 0.007310 0.030839 0.068774
C85   C     C_R   0.271335 0.955759 0.352577 0.599288
C86   C     C_R   0.226005 0.458695 0.646420 0.594072
C87   C     C_R   0.771385 0.456157 0.352780 0.598936
C88   C     C_R   0.533993 0.177799 0.642522 0.600805
C89   C     C_R   0.470846 0.173497 0.354879 0.609706
C90   C     C_R   0.035092 0.677878 0.641935 0.608228
C91   C     C_R   0.971490 0.673660 0.354458 0.597433
C92   C     C_R   0.737994 0.358995 0.644808 0.583563
C93   C     C_R   0.262582 0.358930 0.355135 0.623539
C94   C     C_R   0.237796 0.857956 0.644491 0.599468
C95   C     C_R   0.806866 0.928111 0.956778 0.112096
C96   C     C_R   0.762468 0.859357 0.355003 0.623704
C97   C     C_2   0.519150 0.165025 0.923617 0.495155
C98   C     C_2   0.474443 0.176180 0.071456 0.432841
C99   C     C_2   0.050091 0.668298 0.931269 0.473995
C100  C     C_2   0.000824 0.673880 0.080109 0.432941
C101  C     C_2   0.455429 0.086829 0.026108 0.144714
C102  C     C_2   0.465210 0.100514 0.948602 0.135940
C103  C     C_2   0.982811 0.585992 0.033129 0.169913
C104  C     C_2   0.995366 0.601958 0.955965 0.182798
C105  C     C_R   0.711742 0.491916 0.956240 0.058541
C106  C     C_R   0.749570 0.425296 0.074583 -0.010198
C107  C     C_R   0.316232 0.429905 0.031526 0.095540
C108  C     C_R   0.209224 0.989024 0.957207 0.063267
C109  C     C_R   0.816622 0.922713 0.030798 0.094683
C110  C     C_3   0.460845 0.878301 0.065308 -0.226638
C111  C     C_3   0.362903 0.110759 0.871181 -0.353139
C112  C     C_3   0.973602 0.375047 0.071433 -0.231597
C113  C     C_3   0.890837 0.594506 0.880428 -0.341209
C114  C     C_3   0.602374 0.645593 0.463741 -0.240955
C115  C     C_3   0.410338 0.484956 0.612595 -0.251168
C116  C     C_3   0.099769 0.134580 0.467156 -0.250972
Cr1   Cr    Cr6+3 0.769270 0.163730 0.750710 1.056034
Cr2   Cr    Cr6+3 0.385840 0.322500 0.252290 1.050437
Cr3   Cr    Cr6+3 0.114160 0.822500 0.747710 1.009706
Cr4   Cr    Cr6+3 0.885840 0.822500 0.252290 1.051958
Cr5   Cr    Cr6+3 0.230730 0.163730 0.249290 1.060130
Cr6   Cr    Cr6+3 0.269270 0.663730 0.750710 1.044643
Cr7   Cr    Cr6+3 0.730730 0.663730 0.249290 1.067811
Cr8   Cr    Cr6+3 0.612620 0.009790 0.748780 1.078117
Cr9   Cr    Cr6+3 0.387380 0.009790 0.251220 1.070010
Cr10  Cr    Cr6+3 0.112620 0.509790 0.748780 1.067867
Cr11  Cr    Cr6+3 0.887380 0.509790 0.251220 1.068454
Cr12  Cr    Cr6+3 0.614160 0.322500 0.747710 1.022858
F1    F     F_    0.805511 0.229331 0.414317 -0.623527
F2    F     F_    0.113941 0.428444 0.948863 -0.620074
F3    F     F_    0.292856 0.724197 0.092875 -0.634498
F4    F     F_    0.613953 0.947275 0.949776 -0.581708
F5    F     F_    0.793082 0.189875 0.951769 -0.627445
F6    F     F_    0.132555 0.423312 0.088383 -0.618966
F7    F     F_    0.288713 0.686200 0.953004 -0.630372
F8    F     F_    0.633263 0.931142 0.089394 -0.601009
F9    F     F_    0.593515 0.342746 0.548260 -0.641205
F10   F     F_    0.574839 0.328877 0.408290 -0.628242
F11   F     F_    0.090485 0.849576 0.548438 -0.647605
F12   F     F_    0.116014 0.461896 0.548391 -0.633463
F13   F     F_    0.073717 0.833803 0.407974 -0.632531
F14   F     F_    0.792450 0.189572 0.552712 -0.631942
F15   F     F_    0.133728 0.430854 0.409769 -0.613704
F16   F     F_    0.289786 0.686024 0.552124 -0.634286
F17   F     F_    0.634157 0.937338 0.409057 -0.612022
F18   F     F_    0.304973 0.727531 0.413620 -0.622318
F19   F     F_    0.616500 0.969742 0.547863 -0.631956
F20   F     F_    0.511112 0.276441 0.050997 -0.633117
F21   F     F_    0.576768 0.189137 0.964123 -0.541466
F22   F     F_    0.032367 0.779482 0.059610 -0.643095
F23   F     F_    0.104808 0.700606 0.973621 -0.591847
F24   F     F_    0.801635 0.230208 0.090361 -0.633259
H1    H     H_    0.373322 0.965156 0.023357 0.217914
H2    H     H_    0.934614 0.305562 0.087587 0.163012
H3    H     H_    0.010236 0.387604 0.116623 0.226697
H4    H     H_    0.002107 0.341625 0.024693 0.186118
H5    H     H_    0.944441 0.444175 0.921146 0.270935
H6    H     H_    0.856567 0.621746 0.924539 0.118186
H7    H     H_    0.861088 0.531606 0.845673 0.157236
H8    H     H_    0.905916 0.674683 0.847763 0.171585
H9    H     H_    0.633861 0.539021 0.383609 0.305692
H10   H     H_    0.569052 0.693266 0.423824 0.144480
H11   H     H_    0.625934 0.717315 0.496641 0.199657
H12   H     H_    0.429403 0.808075 0.092859 0.161068
H13   H     H_    0.568451 0.582592 0.494354 0.164193
H14   H     H_    0.347946 0.336364 0.640259 0.231221
H15   H     H_    0.414572 0.496558 0.670774 0.125337
H16   H     H_    0.393202 0.572924 0.589154 0.216843
H17   H     H_    0.462914 0.462466 0.592357 0.157432
H18   H     H_    0.135669 0.041663 0.383750 0.310978
H19   H     H_    0.061776 0.173509 0.428385 0.132833
H20   H     H_    0.119151 0.211899 0.498395 0.180795
H21   H     H_    0.071664 0.066309 0.499936 0.192239
H22   H     H_    0.846698 0.829969 0.639452 0.227867
H23   H     H_    0.505420 0.901533 0.100707 0.240156
H24   H     H_    0.913342 0.989065 0.672405 0.127973
H25   H     H_    0.892721 0.068243 0.591433 0.216789
H26   H     H_    0.962206 0.957510 0.593918 0.166786
H27   H     H_    0.740488 0.634277 0.605579 0.218790
H28   H     H_    0.609352 0.692116 0.617606 0.138411
H29   H     H_    0.650313 0.594894 0.681818 0.140063
H30   H     H_    0.596864 0.530407 0.611934 0.219392
H31   H     H_    0.415533 0.332135 0.480580 0.244793
H32   H     H_    0.427605 0.556463 0.474307 0.127062
H33   H     H_    0.388187 0.548258 0.387199 0.220820
H34   H     H_    0.480542 0.841212 0.014915 0.162245
H35   H     H_    0.471293 0.478148 0.405365 0.184415
H36   H     H_    0.222419 0.179352 0.556293 0.232158
H37   H     H_    0.122480 0.201416 0.620093 0.139549
H38   H     H_    0.168299 0.109281 0.683896 0.157007
H39   H     H_    0.108345 0.040109 0.620793 0.212829
H40   H     H_    0.915313 0.830933 0.480402 0.247460
H41   H     H_    0.927122 0.055680 0.475538 0.128366
H42   H     H_    0.887569 0.048684 0.388389 0.219984
H43   H     H_    0.970743 0.978796 0.405882 0.187748
H44   H     H_    0.706560 0.667270 0.912879 0.234065
H45   H     H_    0.405279 0.951563 0.914328 0.266695
H46   H     H_    0.585252 0.657085 0.928811 0.139814
H47   H     H_    0.597139 0.598473 0.841334 0.137917
H48   H     H_    0.585029 0.494175 0.914388 0.195488
H49   H     H_    0.422819 0.403334 0.027806 0.293866
H50   H     H_    0.404972 0.619823 0.052336 0.173947
H51   H     H_    0.459821 0.537945 0.114671 0.117524
H52   H     H_    0.371283 0.569702 0.137171 0.233433
H53   H     H_    0.201199 0.164084 0.913389 0.234881
H54   H     H_    0.080439 0.149811 0.929421 0.141600
H55   H     H_    0.092511 0.088065 0.842726 0.140811
H56   H     H_    0.329726 0.144708 0.914472 0.133951
H57   H     H_    0.082217 0.986362 0.917310 0.190718
H58   H     H_    0.922284 0.876683 0.029422 0.277955
H59   H     H_    0.913820 0.102981 0.047421 0.164801
H60   H     H_    0.963965 0.017661 0.112438 0.129398
H61   H     H_    0.876736 0.063048 0.131976 0.228442
H62   H     H_    0.676711 0.687947 0.027626 0.247753
H63   H     H_    0.572610 0.552413 0.042813 0.143508
H64   H     H_    0.585922 0.663793 0.111004 0.149937
H65   H     H_    0.611440 0.507968 0.126553 0.193228
H66   H     H_    0.394427 0.342950 0.921544 0.227452
H67   H     H_    0.330417 0.054338 0.835202 0.165325
H68   H     H_    0.438528 0.552219 0.942811 0.126564
H69   H     H_    0.376106 0.602552 0.876391 0.241350
H70   H     H_    0.445394 0.502359 0.853423 0.109676
H71   H     H_    0.175368 0.186165 0.027903 0.250844
H72   H     H_    0.071008 0.052929 0.044981 0.142669
H73   H     H_    0.085644 0.164706 0.112706 0.147810
H74   H     H_    0.110486 0.008630 0.128470 0.195510
H75   H     H_    0.891954 0.832684 0.921093 0.230024
H76   H     H_    0.943429 0.032846 0.940013 0.124789
H77   H     H_    0.878629 0.094353 0.878901 0.240378
H78   H     H_    0.383602 0.188252 0.839516 0.146760
H79   H     H_    0.942938 0.989636 0.849154 0.119679
H80   H     H_    0.486920 0.921274 0.393458 0.303133
H81   H     H_    0.450537 0.751677 0.447531 0.132895
H82   H     H_    0.407627 0.832125 0.514723 0.203782
H83   H     H_    0.502945 0.822034 0.515581 0.173337
H84   H     H_    0.463114 0.948685 0.621958 0.277553
H85   H     H_    0.347291 0.005179 0.652688 0.157706
H86   H     H_    0.346235 0.115759 0.581052 0.167792
H87   H     H_    0.400543 0.137465 0.658993 0.130321
H88   H     H_    0.993733 0.420810 0.391342 0.306245
H89   H     H_    0.893327 0.477395 0.025149 0.227909
H90   H     H_    0.948297 0.252178 0.441756 0.139320
H91   H     H_    0.907118 0.335254 0.508906 0.206021
H92   H     H_    0.001664 0.314308 0.512073 0.172005
H93   H     H_    0.971711 0.442408 0.620178 0.285535
H94   H     H_    0.854650 0.488753 0.650268 0.151678
H95   H     H_    0.850093 0.595738 0.576584 0.145427
H96   H     H_    0.902005 0.627977 0.654793 0.136953
N1    N     N_2   0.417879 0.984142 0.051886 -0.541526
N2    N     N_2   0.384620 0.386185 0.448426 -0.473020
N3    N     N_2   0.206622 0.099674 0.580643 -0.550380
N4    N     N_2   0.884373 0.885455 0.448546 -0.471523
N5    N     N_2   0.684240 0.582042 0.908801 -0.515669
N6    N     N_2   0.385055 0.432463 0.061256 -0.481424
N7    N     N_2   0.180231 0.077799 0.909768 -0.513741
N8    N     N_2   0.885651 0.918159 0.060089 -0.472777
N9    N     N_2   0.676960 0.610684 0.058770 -0.466923
N10   N     N_2   0.364738 0.418890 0.910468 -0.524480
N11   N     N_2   0.175683 0.109547 0.059519 -0.467152
N12   N     N_2   0.419750 0.038723 0.900040 -0.563607
N13   N     N_2   0.863649 0.909815 0.909544 -0.522512
N14   N     N_2   0.459012 0.940388 0.438269 -0.441735
N15   N     N_2   0.435138 0.004056 0.587648 -0.525803
N16   N     N_2   0.964282 0.439618 0.435205 -0.441162
N17   N     N_2   0.942656 0.496058 0.585895 -0.519449
N18   N     N_2   0.938286 0.488087 0.054984 -0.535144
N19   N     N_2   0.952720 0.534102 0.907470 -0.519097
N20   N     N_2   0.655823 0.579090 0.427642 -0.440047
N21   N     N_2   0.362251 0.386622 0.596314 -0.532624
N22   N     N_2   0.156213 0.079104 0.429196 -0.445064
N23   N     N_2   0.861386 0.881955 0.596301 -0.535489
N24   N     N_2   0.696975 0.597801 0.581200 -0.533736
O1    O     O_R   0.784320 0.290430 0.830510 -0.502144
O2    O     O_R   0.456080 0.282180 0.333210 -0.469591
O3    O     O_R   0.043920 0.782180 0.666790 -0.494190
O4    O     O_R   0.956080 0.782180 0.333210 -0.470806
O5    O     O_R   0.679040 0.374160 0.674430 -0.475081
O6    O     O_R   0.320960 0.374160 0.325570 -0.492976
O7    O     O_R   0.179040 0.874160 0.674430 -0.476428
O8    O     O_R   0.820960 0.874160 0.325570 -0.492757
O9    O     O_3   0.665350 0.165340 0.749070 -0.267652
O10   O     O_3   0.334650 0.165340 0.250930 -0.315445
O11   O     O_3   0.165350 0.665340 0.749070 -0.293493
O12   O     O_R   0.215680 0.290430 0.169490 -0.457597
O13   O     O_3   0.834650 0.665340 0.250930 -0.300396
O14   O     O_R   0.762640 0.040960 0.825200 -0.468889
O15   O     O_R   0.237360 0.040960 0.174800 -0.495046
O16   O     O_R   0.262640 0.540960 0.825200 -0.472061
O17   O     O_R   0.737360 0.540960 0.174800 -0.493687
O18   O     O_R   0.667400 0.923970 0.829950 -0.486810
O19   O     O_R   0.332600 0.923970 0.170050 -0.471921
O20   O     O_R   0.167400 0.423970 0.829950 -0.487950
O21   O     O_R   0.832600 0.423970 0.170050 -0.463617
O22   O     O_R   0.553960 0.081340 0.821780 -0.458870
O23   O     O_R   0.284320 0.790430 0.830510 -0.504056
O24   O     O_R   0.446040 0.081340 0.178220 -0.495167
O25   O     O_R   0.053960 0.581340 0.821780 -0.469979
O26   O     O_R   0.946040 0.581340 0.178220 -0.508357
O27   O     O_R   0.543180 0.283240 0.826740 -0.556127
O28   O     O_R   0.456820 0.283240 0.173260 -0.461967
O29   O     O_R   0.043180 0.783240 0.826740 -0.576021
O30   O     O_R   0.956820 0.783240 0.173260 -0.484251
O31   O     O_R   0.678360 0.375140 0.822710 -0.484789
O32   O     O_R   0.321640 0.375140 0.177290 -0.508714
O33   O     O_R   0.178360 0.875140 0.822710 -0.503045
O34   O     O_R   0.715680 0.790430 0.169490 -0.458506
O35   O     O_R   0.821640 0.875140 0.177290 -0.495712
O36   O     O_R   0.785050 0.289380 0.670560 -0.488636
O37   O     O_R   0.214950 0.289380 0.329440 -0.455047
O38   O     O_R   0.285050 0.789380 0.670560 -0.490395
O39   O     O_R   0.714950 0.789380 0.329440 -0.457743
O40   O     O_R   0.763320 0.039990 0.676930 -0.465160
O41   O     O_R   0.236680 0.039990 0.323070 -0.520143
O42   O     O_R   0.263320 0.539990 0.676930 -0.461754
O43   O     O_R   0.736680 0.539990 0.323070 -0.518891
O44   O     O_R   0.668130 0.922920 0.670000 -0.498716
O45   O     O_R   0.554640 0.080370 0.673500 -0.478755
O46   O     O_R   0.331870 0.922920 0.330000 -0.450321
O47   O     O_R   0.168130 0.422920 0.670000 -0.498598
O48   O     O_R   0.831870 0.422920 0.330000 -0.449159
O49   O     O_R   0.445360 0.080370 0.326500 -0.507385
O50   O     O_R   0.054640 0.580370 0.673500 -0.475235
O51   O     O_R   0.945360 0.580370 0.326500 -0.510697
O52   O     O_R   0.543920 0.282180 0.666790 -0.502818

loop_
_geom_bond_atom_site_label_1
_geom_bond_atom_site_label_2
_ccdc_geom_bond_type
C82   O35   A    
C4    N24   S    
C64   C85   S    
C105  N5    S    
H27   N24   S    
C80   O32   A    
Cr2   O10   S    
Cr8   O18   S    
C107  N6    S    
Cr3   O7    S    
Cr4   O8    S    
C54   C63   A    
H9    N20   S    
C84   N11   S    
C78   C96   S    
C87   O48   A    
C112  H3    S    
H18   N22   S    
Cr5   O12   S    
Cr6   O11   S    
C90   O50   A    
C18   H85   S    
C19   H91   S    
Cr1   O40   S    
C73   C107  A    
C14   H68   S    
C1    O14   A    
C63   C67   A    
C110  N1    S    
Cr6   O42   S    
C10   N7    S    
C96   O8    A    
Cr1   O1    S    
C95   C109  A    
Cr2   O6    S    
C110  H12   S    
Cr3   O11   S    
C100  F22   S    
H44   N5    S    
C40   O16   A    
Cr12  O52   S    
C23   F2    S    
C113  N19   S    
Cr9   O46   S    
C114  N20   S    
C32   C80   S    
Cr11  O48   S    
C68   C72   A    
C57   C97   S    
Cr10  O11   S    
C11   N8    S    
C69   C74   A    
C83   O40   A    
C30   F8    S    
C108  N7    S    
C12   H64   S    
C50   C77   A    
C111  N12   S    
C16   H76   S    
C87   O43   A    
C27   F6    S    
C5    N2    S    
H93   N17   S    
C60   C100  S    
C58   O28   A    
C62   C106  A    
C60   O30   A    
Cr10  O50   S    
Cr2   O28   S    
C35   F9    S    
Cr11  O26   S    
H71   N11   S    
C24   F3    S    
C66   C70   A    
C99   F23   S    
C102  N12   S    
C45   N15   S    
C9    H50   S    
C96   O39   A    
C22   C26   A    
C2    C40   S    
C3    H24   S    
C95   N13   S    
H84   N15   S    
C41   C45   A    
C43   C47   A    
C39   C89   S    
C28   F7    S    
Cr11  O13   S    
C8    H46   S    
C58   C98   S    
C81   O33   A    
C17   H82   S    
C13   C84   A    
H80   N14   S    
C116  H21   S    
C15   H73   S    
C64   C68   A    
C91   O4    A    
C51   O17   A    
Cr10  O47   S    
C17   N14   S    
H49   N6    S    
C16   H77   S    
C3    N23   S    
C15   H72   S    
C61   C87   S    
C19   N16   S    
C53   C61   A    
C6    H39   S    
Cr11  O51   S    
C4    H29   S    
C5    H32   S    
Cr11  O21   S    
C47   N17   S    
C112  H2    S    
C31   C105  A    
C33   C108  A    
C111  H67   S    
H88   N16   S    
Cr8   O22   S    
C50   F16   S    
Cr4   O4    S    
C48   C53   A    
C30   C34   A    
Cr2   O32   S    
Cr12  O31   S    
C21   C95   A    
H40   N4    S    
C9    H52   S    
C11   H60   S    
Cr1   O36   S    
C113  H7    S    
C7    H42   S    
Cr9   O19   S    
C2    C73   A    
Cr10  O20   S    
C16   N13   S    
Cr7   O43   S    
H14   N21   S    
C8    H48   S    
C53   F1    S    
C12   N9    S    
Cr2   O2    S    
C114  H13   S    
C21   C25   A    
C110  H34   S    
Cr3   O33   S    
C36   C39   A    
C101  N1    S    
C24   C28   A    
C57   O27   A    
C115  N21   S    
C39   C44   A    
C16   H79   S    
C56   F19   S    
C10   H54   S    
H31   N2    S    
C18   N15   S    
C6    H37   S    
C38   F13   S    
Cr4   O35   S    
C72   N3    S    
C35   C41   A    
Cr5   O37   S    
C112  H4    S    
C2    C23   A    
C97   F21   S    
Cr7   O39   S    
C34   C82   S    
C115  H16   S    
C25   F4    S    
C18   H86   S    
C59   O29   A    
C101  C102  S    
C14   H69   S    
C35   C36   A    
C104  N19   S    
C5    H33   S    
Cr10  O25   S    
C6    N3    S    
Cr7   O34   S    
C13   C29   S    
Cr8   O45   S    
C3    H26   S    
C44   N14   S    
C71   C76   A    
C116  N22   S    
C114  H10   S    
C8    N5    S    
C116  H20   S    
C42   C46   A    
C57   O22   A    
C46   N16   S    
C20   H95   S    
C32   C107  A    
H62   N9    S    
C91   O51   A    
C97   C102  D    
H53   N7    S    
C82   O34   A    
C99   C104  D    
C79   O1    A    
C4    H28   S    
H45   N12   S    
C52   C78   A    
Cr4   O30   S    
C43   C90   S    
H66   N10   S    
C14   N10   S    
C73   N10   S    
C55   F18   S    
C92   O36   A    
C110  H23   S    
C93   O37   A    
C100  C103  D    
C37   C43   A    
H36   N3    S    
C76   C93   S    
C62   N9    S    
H58   N8    S    
C93   O6    A    
C19   H92   S    
C11   H61   S    
C80   O12   A    
C63   C86   S    
C89   O2    A    
C5    H35   S    
C7    H43   S    
C79   O31   A    
C12   H65   S    
Cr9   O24   S    
C66   N20   S    
C44   C45   A    
H75   N13   S    
Cr12  O27   S    
C3    H25   S    
C25   C30   A    
C41   C88   S    
C46   C47   A    
C109  N8    S    
C27   C32   A    
C74   N4    S    
C17   H81   S    
C98   C101  D    
Cr9   O49   S    
C98   F20   S    
C65   C69   A    
C49   F15   S    
C84   C108  A    
C1    O18   A    
C40   O20   A    
C67   C71   A    
Cr1   O9    S    
Cr7   O17   S    
Cr3   O3    S    
C67   N21   S    
C116  H19   S    
C74   C78   A    
C103  C104  S    
H89   N18   S    
C12   H63   S    
C4    H30   S    
C36   F10   S    
C56   C65   A    
C85   O41   A    
C29   O15   A    
C1    C21   S    
C52   F17   S    
C59   C99   S    
C77   C94   S    
C9    N6    S    
C115  H17   S    
C114  H11   S    
C62   C105  A    
Cr8   O9    S    
C37   C38   A    
C38   C42   A    
C65   C83   S    
Cr5   O41   S    
C49   C54   A    
Cr6   O38   S    
C42   C91   S    
Cr5   O15   S    
C103  N18   S    
C92   O5    A    
Cr8   O44   S    
Cr6   O16   S    
Cr7   O13   S    
C19   H90   S    
C11   H59   S    
C94   O7    A    
C59   O25   A    
C61   C66   A    
C54   F12   S    
C90   O3    A    
C23   C27   A    
C113  H6    S    
C7    H41   S    
C9    H51   S    
C29   O19   A    
C71   N2    S    
C20   H94   S    
C85   O46   A    
C26   C31   A    
C48   C75   A    
Cr12  O9    S    
C86   O42   A    
C17   H83   S    
Cr4   O13   S    
H5    N19   S    
C22   F24   S    
C83   O44   A    
C15   H74   S    
C22   C106  A    
H1    N1    S    
C13   C24   A    
C10   H55   S    
C68   N22   S    
C72   C77   A    
C69   N23   S    
C58   O24   A    
C10   H57   S    
C70   N24   S    
C60   O26   A    
C55   C64   A    
C6    H38   S    
C49   C76   A    
C48   F14   S    
Cr3   O29   S    
C75   C92   S    
C88   O45   A    
Cr5   O10   S    
C115  H15   S    
C112  N18   S    
Cr12  O5    S    
C70   C75   A    
C15   N11   S    
C18   H87   S    
C34   C109  A    
C88   O52   A    
C94   O38   A    
C14   H70   S    
C20   N17   S    
C28   C33   A    
C31   C79   S    
H22   N23   S    
C50   C55   A    
C7    N4    S    
C89   O49   A    
C81   O23   A    
C26   F5    S    
C86   O47   A    
C51   C106  S    
C113  H8    S    
C51   O21   A    
C20   H96   S    
Cr9   O10   S    
C37   F11   S    
C111  H78   S    
C8    H47   S    
Cr6   O23   S    
Cr1   O14   S    
C33   C81   S    
C111  H56   S    
C52   C56   A    
