data_mof_unit_3472.cif
_audit_creation_date              2012-12-10T19:42:57-0500
_audit_creation_method            fapswitch 2.2
_symmetry_space_group_name_H-M    P1
_symmetry_Int_Tables_number       1
_space_group_crystal_system       triclinic
_cell_length_a                    10.807338
_cell_length_b                    12.987633
_cell_length_c                    11.690821
_cell_angle_alpha                 100.225543
_cell_angle_beta                  94.52549
_cell_angle_gamma                 90.652761
_cell_volume                      1609.30584479

loop_
_atom_site_label
_atom_site_type_symbol
_atom_type_description
_atom_site_fract_x
_atom_site_fract_y
_atom_site_fract_z
_atom_type_partial_charge
C1    C     C_R   0.499075 0.299090 0.478404 0.816190
C2    C     C_R   0.501261 0.700924 0.521687 0.828493
C3    C     C_R   0.871587 0.492347 0.499532 -0.091699
C4    C     C_R   0.128394 0.502912 0.498731 -0.083023
C5    C     C_R   0.946036 0.450148 0.584119 -0.016669
C6    C     C_R   0.054005 0.542353 0.412352 0.002276
C7    C     C_R   0.498730 0.814289 0.534313 -0.155389
C8    C     C_R   0.502066 0.185764 0.466134 -0.149014
C9    C     C_R   0.539361 0.016690 0.351442 0.388418
C10   C     C_R   0.462602 0.983529 0.649654 0.377985
C11   C     C_R   0.535008 0.124757 0.362612 -0.261642
C12   C     C_R   0.470758 0.875596 0.639596 -0.199612
C13   C     C_R   0.475602 0.138896 0.560333 -0.224130
C14   C     C_R   0.521471 0.860941 0.439027 -0.228950
C15   C     C_R   0.483900 0.030982 0.553133 0.026272
C16   C     C_R   0.514953 0.968970 0.446942 0.025975
C17   C     C_R   0.372128 0.410488 0.019850 0.205502
C18   C     C_R   0.613487 0.602721 0.981618 0.205570
C19   C     C_R   0.387763 0.414919 0.142777 0.571241
C20   C     C_R   0.605662 0.591159 0.857637 0.578007
C21   C     C_R   0.551782 0.541031 0.158371 -0.005014
C22   C     C_R   0.448428 0.458866 0.841678 -0.001441
C23   C     C_R   0.262290 0.502259 0.499733 0.794620
C24   C     C_R   0.737680 0.496043 0.499920 0.786929
C25   C     C_R   0.542177 0.536303 0.035361 -0.128795
C26   C     C_R   0.454657 0.466776 0.964953 -0.116773
C27   C     C_R   0.232862 0.727997 0.265293 -0.087173
C28   C     C_R   0.764008 0.257279 0.719430 -0.098460
C29   C     C_R   0.182509 0.682750 0.351880 -0.114729
C30   C     C_R   0.810103 0.309805 0.636484 -0.085070
C31   C     C_R   0.105993 0.592211 0.321149 0.120408
C32   C     C_R   0.894873 0.394557 0.671543 0.101245
C33   C     C_R   0.078855 0.548978 0.202675 -0.062317
C34   C     C_R   0.935452 0.423327 0.790472 -0.147681
C35   C     C_R   0.129347 0.594553 0.116465 -0.122116
C36   C     C_R   0.888071 0.371364 0.873116 -0.103692
C37   C     C_R   0.206729 0.683692 0.147747 -0.110858
C38   C     C_R   0.802056 0.288600 0.837646 -0.104894
C39   C     C_R   0.926003 0.536250 0.413922 -0.224362
C40   C     C_R   0.074210 0.457753 0.583321 -0.220239
Cu1   Cu    Cu3+1 0.509250 0.507730 0.615930 0.983838
Cu2   Cu    Cu3+1 0.490750 0.492270 0.384070 0.981505
H1    H     H_    0.246143 0.718591 0.080896 0.156378
H2    H     H_    0.765740 0.248097 0.901623 0.151789
H3    H     H_    0.383521 0.404682 0.785747 0.206077
H4    H     H_    0.618905 0.593114 0.214222 0.202261
H5    H     H_    0.292098 0.797440 0.289262 0.151385
H6    H     H_    0.699402 0.191799 0.692167 0.155203
H7    H     H_    0.203660 0.717703 0.442679 0.107802
H8    H     H_    0.780388 0.284094 0.545097 0.106757
H9    H     H_    0.020070 0.479263 0.177307 0.126096
H10   H     H_    0.002360 0.487186 0.819360 0.133427
H11   H     H_    0.108923 0.560509 0.025421 0.150448
H12   H     H_    0.918417 0.395063 0.964593 0.139864
H13   H     H_    0.868509 0.569086 0.349700 0.166421
H14   H     H_    0.132328 0.424372 0.646663 0.181019
H15   H     H_    0.544563 0.812232 0.358828 0.226224
H16   H     H_    0.450076 0.187520 0.639664 0.217532
H17   H     H_    0.453130 0.839490 0.713669 0.207394
H18   H     H_    0.558818 0.161086 0.290455 0.178982
N1    N     N_R   0.523180 0.519350 0.790130 -0.246275
N2    N     N_R   0.476820 0.480650 0.209870 -0.243083
O1    O     O_R   0.506570 0.354460 0.582000 -0.591181
O2    O     O_R   0.493430 0.645540 0.418000 -0.592103
O3    O     O_R   0.490940 0.341410 0.386200 -0.581781
O4    O     O_R   0.509060 0.658590 0.613800 -0.533665
O5    O     O_R   0.327460 0.506540 0.597900 -0.597417
O6    O     O_R   0.672540 0.493460 0.402100 -0.594398
O7    O     O_R   0.311830 0.493480 0.402100 -0.522319
O8    O     O_R   0.688170 0.506520 0.597900 -0.571693
O9    O     O_3   0.666223 0.662678 0.804711 -0.562105
C41   C     C_3   0.797202 0.655460 0.819908 0.084738
H19   H     H_    0.830409 0.608676 0.740579 0.162315
H20   H     H_    0.831246 0.617623 0.894388 0.138463
C42   C     C_3   0.857142 0.764683 0.834311 -0.278900
H21   H     H_    0.829056 0.799661 0.756320 0.220884
H22   H     H_    0.824541 0.815837 0.912053 0.280424
C43   C     C_3   0.998568 0.760274 0.848239 -0.907448
H23   H     H_    0.028813 0.727724 0.927279 0.261096
H24   H     H_    0.039506 0.840430 0.857600 0.275638
H25   H     H_    0.033459 0.710656 0.770498 0.253981
O10   O     O_3   0.301929 0.365142 0.197868 -0.575252
C44   C     C_3   0.307665 0.254706 0.167776 0.097153
H26   H     H_    0.366589 0.225341 0.235589 0.160517
H27   H     H_    0.347568 0.225924 0.083259 0.182530
C45   C     C_3   0.177445 0.206660 0.165181 -0.323362
H28   H     H_    0.139912 0.231839 0.251342 0.218090
H29   H     H_    0.114931 0.234911 0.097886 0.259683
C46   C     C_3   0.179135 0.087279 0.138247 -0.831818
H30   H     H_    0.214340 0.060264 0.051484 0.290265
H31   H     H_    0.083479 0.054804 0.137173 0.260266
H32   H     H_    0.239241 0.057221 0.205947 0.257407
Cl1   Cl    Cl    0.240034 0.345256 0.938014 -0.677829
Cl2   Cl    Cl    0.700669 0.708359 0.069084 -0.603602
Cl3   Cl    Cl    0.576995 0.945290 0.216362 -0.567144
Cl4   Cl    Cl    0.425896 0.055466 0.785008 -0.617869

loop_
_geom_bond_atom_site_label_1
_geom_bond_atom_site_label_2
_ccdc_geom_bond_type
C8    C13   A    
C35   H11   S    
C1    C8    S    
Cu1   Cu2   S    
C23   O7    A    
C2    C7    S    
Cu1   N1    S    
C24   O8    A    
Cu1   O5    S    
C29   H7    S    
C17   C26   A    
C35   C37   A    
C9    C16   A    
C10   C15   A    
C43   H24   S    
C27   C29   A    
C19   N2    A    
C15   C16   A    
C23   O5    A    
C20   N1    A    
C21   C25   A    
C33   C35   A    
C12   H17   S    
C7    C14   A    
C39   H13   S    
C4    C40   A    
C40   H14   S    
Cu2   O3    S    
C1    O3    A    
C31   C33   A    
C20   O9    S    
C10   Cl4   S    
C46   H31   S    
C19   O10   S    
Cu2   N2    S    
C34   C36   A    
C5    C32   S    
C6    C31   S    
C30   H8    S    
C3    C39   A    
Cu2   O6    S    
C3    C24   S    
C18   C25   A    
C41   C42   S    
C1    O1    A    
C2    O2    A    
C7    C12   A    
C45   H29   S    
C41   H20   S    
C4    C23   S    
C45   H28   S    
C13   H16   S    
C3    C5    A    
C25   C26   A    
Cu2   O7    S    
C32   C34   A    
C37   H1    S    
C42   H21   S    
C38   H2    S    
C42   H22   S    
C44   H26   S    
C28   C38   A    
C22   H3    S    
C46   H32   S    
C9    C11   A    
C21   N2    A    
C10   C12   A    
C4    C6    A    
C44   H27   S    
C13   C15   A    
C18   Cl2   S    
C14   C16   A    
C17   Cl1   S    
Cu1   O1    S    
C11   H18   S    
Cu2   O2    S    
C21   H4    S    
C27   H5    S    
C14   H15   S    
C9    Cl3   S    
C28   H6    S    
C43   H23   S    
C41   H19   S    
C2    O4    A    
C45   C46   S    
Cu1   O4    S    
C33   H9    S    
C34   H10   S    
C36   C38   A    
O9    C41   S    
C29   C31   A    
C22   N1    A    
C30   C32   A    
C43   H25   S    
C27   C37   A    
C8    C11   A    
C28   C30   A    
C17   C19   A    
C18   C20   A    
C42   C43   S    
C36   H12   S    
C24   O6    A    
C44   C45   S    
O10   C44   S    
C22   C26   A    
C5    C40   A    
C6    C39   A    
C46   H30   S    
Cu1   O8    S    
