data_mof_unit_121.cif
_audit_creation_date              2012-12-10T16:53:30-0500
_audit_creation_method            fapswitch 2.2
_symmetry_space_group_name_H-M    P1
_symmetry_Int_Tables_number       1
_space_group_crystal_system       triclinic
_cell_length_a                    7.964498
_cell_length_b                    8.579942
_cell_length_c                    13.564041
_cell_angle_alpha                 94.720974
_cell_angle_beta                  77.225078
_cell_angle_gamma                 92.882322
_cell_volume                      900.395742196

loop_
_atom_site_label
_atom_site_type_symbol
_atom_type_description
_atom_site_fract_x
_atom_site_fract_y
_atom_site_fract_z
_atom_type_partial_charge
C1    C     C_R   0.545030 0.792887 0.492509 0.949767
C2    C     C_1   0.572459 0.499539 0.118101 0.002118
C3    C     C_2   0.563434 0.952110 0.469631 -0.002576
C4    C     C_2   0.437713 0.047039 0.521454 -0.050905
C5    C     C_3   0.808158 0.891761 0.321687 -0.760366
C6    C     C_3   0.376483 0.014031 0.701282 -0.796481
C7    C     C_3   0.029916 0.325105 0.408497 -0.167805
C8    C     C_3   0.995290 0.326999 0.301843 -0.326959
C9    C     C_3   0.126370 0.232834 0.222891 -0.972395
C10   C     C_3   0.971222 0.679762 0.586486 -0.167545
C11   C     C_3   0.018073 0.695598 0.690395 -0.346057
C12   C     C_R   0.455862 0.206753 0.503507 0.878822
C13   C     C_3   0.906889 0.814515 0.763057 -0.969280
C14   C     C_R   0.468569 0.503806 0.687268 0.883938
C15   C     C_R   0.531512 0.496425 0.312730 0.861257
C16   C     C_1   0.557144 0.497627 0.207078 -0.202557
C17   C     C_1   0.443685 0.505531 0.793018 -0.195975
C18   C     C_2   0.575528 0.502268 0.013882 -0.157863
C19   C     C_2   0.426032 0.505447 0.986409 -0.162634
C20   C     C_1   0.428900 0.506080 0.882086 0.003416
H1    H     H_    0.303565 0.506176 0.041202 0.161203
H2    H     H_    0.488738 0.938489 0.693131 0.233668
H3    H     H_    0.255621 0.291694 0.213019 0.274755
H4    H     H_    0.134557 0.113232 0.246685 0.266521
H5    H     H_    0.087368 0.224005 0.148880 0.264986
H6    H     H_    0.865718 0.274005 0.301264 0.250808
H7    H     H_    0.001343 0.449282 0.279392 0.236825
H8    H     H_    0.167543 0.324295 0.399151 0.240841
H9    H     H_    0.974969 0.214948 0.442152 0.168379
H10   H     H_    0.920189 0.930370 0.730588 0.269196
H11   H     H_    0.769315 0.774486 0.777942 0.270152
H12   H     H_    0.697984 0.501196 0.959084 0.160060
H13   H     H_    0.948910 0.827332 0.836185 0.265960
H14   H     H_    0.999898 0.580533 0.724190 0.234455
H15   H     H_    0.153927 0.736552 0.681853 0.277458
H16   H     H_    0.017953 0.785743 0.545329 0.158837
H17   H     H_    0.832426 0.674363 0.602084 0.241425
H18   H     H_    0.631579 0.067148 0.335444 0.211151
H19   H     H_    0.884380 0.948100 0.254566 0.229817
H20   H     H_    0.741931 0.785882 0.293811 0.240956
H21   H     H_    0.898811 0.860297 0.367792 0.258667
H22   H     H_    0.196893 0.056177 0.618219 0.240260
H23   H     H_    0.273693 0.974524 0.764613 0.242612
H24   H     H_    0.414716 0.137262 0.720449 0.240127
N1    N     N_2   0.954190 0.457600 0.473930 -0.061703
N2    N     N_2   0.045810 0.542400 0.526070 -0.060263
N3    N     N_2   0.683548 0.999800 0.380139 -0.317714
N4    N     N_2   0.313012 0.002523 0.608694 -0.305804
O1    O     O_R   0.388300 0.738660 0.506400 -0.605839
O2    O     O_R   0.611700 0.261340 0.493600 -0.598225
O3    O     O_R   0.679920 0.711490 0.489690 -0.657486
O4    O     O_R   0.320080 0.288510 0.510310 -0.658644
O5    O     O_R   0.333200 0.515510 0.649910 -0.623062
O6    O     O_R   0.666800 0.484490 0.350090 -0.634331
O7    O     O_R   0.624820 0.488340 0.633200 -0.625113
O8    O     O_R   0.375180 0.511660 0.366800 -0.622646
Zn1   Zn    Zn3+2 0.305280 0.518140 0.511160 0.918139
Zn2   Zn    Zn3+2 0.694720 0.481860 0.488840 0.913653

loop_
_geom_bond_atom_site_label_1
_geom_bond_atom_site_label_2
_ccdc_geom_bond_type
C10   N2    S    
O1    Zn1   S    
C12   O2    A    
C9    H4    S    
C13   H13   S    
C7    H9    S    
O4    Zn1   S    
C2    C18   S    
C2    C16   T    
C4    C12   S    
C19   C20   S    
C15   O8    A    
C14   O5    A    
C11   H15   S    
C14   O7    A    
O2    Zn2   S    
C9    H5    S    
C7    C8    S    
O3    Zn2   S    
H22   N4    S    
N1    N2    D    
C1    O3    A    
C14   C17   S    
H18   N3    S    
C6    N4    S    
C10   H17   S    
C7    N1    S    
C3    N3    S    
C19   H1    S    
C10   H16   S    
C6    H23   S    
C5    H19   S    
N2    Zn1   S    
O6    Zn2   S    
N1    Zn2   S    
O7    Zn2   S    
C18   H12   S    
C10   C11   S    
C5    H21   S    
C3    C4    D    
C5    N3    S    
C15   O6    A    
C13   H10   S    
C11   C13   S    
C17   C20   T    
C8    H6    S    
O8    Zn1   S    
C18   C19   D    
C4    N4    S    
C5    H20   S    
C8    H7    S    
O5    Zn1   S    
C9    H3    S    
C6    H24   S    
C12   O4    A    
C1    O1    A    
C13   H11   S    
C11   H14   S    
C7    H8    S    
C15   C16   S    
C8    C9    S    
C1    C3    S    
C6    H2    S    
