data_mof_unit_1335.cif
_audit_creation_date              2012-12-10T17:32:21-0500
_audit_creation_method            fapswitch 2.2
_symmetry_space_group_name_H-M    P1
_symmetry_Int_Tables_number       1
_space_group_crystal_system       triclinic
_cell_length_a                    15.522048
_cell_length_b                    15.473805
_cell_length_c                    15.461592
_cell_angle_alpha                 92.623732
_cell_angle_beta                  70.875446
_cell_angle_gamma                 111.325593
_cell_volume                      3257.06336737

loop_
_atom_site_label
_atom_site_type_symbol
_atom_type_description
_atom_site_fract_x
_atom_site_fract_y
_atom_site_fract_z
_atom_type_partial_charge
Br1   Br    Br    0.591886 0.920317 0.223369 -0.538714
Br2   Br    Br    0.523469 0.772319 0.748716 -0.398194
Br3   Br    Br    0.481685 0.964792 0.814807 -0.450003
Br4   Br    Br    0.201095 0.518923 0.222858 -0.528779
Br5   Br    Br    0.771160 0.404138 0.579982 -0.535768
Br6   Br    Br    0.134868 0.403778 0.754689 -0.468867
Br7   Br    Br    0.922065 0.434614 0.823371 -0.425585
Br8   Br    Br    0.389784 0.310829 0.138709 -0.570087
C1    C     C_R   0.463533 0.258240 0.462687 0.835796
C2    C     C_R   0.514694 0.523049 0.115690 -0.158556
C3    C     C_R   0.678652 0.620759 0.108328 -0.158005
C4    C     C_R   0.533523 0.740978 0.537868 0.827494
C5    C     C_R   0.435798 0.417236 0.839745 -0.124329
C6    C     C_R   0.461380 0.049816 0.331757 0.137765
C7    C     C_R   0.453541 0.162781 0.445046 -0.042637
C8    C     C_R   0.521214 0.854142 0.659178 0.229655
C9    C     C_R   0.500560 0.933245 0.689942 0.301610
C10   C     C_R   0.488054 0.989555 0.631277 -0.261507
C11   C     C_R   0.501740 0.972729 0.538003 0.050898
C12   C     C_R   0.336145 0.320453 0.984084 -0.126560
C13   C     C_R   0.528537 0.896175 0.505078 -0.015532
C14   C     C_R   0.486876 0.028193 0.477179 0.058942
C15   C     C_R   0.493003 0.002872 0.385565 0.042624
C16   C     C_R   0.756725 0.550453 0.462588 0.866142
C17   C     C_R   0.535186 0.935631 0.351352 0.224361
C18   C     C_R   0.552583 0.884464 0.410692 -0.165482
C19   C     C_R   0.469661 0.110357 0.503942 -0.219034
C20   C     C_R   0.445475 0.131126 0.361504 -0.212683
C21   C     C_R   0.533078 0.833660 0.566430 -0.183026
C22   C     C_R   0.020726 0.603766 0.331481 0.137222
C23   C     C_R   0.402680 0.371688 0.026174 0.248101
C24   C     C_R   0.858125 0.561932 0.446686 -0.084844
C25   C     C_R   0.084415 0.427982 0.663912 0.220772
C26   C     C_R   0.996222 0.443477 0.695072 0.301962
C27   C     C_R   0.962715 0.472247 0.633060 -0.230950
C28   C     C_R   0.242944 0.450327 0.538027 0.847433
C29   C     C_R   0.010914 0.479274 0.537660 0.071971
C30   C     C_R   0.100268 0.464414 0.505447 -0.022535
C31   C     C_R   0.977410 0.510453 0.474438 0.008055
C32   C     C_R   0.043130 0.545422 0.383247 0.019781
C33   C     C_R   0.125471 0.517811 0.349819 0.237250
C34   C     C_R   0.484456 0.451047 0.977993 0.020725
C35   C     C_R   0.150627 0.475701 0.410503 -0.164013
C36   C     C_R   0.879836 0.506317 0.498468 0.163561
C37   C     C_R   0.929277 0.613133 0.366683 -0.283558
C38   C     C_R   0.138743 0.440671 0.568618 -0.176105
C39   C     C_R   0.553286 0.551314 0.258206 0.802454
C40   C     C_R   0.451466 0.446748 0.742304 0.839960
C41   C     C_R   0.709518 0.624165 0.012864 -0.160776
C42   C     C_R   0.580902 0.570847 0.159709 0.000088
C43   C     C_R   0.348007 0.343027 0.892969 0.041633
C44   C     C_3   0.431479 0.011723 0.249621 -0.425555
C45   C     C_R   0.508368 0.463756 0.881774 -0.000163
C46   C     C_3   0.501914 0.071709 0.159991 -0.309111
C47   C     C_3   0.478002 0.026541 0.076660 -0.714989
C48   C     C_3   0.090456 0.660955 0.241816 -0.357831
C49   C     C_3   0.182955 0.734945 0.253346 -0.358102
C50   C     C_3   0.254935 0.785333 0.160668 -0.769974
C51   C     C_3   0.779160 0.634217 0.811616 -0.433242
C52   C     C_3   0.800568 0.641570 0.707230 -0.322351
C53   C     C_3   0.905396 0.707498 0.656899 -0.849609
C54   C     C_3   0.270182 0.284690 0.851670 -0.338043
C55   C     C_3   0.179097 0.207261 0.915587 -0.409770
C56   C     C_R   0.547382 0.513839 0.020745 0.086231
C57   C     C_3   0.106724 0.157393 0.865800 -0.753090
C58   C     C_R   0.644545 0.571331 0.967191 0.113807
C59   C     C_R   0.674879 0.572700 0.870238 0.086307
C60   C     C_R   0.606409 0.517721 0.829741 -0.125583
H1    H     H_    0.731271 0.656462 0.142290 0.136371
H2    H     H_    0.275578 0.260610 0.024259 0.173532
H3    H     H_    0.632373 0.511206 0.757393 0.181567
H4    H     H_    0.427295 0.170847 0.318900 0.162219
H5    H     H_    0.487610 0.958552 0.070215 0.284015
H6    H     H_    0.401285 0.015653 0.083101 0.255546
H7    H     H_    0.528305 0.072564 0.013377 0.278852
H8    H     H_    0.496015 0.141279 0.162041 0.241015
H9    H     H_    0.579006 0.082454 0.151690 0.272406
H10   H     H_    0.423349 0.937915 0.244467 0.234726
H11   H     H_    0.356630 0.010977 0.260857 0.197560
H12   H     H_    0.476877 0.140152 0.566751 0.144283
H13   H     H_    0.277019 0.735077 0.113342 0.298218
H14   H     H_    0.221186 0.821818 0.129299 0.255313
H15   H     H_    0.321607 0.837428 0.170265 0.245289
H16   H     H_    0.162046 0.786549 0.299475 0.215437
H17   H     H_    0.220331 0.703281 0.284970 0.257253
H18   H     H_    0.107468 0.615265 0.187132 0.255791
H19   H     H_    0.054311 0.698744 0.215191 0.187094
H20   H     H_    0.917198 0.778680 0.679924 0.271396
H21   H     H_    0.958785 0.682158 0.669945 0.264940
H22   H     H_    0.918597 0.710690 0.581839 0.255302
H23   H     H_    0.465201 0.044820 0.662158 0.177683
H24   H     H_    0.791731 0.572324 0.680747 0.242119
H25   H     H_    0.748833 0.667710 0.691768 0.264004
H26   H     H_    0.793514 0.706131 0.833441 0.217158
H27   H     H_    0.831538 0.607998 0.825664 0.232872
H28   H     H_    0.079799 0.206753 0.843225 0.298702
H29   H     H_    0.142234 0.126139 0.804999 0.254831
H30   H     H_    0.042853 0.100947 0.913014 0.253946
H31   H     H_    0.201476 0.154713 0.939528 0.232289
H32   H     H_    0.141148 0.237588 0.975834 0.255027
H33   H     H_    0.243626 0.332659 0.826641 0.269424
H34   H     H_    0.588140 0.836321 0.381160 0.180768
H35   H     H_    0.305323 0.250662 0.793130 0.225757
H36   H     H_    0.909779 0.655244 0.327777 0.138967
H37   H     H_    0.901167 0.493810 0.661388 0.200572
H38   H     H_    0.212066 0.453391 0.382416 0.185289
H39   H     H_    0.785508 0.665474 0.976194 0.144246
H40   H     H_    0.438228 0.490687 0.156956 0.195492
O1    O     O_3   0.500000 0.500000 0.500000 -0.497052
O2    O     O_R   0.588830 0.499590 0.285390 -0.634275
O3    O     O_R   0.395900 0.395880 0.699370 -0.650386
O4    O     O_R   0.493280 0.582590 0.315890 -0.622194
O5    O     O_R   0.521980 0.521940 0.699340 -0.622560
O6    O     O_R   0.708210 0.582550 0.530770 -0.653872
O7    O     O_R   0.270260 0.395900 0.573760 -0.601560
O8    O     O_R   0.537060 0.322180 0.411040 -0.613814
O9    O     O_R   0.484470 0.699370 0.484430 -0.639680
O10   O     O_R   0.404710 0.279110 0.530840 -0.646229
O11   O     O_R   0.573760 0.699350 0.573690 -0.600888
O12   O     O_R   0.714470 0.499570 0.411000 -0.617475
O13   O     O_R   0.307050 0.521980 0.484470 -0.635698
Zn1   Zn    Zn3+2 0.574690 0.574670 0.574650 1.009100
Zn2   Zn    Zn3+2 0.583640 0.456100 0.403530 1.022018
Zn3   Zn    Zn3+2 0.447120 0.574690 0.447120 1.003013
Zn4   Zn    Zn3+2 0.394550 0.394550 0.574700 1.015223

loop_
_geom_bond_atom_site_label_1
_geom_bond_atom_site_label_2
_ccdc_geom_bond_type
C13   C18   A    
C55   C57   S    
C16   O6    A    
C25   C38   A    
O8    Zn2   S    
C4    C21   S    
C24   C37   A    
C22   C37   A    
C2    H40   S    
O10   Zn4   S    
C49   C50   S    
C41   H39   S    
C29   C30   A    
C27   H37   S    
C10   H23   S    
C23   C34   A    
O9    Zn3   S    
C57   H30   S    
O4    Zn3   S    
C12   C43   A    
C50   H14   S    
C34   C45   A    
O1    Zn1   S    
Br4   C33   S    
C39   O4    A    
C48   C49   S    
C26   C27   A    
C45   C60   A    
O13   Zn3   S    
C55   H31   S    
C51   C59   S    
C5    C43   A    
C47   H6    S    
C7    C19   A    
C57   H28   S    
C6    C44   S    
O5    Zn1   S    
C44   C46   S    
C8    C9    A    
O3    Zn4   S    
C28   C38   S    
C37   H36   S    
C44   H11   S    
Br2   C8    S    
O12   Zn2   S    
C54   H33   S    
C47   H7    S    
C52   H25   S    
C58   C59   A    
C51   C52   S    
Br1   C17   S    
C1    O10   A    
C33   C35   A    
C12   H2    S    
C20   H4    S    
C43   C54   S    
C51   H27   S    
C44   H10   S    
C53   H21   S    
C9    C10   A    
C39   C42   S    
C5    C45   A    
C52   H24   S    
C2    C56   A    
C16   O12   A    
C41   C58   A    
C59   C60   A    
C11   C14   A    
C19   H12   S    
C50   H13   S    
C31   C32   A    
C10   C11   A    
C48   H19   S    
C55   H32   S    
C8    C21   A    
C22   C48   S    
C52   C53   S    
C35   H38   S    
C56   C58   A    
C6    C15   A    
C16   C24   S    
C54   C55   S    
C3    C41   A    
C53   H20   S    
O2    Zn2   S    
C4    O11   A    
C48   H18   S    
C25   C26   A    
C24   C36   A    
C49   H16   S    
C22   C32   A    
C46   H8    S    
O1    Zn4   S    
C32   C33   A    
C51   H26   S    
Br5   C36   S    
C14   C19   A    
Br7   C26   S    
C2    C42   A    
C34   C56   A    
C53   H22   S    
C54   H35   S    
O11   Zn1   S    
C46   C47   S    
C27   C29   A    
C1    O8    A    
O1    Zn2   S    
C5    C40   S    
C3    H1    S    
O1    Zn3   S    
C31   C36   A    
C39   O2    A    
O7    Zn4   S    
Br6   C25   S    
C46   H9    S    
C28   O13   A    
C17   C18   A    
C57   H29   S    
C30   C35   A    
C29   C31   A    
C3    C42   A    
C50   H15   S    
C18   H34   S    
C7    C20   A    
C13   C21   A    
C60   H3    S    
O6    Zn1   S    
C49   H17   S    
Br3   C9    S    
C15   C17   A    
C1    C7    S    
C30   C38   A    
C4    O9    A    
C47   H5    S    
C40   O3    A    
C14   C15   A    
C6    C20   A    
C28   O7    A    
Br8   C23   S    
C40   O5    A    
C11   C13   A    
C12   C23   A    
