data_mof_unit_3602.cif
_audit_creation_date              2012-12-10T18:11:04-0500
_audit_creation_method            fapswitch 2.2
_symmetry_space_group_name_H-M    P1
_symmetry_Int_Tables_number       1
_space_group_crystal_system       triclinic
_cell_length_a                    10.78954
_cell_length_b                    9.416384
_cell_length_c                    10.613465
_cell_angle_alpha                 90.122933
_cell_angle_beta                  89.909593
_cell_angle_gamma                 90.522955
_cell_volume                      1078.26290591

loop_
_atom_site_label
_atom_site_type_symbol
_atom_type_description
_atom_site_fract_x
_atom_site_fract_y
_atom_site_fract_z
_atom_type_partial_charge
C1    C     C_R   0.259831 0.498847 0.503288 0.798590
C2    C     C_3   0.501760 0.499060 0.122456 0.030292
C3    C     C_3   0.069632 0.559244 0.633714 0.041864
C4    C     C_3   0.068990 0.340246 0.482166 0.042021
C5    C     C_3   0.927309 0.528751 0.638809 -0.030399
C6    C     C_3   0.926981 0.348259 0.457394 -0.012033
C7    C     C_3   0.074374 0.593351 0.399520 -0.508492
C8    C     C_3   0.121877 0.495305 0.507794 0.073252
C9    C     C_3   0.877575 0.499311 0.499804 0.034858
C10   C     C_3   0.932509 0.611187 0.408309 -0.371715
C11   C     C_3   0.615300 0.084623 0.446330 -0.192700
C12   C     C_3   0.613693 0.917351 0.443112 -0.187388
C13   C     C_3   0.490414 0.083772 0.632184 -0.182491
C14   C     C_3   0.493079 0.916465 0.632358 -0.187450
C15   C     C_3   0.395601 0.082291 0.428517 -0.197298
C16   C     C_3   0.393313 0.914982 0.431835 -0.187020
C17   C     C_R   0.500782 0.499752 0.259311 0.781563
C18   C     C_R   0.739879 0.500280 0.497361 0.766193
C19   C     C_R   0.500607 0.500197 0.740780 0.767687
C20   C     C_3   0.396790 0.559406 0.042427 -0.169815
C21   C     C_3   0.508120 0.365008 0.040496 -0.142071
C22   C     C_3   0.403077 0.425450 0.958268 -0.172632
C23   C     C_3   0.501385 0.500666 0.877626 0.028689
C24   C     C_3   0.495233 0.634699 0.959613 -0.141124
C25   C     C_3   0.606489 0.440267 0.957539 -0.179433
C26   C     C_3   0.600288 0.574151 0.041923 -0.170545
Cu1   Cu    Cu3+1 0.499860 0.642410 0.500060 0.890505
Cu2   Cu    Cu3+1 0.499860 0.357590 0.500060 0.882361
H1    H     H_    0.322802 0.363801 0.921330 0.126390
H2    H     H_    0.912080 0.719772 0.441253 0.169015
H3    H     H_    0.888587 0.604203 0.314360 0.163061
H4    H     H_    0.697283 0.119969 0.501631 0.135402
H5    H     H_    0.697190 0.879057 0.492427 0.142694
H6    H     H_    0.627959 0.126339 0.349184 0.132465
H7    H     H_    0.621253 0.879601 0.344018 0.134813
H8    H     H_    0.568246 0.124407 0.691127 0.140738
H9    H     H_    0.573943 0.880572 0.688492 0.142169
H10   H     H_    0.306267 0.121195 0.465493 0.154120
H11   H     H_    0.304749 0.879610 0.475822 0.137441
H12   H     H_    0.401442 0.119004 0.329121 0.136787
H13   H     H_    0.392901 0.872692 0.333937 0.140729
H14   H     H_    0.403290 0.120411 0.677517 0.135408
H15   H     H_    0.408652 0.875132 0.680772 0.138706
H16   H     H_    0.310992 0.607911 0.080308 0.115378
H17   H     H_    0.513478 0.254555 0.076378 0.119710
H18   H     H_    0.489996 0.745152 0.923720 0.118354
H19   H     H_    0.692231 0.391845 0.919428 0.111226
H20   H     H_    0.681001 0.634681 0.079444 0.114679
H21   H     H_    0.085640 0.675677 0.627501 0.178946
H22   H     H_    0.116809 0.299445 0.397488 0.168415
H23   H     H_    0.914239 0.426274 0.689036 0.114893
H24   H     H_    0.881336 0.271581 0.522756 0.125362
H25   H     H_    0.118019 0.700786 0.404724 0.171300
H26   H     H_    0.100972 0.548905 0.306497 0.181802
N1    N     N_3   0.500250 0.143650 0.502780 -0.109387
N2    N     N_3   0.500250 0.856350 0.502780 -0.108991
O1    O     O_R   0.317570 0.620260 0.500070 -0.600257
O2    O     O_R   0.317570 0.379740 0.500070 -0.591651
O3    O     O_R   0.499850 0.620240 0.316900 -0.591680
O4    O     O_R   0.499850 0.379760 0.316900 -0.598166
O5    O     O_R   0.682190 0.620260 0.500030 -0.579704
O6    O     O_R   0.682190 0.379740 0.500030 -0.615150
O7    O     O_R   0.499910 0.620280 0.683200 -0.596929
O8    O     O_R   0.499910 0.379720 0.683200 -0.590014
C27   C     C_3   0.136075 0.515243 0.756046 -0.946732
H27   H     H_    0.237210 0.534534 0.748480 0.234607
H28   H     H_    0.102601 0.581255 0.835683 0.235580
H29   H     H_    0.119214 0.403115 0.781476 0.243310
C28   C     C_3   0.095881 0.227678 0.585499 -0.964499
H30   H     H_    0.086604 0.119740 0.543836 0.218036
H31   H     H_    0.189676 0.237094 0.626442 0.264423
H32   H     H_    0.029303 0.231910 0.664855 0.225879
C29   C     C_3   0.854690 0.632375 0.727096 -0.374185
C30   C     C_3   0.877788 0.791887 0.710456 -0.849164
H33   H     H_    0.971845 0.822630 0.743283 0.235445
H34   H     H_    0.865092 0.826211 0.612403 0.237586
H35   H     H_    0.810401 0.850926 0.769391 0.224597
H36   H     H_    0.753858 0.610562 0.722280 0.207102
H37   H     H_    0.879502 0.607173 0.826183 0.190176
C31   C     C_3   0.884993 0.289868 0.324686 -0.384449
C32   C     C_3   0.956276 0.333448 0.205063 -0.870954
H38   H     H_    0.945660 0.446753 0.181922 0.243280
H39   H     H_    0.055621 0.305866 0.208000 0.233321
H40   H     H_    0.916202 0.273798 0.124182 0.229304
H41   H     H_    0.889284 0.171964 0.329137 0.180615
H42   H     H_    0.786431 0.315071 0.307404 0.213385

loop_
_geom_bond_atom_site_label_1
_geom_bond_atom_site_label_2
_ccdc_geom_bond_type
C7    C10   S    
C14   N2    S    
C22   H1    S    
C1    C8    S    
C29   C30   S    
C4    C8    S    
C6    C9    S    
C32   H38   S    
C3    H21   S    
C7    C8    S    
C30   H34   S    
C24   C26   S    
C15   C16   S    
C28   H31   S    
C13   H14   S    
C31   H42   S    
Cu1   O5    S    
C20   H16   S    
C10   H3    S    
C20   C24   S    
C19   O7    A    
C27   H28   S    
C30   H35   S    
C29   H36   S    
C9    C10   S    
C25   H19   S    
C26   H20   S    
C21   C22   S    
C2    C17   S    
C3    C27   S    
C4    C28   S    
C32   H39   S    
Cu2   N1    S    
C21   H17   S    
Cu2   O4    S    
C30   H33   S    
C2    C20   S    
C13   H8    S    
C4    C6    S    
C3    C8    S    
Cu1   O1    S    
Cu1   N2    S    
C18   O6    A    
C17   O4    A    
C25   C26   S    
C4    H22   S    
C15   N1    S    
C28   H32   S    
C19   C23   S    
C16   N2    S    
C15   H10   S    
C5    C9    S    
C31   H41   S    
C1    O1    A    
C10   H2    S    
C6    C31   S    
C19   O8    A    
C23   C24   S    
C27   H29   S    
C2    C21   S    
C29   H37   S    
C2    C26   S    
C12   H7    S    
C12   N2    S    
Cu1   O7    S    
C17   O3    A    
Cu2   O8    S    
C20   C22   S    
C11   H4    S    
C7    H25   S    
C32   H40   S    
C11   N1    S    
C21   C25   S    
C11   H6    S    
C31   C32   S    
C3    C5    S    
C11   C12   S    
C18   O5    A    
Cu2   O2    S    
C24   H18   S    
Cu1   O3    S    
C1    O2    A    
C14   H9    S    
C23   C25   S    
C5    C29   S    
C28   H30   S    
C15   H12   S    
C16   H11   S    
C9    C18   S    
C27   H27   S    
Cu1   Cu2   S    
C22   C23   S    
C5    H23   S    
C7    H26   S    
C6    H24   S    
C12   H5    S    
C13   C14   S    
C16   H13   S    
C14   H15   S    
C13   N1    S    
Cu2   O6    S    
