data_mof_unit_3780.cif
_audit_creation_date              2012-12-11T14:29:33-0500
_audit_creation_method            fapswitch 2.2
_symmetry_space_group_name_H-M    P1
_symmetry_Int_Tables_number       1
_space_group_crystal_system       triclinic
_cell_length_a                    6.982574
_cell_length_b                    14.838926
_cell_length_c                    16.232231
_cell_angle_alpha                 90.77211
_cell_angle_beta                  90.518733
_cell_angle_gamma                 89.783563
_cell_volume                      1681.65186722

loop_
_atom_site_label
_atom_site_type_symbol
_atom_type_description
_atom_site_fract_x
_atom_site_fract_y
_atom_site_fract_z
_atom_type_partial_charge
O1    O     O_R   0.494400 0.416610 0.413880 -0.544320
O2    O     O_R   0.823920 0.406790 0.585520 -0.543794
O3    O     O_R   0.994250 0.583390 0.586120 -0.536174
C1    C     C_R   0.655250 0.386004 0.614107 0.741603
O4    O     O_R   0.824110 0.405730 0.414490 -0.541528
O5    O     O_R   0.994440 0.582310 0.413870 -0.534238
C2    C     C_R   0.654644 0.383858 0.386370 0.742878
O6    O     O_R   0.494210 0.417690 0.586130 -0.543103
O7    O     O_3   0.660810 0.557940 0.500000 -0.369352
V1    V     V_3+5 0.935650 0.489250 0.500000 1.411587
O8    O     O_R   0.324160 0.593210 0.414480 -0.546184
C3    C     C_R   0.153994 0.612351 0.386376 0.741107
O9    O     O_R   0.323970 0.594270 0.585510 -0.541319
C4    C     C_R   0.155845 0.614598 0.614779 0.692190
V2    V     V_3+5 0.435660 0.510750 0.500000 1.410652
O10   O     O_3   0.160630 0.442060 0.500000 -0.378956
H1    H     H_    0.288672 0.907951 0.501358 0.119513
C5    C     C_R   0.057435 0.567393 0.781036 -0.190637
C6    C     C_R   0.008096 0.541761 0.860090 -0.127884
C7    C     C_R   0.002595 0.605199 0.924326 0.188718
C8    C     C_R   0.043159 0.695725 0.907912 -0.175650
C9    C     C_R   0.084667 0.724553 0.827005 0.042934
C10   C     C_R   0.095425 0.658426 0.762792 0.068612
C11   C     C_R   0.109749 0.817637 0.809264 -0.175954
C12   C     C_R   0.134750 0.843902 0.724896 0.026680
C13   C     C_R   0.173688 0.775526 0.664180 0.051299
C14   C     C_R   0.146191 0.683568 0.682159 -0.158992
C15   C     C_R   0.118794 0.934818 0.696090 0.127865
C16   C     C_R   0.182990 0.956465 0.617048 -0.123792
C17   C     C_R   0.243149 0.890161 0.562606 -0.175823
C18   C     C_R   0.231618 0.800612 0.584381 -0.146535
H2    H     H_    0.063657 0.514833 0.734270 0.111395
H3    H     H_    0.974931 0.471748 0.871181 0.121261
H4    H     H_    0.037378 0.743349 0.958857 0.114975
H5    H     H_    0.178168 0.025474 0.596002 0.122902
H6    H     H_    0.267945 0.751486 0.537273 0.116671
C19   C     C_2   0.036768 0.741488 0.310123 -0.226266
C20   C     C_2   0.139093 0.665100 0.312379 -0.288166
H7    H     H_    0.961152 0.763719 0.365092 0.123420
H8    H     H_    0.203490 0.636227 0.257844 0.141587
C21   C     C_2   0.001416 0.791402 0.232801 0.008803
C22   C     C_2   0.140394 0.817047 0.179951 -0.075679
C23   C     C_2   0.772395 0.226531 0.797225 -0.123326
C24   C     C_2   0.612757 0.181352 0.818085 -0.313779
H9    H     H_    0.902082 0.215978 0.832878 0.134584
H10   H     H_    0.478997 0.194182 0.786314 0.130335
C25   C     C_2   0.787332 0.291359 0.727656 -0.143148
C26   C     C_2   0.638336 0.319860 0.681422 -0.304689
H11   H     H_    0.929102 0.317562 0.715315 0.128717
H12   H     H_    0.494704 0.297153 0.694484 0.128997
C27   C     C_2   0.778567 0.209628 0.213815 -0.135101
C28   C     C_2   0.614467 0.181850 0.177209 -0.312260
H13   H     H_    0.913823 0.181451 0.193025 0.134879
H14   H     H_    0.477623 0.209421 0.195902 0.127951
C29   C     C_2   0.790472 0.278153 0.281780 -0.135987
C30   C     C_2   0.637930 0.315715 0.319414 -0.309314
H15   H     H_    0.933533 0.297623 0.301695 0.134184
H16   H     H_    0.493721 0.297004 0.301355 0.127786
O11   O     O_R   0.770210 0.079270 0.910680 -0.544985
O12   O     O_R   0.440150 0.091160 0.082270 -0.547208
O13   O     O_R   0.269970 0.914530 0.082860 -0.545003
C31   C     C_R   0.609065 0.113179 0.110348 0.735410
O14   O     O_R   0.440480 0.090100 0.911240 -0.551583
O15   O     O_R   0.270310 0.913460 0.910610 -0.530310
C32   C     C_R   0.608795 0.113319 0.884541 0.727878
O16   O     O_R   0.769870 0.080340 0.082930 -0.541335
O17   O     O_3   0.603660 0.938980 0.996790 -0.352876
V3    V     V_3+5 0.328750 0.007610 0.996740 1.396097
O18   O     O_R   0.940600 0.902510 0.911180 -0.545039
C33   C     C_R   0.107527 0.884768 0.879350 0.717159
O19   O     O_R   0.940270 0.903570 0.082200 -0.512303
C34   C     C_R   0.111418 0.882056 0.110564 0.728635
V4    V     V_3+5 0.828770 0.986010 0.996670 1.442997
O20   O     O_3   0.103730 0.054750 0.996710 -0.386465
C35   C     C_2   0.800968 0.805442 0.213368 0.359163
H17   H     H_    0.703796 0.828736 0.260867 -0.002806
O21   O     O_2   0.742292 0.783489 0.145151 -0.537901
C36   C     C_3   0.342822 0.783041 0.190223 -0.312206
C37   C     C_3   0.378372 0.706137 0.127953 -0.653520
H18   H     H_    0.250595 0.662590 0.121625 0.202068
H19   H     H_    0.410544 0.733800 0.066366 0.238975
H20   H     H_    0.499088 0.662935 0.148696 0.230006
H21   H     H_    0.381912 0.763214 0.253493 0.174317
H22   H     H_    0.440435 0.839823 0.180438 0.211459
C38   C     C_3   0.946335 0.576688 0.009717 -0.359902
C39   C     C_3   0.085296 0.506753 0.044623 -0.784348
H23   H     H_    0.068587 0.441172 0.011664 0.225011
H24   H     H_    0.235710 0.529629 0.038606 0.230645
H25   H     H_    0.054612 0.496409 0.110836 0.221120
H26   H     H_    0.941830 0.635713 0.052569 0.203788
H27   H     H_    0.799819 0.547715 0.007286 0.183775
C40   C     C_3   0.013666 0.010035 0.739937 -0.380367
C41   C     C_3   0.154136 0.079725 0.773998 -0.710739
H28   H     H_    0.301878 0.052027 0.775343 0.223602
H29   H     H_    0.153690 0.140370 0.734605 0.189947
H30   H     H_    0.113804 0.099695 0.837417 0.239883
H31   H     H_    0.914949 0.043662 0.695633 0.177932
H32   H     H_    0.915727 0.985465 0.787169 0.186890

loop_
_geom_bond_atom_site_label_1
_geom_bond_atom_site_label_2
_ccdc_geom_bond_type
C29   C30   D    
O14   C32   A    
C41   H28   S    
C21   C22   D    
C6    C7    A    
C1    O6    A    
C38   H27   S    
C40   H32   S    
C25   H11   S    
C38   C39   S    
C12   C15   A    
C13   C14   A    
C19   C20   D    
O15   V3    S    
C15   C16   A    
O5    C3    A    
C17   C18   A    
C39   H24   S    
V3    O20   S    
V2    O10   S    
O12   C31   A    
C5    C6    A    
V4    O20   S    
O8    V2    S    
C36   H21   S    
C28   H14   S    
O18   V4    S    
O17   V4    S    
C10   C14   A    
C4    C14   S    
O7    V1    S    
O11   V4    S    
C26   H12   S    
C13   C18   A    
C41   H29   S    
O9    C4    A    
C3    C20   S    
H1    C17   S    
C24   C32   S    
C2    C30   S    
C24   H10   S    
C40   H31   S    
O4    C2    A    
C9    C10   A    
C31   O16   A    
C11   C33   S    
C5    C10   A    
C11   C12   A    
C6    H3    S    
C37   H19   S    
C39   H23   S    
C8    H4    S    
C12   C13   A    
O16   V4    S    
O17   V3    S    
C27   H13   S    
O2    C1    A    
C35   H17   S    
C16   C17   A    
C21   C35   S    
C23   H9    S    
C25   C26   D    
O8    C3    A    
C7    C38   S    
C22   C34   S    
C15   C40   S    
C35   O21   D    
O3    C4    A    
O1    V2    S    
O13   C34   A    
C22   C36   S    
O6    V2    S    
O15   C33   A    
O9    V2    S    
C23   C24   D    
C9    C11   A    
C5    H2    S    
O2    V1    S    
O19   V4    S    
C1    C26   S    
O14   V3    S    
O1    C2    A    
C39   H25   S    
O5    V1    S    
C37   H20   S    
C38   H26   S    
C41   H30   S    
C16   H5    S    
C29   H15   S    
O7    V2    S    
C27   C28   D    
C19   H7    S    
O3    V1    S    
C28   C31   S    
O11   C32   A    
C20   H8    S    
C36   C37   S    
O13   V3    S    
C40   C41   S    
C30   H16   S    
C27   C29   S    
C19   C21   S    
O18   C33   A    
C37   H18   S    
C36   H22   S    
O4    V1    S    
O19   C34   A    
C7    C8    A    
O12   V3    S    
C18   H6    S    
V1    O10   S    
C8    C9    A    
C23   C25   S    
