data_mof_unit_2851.cif
_audit_creation_date              2013-03-05T16:45:44-0500
_audit_creation_method            fapswitch 2.2
_symmetry_space_group_name_H-M    P1
_symmetry_Int_Tables_number       1
_space_group_crystal_system       triclinic
_cell_length_a                    17.373436
_cell_length_b                    10.749981
_cell_length_c                    9.88443
_cell_angle_alpha                 88.222416
_cell_angle_beta                  89.9043
_cell_angle_gamma                 90.880335
_cell_volume                      1844.94631653

loop_
_atom_site_label
_atom_site_type_symbol
_atom_site_description
_atom_site_fract_x
_atom_site_fract_y
_atom_site_fract_z
_atom_type_partial_charge
O1    O     O_R   0.500010 0.316790 0.614690 -0.568927
O2    O     O_R   0.500000 0.316760 0.385350 -0.553973
C1    C     C_R   0.505327 0.260746 0.501809 1.029594
O3    O     O_R   0.389120 0.500020 0.614710 -0.582955
O4    O     O_R   0.389110 0.499990 0.385370 -0.604981
C2    C     C_R   0.353647 0.499957 0.500033 1.006030
Zn1   Zn    Zn3+2 0.500010 0.500020 0.653130 1.052402
Zn2   Zn    Zn3+2 0.499990 0.499980 0.346870 1.105435
O5    O     O_R   0.500000 0.683240 0.614650 -0.618396
O6    O     O_R   0.499990 0.683210 0.385310 -0.558053
O7    O     O_R   0.610890 0.500010 0.614630 -0.644722
O8    O     O_R   0.610880 0.499980 0.385290 -0.591453
C3    C     C_R   0.504097 0.739855 0.497725 0.955498
C4    C     C_R   0.646971 0.501036 0.499986 0.940230
C5    C     C_R   0.846723 0.574849 0.620048 0.378934
C6    C     C_R   0.768370 0.545618 0.620856 -0.260058
H1    H     H_    0.736984 0.545228 0.715575 0.203224
C7    C     C_R   0.730232 0.518927 0.499790 -0.095206
C8    C     C_R   0.770978 0.520880 0.377281 -0.059202
H2    H     H_    0.742596 0.501056 0.282695 0.194834
C9    C     C_R   0.848894 0.550120 0.375643 -0.149474
H3    H     H_    0.880201 0.549450 0.280690 0.203302
C10   C     C_R   0.886492 0.577205 0.496077 -0.027694
C11   C     C_1   0.967548 0.589913 0.492526 0.117158
C12   C     C_1   0.035910 0.588378 0.491415 0.165659
C13   C     C_R   0.169248 0.665768 0.452354 0.328585
C14   C     C_R   0.247397 0.637965 0.456456 -0.254308
H4    H     H_    0.289742 0.708768 0.426498 0.203867
C15   C     C_R   0.271969 0.519448 0.498413 -0.186144
C16   C     C_R   0.218710 0.425021 0.536369 0.443200
C17   C     C_R   0.140986 0.452875 0.534100 -0.181534
H5    H     H_    0.099053 0.381263 0.563851 0.203490
C18   C     C_R   0.116353 0.571071 0.492362 -0.089156
C19   C     C_R   0.481161 0.059360 0.609032 0.030008
C20   C     C_R   0.515692 0.129336 0.504641 -0.230633
C21   C     C_R   0.551086 0.071540 0.394742 0.253205
C22   C     C_R   0.550479 0.941200 0.390369 0.259696
C23   C     C_R   0.509406 0.872600 0.493215 -0.261735
C24   C     C_R   0.475472 0.932500 0.600372 0.011537
C25   C     C_3   0.491137 0.908785 0.747410 -0.459757
C26   C     C_3   0.503619 0.047497 0.756625 0.534109
H6    H     H_    0.439038 0.871987 0.801356 0.273341
H7    H     H_    0.543474 0.852958 0.767484 0.204658
C27   C     C_R   0.438747 0.542701 0.069101 0.069995
N1    N     N_R   0.499490 0.499140 0.142800 -0.098083
C28   C     C_R   0.564240 0.468607 0.072871 0.001022
H8    H     H_    0.615452 0.441295 0.127436 0.180675
C29   C     C_R   0.564226 0.468762 0.929056 -0.043809
H9    H     H_    0.616001 0.444254 0.876326 0.194109
N2    N     N_R   0.499490 0.499180 0.857150 -0.130249
C30   C     C_R   0.440475 0.550097 0.927397 0.079371
C31   C     C_3   0.356524 0.520025 0.917498 0.166026
C32   C     C_3   0.355462 0.501961 0.072039 0.035960
H10   H     H_    0.344887 0.435663 0.858458 0.200556
H11   H     H_    0.318647 0.567704 0.126427 0.182790
S1    S     S_3+6 0.894040 0.605993 0.774295 0.080787
O9    O     O_2   0.929847 0.734084 0.764237 -0.190559
O10   O     O_2   0.838619 0.599353 0.891385 -0.267888
O11   O     O_3   0.964119 0.502028 0.801401 -0.495806
H12   H     H_    0.938107 0.419660 0.796429 0.365358
S2    S     S_3+6 0.610028 0.866263 0.270554 0.124357
O12   O     O_2   0.560430 0.816146 0.159700 -0.211181
O13   O     O_2   0.670156 0.952317 0.208357 -0.157420
O14   O     O_3   0.656219 0.748324 0.347817 -0.565173
H13   H     H_    0.684960 0.786889 0.422608 0.337147
N3    N     N_R   0.449061 0.102433 0.849543 0.215000
O15   O     O_R   0.441087 0.055497 0.971802 -0.272280
O16   O     O_R   0.406858 0.195748 0.810667 -0.353989
S3    S     S_3+6 0.602364 0.087559 0.792225 0.084995
O17   O     O_2   0.611149 0.225757 0.802854 -0.272308
O18   O     O_2   0.626089 0.026167 0.923922 -0.163823
O19   O     O_3   0.660444 0.040571 0.667885 -0.532343
H14   H     H_    0.661681 0.948713 0.678587 0.346421
S4    S     S_3+6 0.301795 0.652513 0.860948 0.059143
O20   O     O_2   0.303739 0.751880 0.964732 -0.242681
O21   O     O_2   0.334178 0.706006 0.730381 -0.314650
O22   O     O_3   0.210184 0.605807 0.836648 -0.482225
H15   H     H_    0.186058 0.675328 0.785003 0.399245
S5    S     S_3+6 0.336921 0.341938 0.124447 0.135939
O23   O     O_2   0.292751 0.338336 0.255047 -0.212540
O24   O     O_2   0.288836 0.277289 0.021017 -0.178263
O25   O     O_3   0.418976 0.263938 0.147271 -0.432316
H16   H     H_    0.447063 0.275844 0.060597 0.377723
N4    N     N_R   0.145585 0.788741 0.408688 0.238888
O26   O     O_R   0.194469 0.881715 0.409555 -0.270840
O27   O     O_R   0.077207 0.807861 0.359529 -0.312522
S6    S     S_3+6 0.244687 0.270826 0.582938 0.110262
O28   O     O_2   0.190926 0.181505 0.514902 -0.199171
O29   O     O_2   0.325975 0.243095 0.543256 -0.277260
O30   O     O_3   0.234700 0.251629 0.751303 -0.472450
H17   H     H_    0.242193 0.161534 0.769865 0.425986
N5    N     N_R   0.591416 0.145386 0.293171 0.252617
O31   O     O_R   0.568561 0.145387 0.167963 -0.258056
O32   O     O_R   0.648327 0.218048 0.327056 -0.376121

loop_
_geom_bond_atom_site_label_1
_geom_bond_atom_site_label_2
_geom_bond_distance
_ccdc_geom_bond_type
N3    O16   1.300457 A    
S6    O28   1.503737 D    
C14   C15   1.400711 A    
C4    C7    1.456323 S    
C20   C21   1.412632 A    
O22   H15   0.990698 S    
C31   C32   1.533902 S    
Zn1   O7    1.962972 S    
C13   C14   1.395093 A    
C15   C16   1.404883 A    
S4    O21   1.501467 D    
C21   C22   1.403044 A    
C8    C9    1.384930 A    
N4    O27   1.301105 A    
C19   C20   1.387942 A    
C31   S4    1.799712 S    
O4    C2    1.289099 A    
O7    C4    1.293767 A    
C5    C6    1.392310 A    
S1    O9    1.502635 D    
S2    O13   1.502615 D    
C7    C8    1.401074 A    
S3    O18   1.502281 D    
O5    C3    1.290720 A    
Zn2   N1    2.017449 S    
C27   C32   1.505294 S    
C25   H7    1.111882 S    
C8    H2    1.083203 S    
C6    H1    1.082536 S    
S4    O22   1.681430 S    
C10   C11   1.413016 S    
C17   C18   1.397347 A    
C5    C10   1.405098 A    
C21   N5    1.435348 S    
C29   N2    1.369873 A    
N3    O15   1.301392 A    
O11   H12   0.990528 S    
C9    H3    1.084258 S    
S2    O12   1.502967 D    
C19   C26   1.512836 S    
O3    Zn1   1.964237 S    
C31   H10   1.109720 S    
C32   H11   1.110811 S    
C23   C24   1.391383 A    
C28   C29   1.421483 A    
S4    O20   1.503838 D    
C30   C31   1.493090 S    
C11   C12   1.188090 T    
O3    C2    1.291135 A    
C24   C25   1.493937 S    
S5    O24   1.501723 D    
N1    C28   1.368871 A    
C19   C24   1.371149 A    
O1    C1    1.288218 A    
S2    O14   1.675676 S    
C22   C23   1.421747 A    
O4    Zn2   1.962972 S    
C13   C18   1.407921 A    
C17   H5    1.085296 S    
C1    C20   1.426249 S    
Zn2   O8    1.964237 S    
N5    O32   1.301352 A    
N2    C30   1.367992 A    
N4    O26   1.301831 A    
C3    C23   1.427885 S    
C27   C30   1.400699 A    
C6    C7    1.404082 A    
C25   C26   1.509107 S    
O8    C4    1.296738 A    
S6    O29   1.501829 D    
S3    O19   1.683414 S    
C27   N1    1.363898 A    
C26   S3    1.800305 S    
Zn1   O5    1.994386 S    
C28   H8    1.080982 S    
C29   H9    1.079083 S    
C13   N4    1.443869 S    
C32   S5    1.805123 S    
O1    Zn1   2.017571 S    
O2    Zn2   1.994386 S    
Zn1   N2    2.016366 S    
O19   H14   0.990421 S    
O6    C3    1.285091 A    
S5    O25   1.676985 S    
C22   S2    1.789559 S    
C26   N3    1.462420 S    
S1    O11   1.681527 S    
O14   H13   0.990764 S    
C9    C10   1.395279 A    
O2    C1    1.286591 A    
C5    S1    1.771945 S    
O30   H17   0.990741 S    
C16   C17   1.387672 A    
C25   H6    1.111033 S    
N5    O31   1.300377 A    
S1    O10   1.503580 D    
S3    O17   1.498066 D    
S5    O23   1.499832 D    
C2    C15   1.437635 S    
Zn2   O6    2.017571 S    
O25   H16   0.989121 S    
S6    O30   1.678952 S    
C14   H4    1.084570 S    
C16   S6    1.771872 S    
C12   C18   1.412737 S    
