data_mof_unit_782.cif
_audit_creation_date              2013-03-05T15:55:11-0500
_audit_creation_method            fapswitch 2.2
_symmetry_space_group_name_H-M    P1
_symmetry_Int_Tables_number       1
_space_group_crystal_system       triclinic
_cell_length_a                    12.352467
_cell_length_b                    13.24985
_cell_length_c                    14.324437
_cell_angle_alpha                 79.069091
_cell_angle_beta                  100.539839
_cell_angle_gamma                 116.422839
_cell_volume                      2048.46350169

loop_
_atom_site_label
_atom_site_type_symbol
_atom_site_description
_atom_site_fract_x
_atom_site_fract_y
_atom_site_fract_z
_atom_type_partial_charge
O1    O     O_R   0.972510 0.318130 0.525390 -0.553787
O2    O     O_R   0.806530 0.359650 0.491290 -0.602771
C1    C     C_R   0.854414 0.287143 0.505399 0.789510
O3    O     O_R   0.083010 0.479240 0.641000 -0.530188
O4    O     O_R   0.917030 0.520750 0.606900 -0.534016
C2    C     C_R   0.999764 0.499832 0.668595 0.833437
Cu1   Cu    Cu3+1 0.098280 0.475420 0.520190 1.092861
Cu2   Cu    Cu3+1 0.901720 0.524580 0.479810 1.037877
O5    O     O_R   0.193470 0.640350 0.508710 -0.497474
O6    O     O_R   0.027490 0.681870 0.474610 -0.536260
O7    O     O_R   0.082970 0.479250 0.393100 -0.528722
O8    O     O_R   0.916990 0.520760 0.359000 -0.548169
C3    C     C_R   0.145619 0.713238 0.487415 0.866932
C4    C     C_R   0.000185 0.500058 0.331402 0.815298
C5    C     C_1   0.999676 0.500000 0.770957 -0.038388
C6    C     C_1   0.999848 0.500104 0.856456 0.118653
C7    C     C_1   0.000036 0.500142 0.957214 0.099627
C8    C     C_1   0.000221 0.500133 0.042748 0.079346
C9    C     C_1   0.000425 0.500095 0.143531 0.063064
C10   C     C_1   0.000463 0.500055 0.229042 -0.087410
C11   C     C_R   0.270409 0.012206 0.364048 -0.094087
H1    H     H_    0.094716 0.873277 0.366506 0.225987
H2    H     H_    0.234395 0.062337 0.310842 0.217612
C12   C     C_R   0.229191 0.833632 0.465181 -0.117954
C13   C     C_R   0.815495 0.084510 0.542106 -0.199314
C14   C     C_R   0.741522 0.969666 0.541068 -0.149544
C15   C     C_R   0.618949 0.932561 0.505415 0.400799
C16   C     C_R   0.567017 0.011716 0.478223 -0.002556
C17   C     C_R   0.646990 0.127909 0.460982 -0.012178
C18   C     C_R   0.439104 0.978005 0.458478 -0.009185
C19   C     C_R   0.395483 0.052237 0.396024 -0.011290
C20   C     C_R   0.478377 0.163429 0.365112 0.336545
C21   C     C_R   0.601877 0.200073 0.398555 -0.226880
C22   C     C_R   0.353122 0.874515 0.501689 0.383295
C23   C     C_R   0.189134 0.903383 0.396451 -0.213524
C24   C     C_R   0.771060 0.165600 0.501569 -0.084828
H3    H     H_    0.909739 0.109532 0.569743 0.235838
H4    H     H_    0.781703 0.909811 0.563236 0.217017
H5    H     H_    0.661997 0.284323 0.370304 0.196666
C25   C     C_R   0.370476 0.372878 0.673430 0.301470
N1    N     N_R   0.246290 0.438200 0.550780 -0.291153
C26   C     C_R   0.735809 0.602483 0.355841 0.575483
C27   C     C_R   0.618613 0.573605 0.310276 -0.191415
C28   C     C_R   0.521364 0.515463 0.363636 -0.054979
C29   C     C_R   0.542012 0.504009 0.463958 0.023488
C30   C     C_R   0.662676 0.526535 0.506736 0.091175
C31   C     C_R   0.447876 0.471105 0.522925 -0.117905
C32   C     C_R   0.470380 0.434784 0.620791 -0.210062
C33   C     C_R   0.592462 0.470854 0.663823 0.300474
C34   C     C_R   0.687369 0.529296 0.605831 0.315761
C35   C     C_R   0.337222 0.483129 0.492272 0.522134
C36   C     C_R   0.258135 0.374860 0.636496 0.386634
N2    N     N_R   0.754310 0.561180 0.449760 -0.217142
H6    H     H_    0.431126 0.484452 0.325633 0.230922
H7    H     H_    0.602965 0.596362 0.233974 0.210458
N3    N     N_R   0.621388 0.471581 0.765489 0.198497
O9    O     O_R   0.577689 0.519271 0.810632 -0.229950
O10   O     O_R   0.705535 0.440706 0.810224 -0.311447
Cl1   Cl    Cl    0.379826 0.283173 0.780335 -0.382158
Cl2   Cl    Cl    0.326768 0.578403 0.390965 -0.499475
Cl3   Cl    Cl    0.856598 0.699938 0.291011 -0.566159
Cl4   Cl    Cl    0.814466 0.647320 0.649820 -0.487122
N4    N     N_R   0.438779 0.242466 0.303264 0.113573
O11   O     O_R   0.502863 0.309815 0.235341 -0.323799
O12   O     O_R   0.352255 0.261402 0.325052 -0.388017
Cl5   Cl    Cl    0.393992 0.808425 0.613542 -0.509664
N5    N     N_R   0.556520 0.821134 0.476702 0.149957
O13   O     O_R   0.577260 0.737580 0.526978 -0.311746
O14   O     O_R   0.503529 0.810316 0.389624 -0.299806
N6    N     N_R   0.158466 0.315045 0.692552 0.171702
O15   O     O_R   0.165758 0.347347 0.774712 -0.288360
O16   O     O_R   0.084457 0.211382 0.678259 -0.343210

loop_
_geom_bond_atom_site_label_1
_geom_bond_atom_site_label_2
_geom_bond_distance
_ccdc_geom_bond_type
Cu2   N2    2.038631 S    
C5    C6    1.224611 T    
O4    Cu2   1.788878 S    
N6    O16   1.298024 A    
C27   C28   1.381929 A    
N4    O12   1.301186 A    
N6    O15   1.301658 A    
C11   C23   1.389513 A    
C4    C10   1.466886 S    
C20   N4    1.437459 S    
C33   N3    1.435440 S    
C30   C34   1.400245 A    
N1    C36   1.373344 A    
C19   C20   1.411007 A    
C26   Cl3   1.758816 S    
Cu2   O8    1.787183 S    
C14   H4    1.083187 S    
C20   C21   1.397898 A    
C22   Cl5   1.776028 S    
C16   C18   1.425611 A    
C7    C8    1.224787 T    
C13   C14   1.384481 A    
Cu1   Cu2   2.721191 S    
C25   Cl1   1.771520 S    
O1    Cu1   1.965804 S    
C29   C30   1.423187 A    
C28   C29   1.403867 A    
Cu1   O7    1.788878 S    
H1    C23   1.082207 S    
C11   C19   1.407837 A    
C17   C24   1.427998 A    
C16   C17   1.413706 A    
C14   C15   1.394566 A    
C21   H5    1.078068 S    
C1    C24   1.481126 S    
O3    Cu1   1.787183 S    
O4    C2    1.315686 A    
C30   N2    1.375307 A    
C27   H7    1.082814 S    
C32   C33   1.418700 A    
C6    C7    1.442971 S    
O8    C4    1.314633 A    
O2    C1    1.304614 A    
Cu1   O5    1.957740 S    
Cu1   N1    2.050674 S    
C26   N2    1.371586 A    
C18   C19   1.421159 A    
C34   Cl4   1.770329 S    
O7    C4    1.315550 A    
O2    Cu2   1.957741 S    
C12   C23   1.397122 A    
C36   N6    1.428483 S    
C26   C27   1.387160 A    
C18   C22   1.419115 A    
C13   C24   1.401606 A    
N5    O13   1.300948 A    
C31   C32   1.412363 A    
C28   H6    1.078363 S    
C15   N5    1.429873 S    
N3    O9    1.301947 A    
C3    C12   1.474381 S    
O3    C2    1.314291 A    
C33   C34   1.403010 A    
C29   C31   1.422730 A    
N5    O14   1.300185 A    
C15   C16   1.419728 A    
C25   C32   1.403299 A    
O5    C3    1.305937 A    
C8    C9    1.443108 S    
C31   C35   1.426235 A    
C35   Cl2   1.760086 S    
C13   H3    1.076819 S    
C2    C5    1.466903 S    
C25   C36   1.401728 A    
C11   H2    1.080237 S    
N1    C35   1.370587 A    
Cu2   O6    1.965804 S    
C12   C22   1.409590 A    
C9    C10   1.224702 T    
C17   C21   1.411408 A    
N3    O10   1.301438 A    
N4    O11   1.301306 A    
O1    C1    1.318074 A    
O6    C3    1.314095 A    
