data_mof_unit_297.cif
_audit_creation_date              2013-03-05T15:44:58-0500
_audit_creation_method            fapswitch 2.2
_symmetry_space_group_name_H-M    P1
_symmetry_Int_Tables_number       1
_space_group_crystal_system       triclinic
_cell_length_a                    10.883304
_cell_length_b                    10.878132
_cell_length_c                    18.775141
_cell_angle_alpha                 89.738344
_cell_angle_beta                  90.276831
_cell_angle_gamma                 119.66855
_cell_volume                      1931.36043523

loop_
_atom_site_label
_atom_site_type_symbol
_atom_site_description
_atom_site_fract_x
_atom_site_fract_y
_atom_site_fract_z
_atom_type_partial_charge
O1    O     O_R   0.766500 0.250040 0.579790 -0.462856
O2    O     O_R   0.798570 0.516780 0.574780 -0.510726
C1    C     C_R   0.864535 0.637084 0.603598 0.537409
O3    O     O_R   0.984000 0.732950 0.581090 -0.532212
O4    O     O_R   0.218600 0.700890 0.574760 -0.465091
C2    C     C_R   0.213663 0.597826 0.611298 0.571969
O5    O     O_R   0.249390 0.515350 0.579940 -0.513439
O6    O     O_R   0.982790 0.280900 0.573700 -0.527380
C3    C     C_R   0.861081 0.220795 0.601541 0.597033
O7    O     O_R   0.766600 0.251130 0.419260 -0.493900
O8    O     O_R   0.798660 0.517790 0.425980 -0.524405
C4    C     C_R   0.863726 0.640109 0.398413 0.543003
O9    O     O_R   0.984100 0.734040 0.420570 -0.514585
O10   O     O_R   0.218690 0.701900 0.425960 -0.482689
C5    C     C_R   0.275959 0.636608 0.397540 0.565360
O11   O     O_R   0.249490 0.516440 0.419420 -0.533809
O12   O     O_R   0.982880 0.281910 0.424890 -0.502940
C6    C     C_R   0.887511 0.292953 0.388592 0.569393
Cr1   Cr    Cr6+3 0.791660 0.390250 0.499930 1.041174
Cr2   Cr    Cr6+3 0.098520 0.708290 0.500540 1.043264
Cr3   Cr    Cr6+3 0.109770 0.401430 0.499480 1.016792
O13   O     O_3   0.999980 0.499990 0.499980 -0.295247
C7    C     C_R   0.205076 0.694846 0.728401 -0.140720
H1    H     H_    0.125320 0.718049 0.708230 0.149712
C8    C     C_R   0.245394 0.719859 0.800033 0.199005
C9    C     C_R   0.345079 0.683171 0.824815 0.033038
C10   C     C_R   0.408261 0.630552 0.778327 -0.149453
H2    H     H_    0.489485 0.607417 0.796316 0.168096
C11   C     C_R   0.367524 0.605496 0.708537 -0.113080
H3    H     H_    0.417086 0.562482 0.674489 0.163238
C12   C     C_R   0.263660 0.634426 0.683552 0.000465
C13   C     C_R   0.837362 0.162793 0.820472 0.004885
C14   C     C_R   0.094951 0.243476 0.824606 0.244264
C15   C     C_R   0.213529 0.253414 0.789921 0.395847
C16   C     C_R   0.206050 0.217424 0.718475 -0.131796
C17   C     C_R   0.083417 0.178944 0.679458 -0.163494
C18   C     C_R   0.963567 0.172643 0.711622 -0.067856
C19   C     C_R   0.964912 0.192046 0.786561 -0.080449
H4    H     H_    0.297524 0.223747 0.692413 0.126407
C20   C     C_R   0.714325 0.104192 0.705665 0.006654
C21   C     C_R   0.718822 0.140771 0.777490 -0.051574
C22   C     C_R   0.583541 0.040381 0.668654 0.408090
C23   C     C_R   0.465514 0.037700 0.698624 -0.090982
C24   C     C_R   0.477220 0.099687 0.764636 -0.164037
C25   C     C_R   0.602560 0.152146 0.803515 -0.096141
C26   C     C_R   0.842226 0.146009 0.670672 0.009344
H5    H     H_    0.081913 0.150009 0.624285 0.152015
H6    H     H_    0.607822 0.204308 0.853233 0.182180
H7    H     H_    0.366594 0.992522 0.669519 0.147173
H8    H     H_    0.388451 0.105209 0.786392 0.221543
C27   C     C_R   0.737179 0.530236 0.715384 -0.137886
H9    H     H_    0.690306 0.424999 0.692847 0.148970
C28   C     C_R   0.727393 0.543179 0.788366 -0.126199
H10   H     H_    0.669455 0.449612 0.820963 0.158543
C29   C     C_R   0.798381 0.677180 0.819025 0.044549
C30   C     C_R   0.865542 0.798613 0.775936 -0.085824
H11   H     H_    0.913819 0.903731 0.798624 0.153651
C31   C     C_R   0.875987 0.786014 0.703519 -0.122749
H12   H     H_    0.936208 0.880284 0.671704 0.138130
C32   C     C_R   0.817812 0.651884 0.673469 0.016687
C33   C     C_R   0.396752 0.596678 0.298304 -0.087151
H13   H     H_    0.393066 0.507628 0.326345 0.165110
C34   C     C_R   0.430328 0.611276 0.227139 0.371370
C35   C     C_R   0.431364 0.721132 0.187327 0.018533
C36   C     C_R   0.403872 0.820048 0.221280 -0.181884
H14   H     H_    0.406906 0.907490 0.191989 0.162708
C37   C     C_R   0.362096 0.800235 0.292588 -0.145478
H15   H     H_    0.329919 0.870111 0.316663 0.158028
C38   C     C_R   0.353156 0.684658 0.330491 -0.031698
C39   C     C_R   0.764780 0.243429 0.274343 -0.155031
H16   H     H_    0.677827 0.247360 0.299584 0.142201
C40   C     C_R   0.753799 0.212304 0.203306 -0.168268
H17   H     H_    0.657780 0.195342 0.177075 0.160147
C41   C     C_R   0.855535 0.189261 0.168991 0.016919
C42   C     C_R   0.981219 0.219493 0.205603 0.176917
C43   C     C_R   0.993015 0.255871 0.277996 -0.118409
H18   H     H_    0.088148 0.278436 0.307011 0.170365
C44   C     C_R   0.881796 0.261834 0.312881 -0.016407
C45   C     C_R   0.894510 0.791524 0.295977 -0.129645
H19   H     H_    0.965078 0.885443 0.325960 0.153168
C46   C     C_R   0.888535 0.801268 0.223167 -0.129056
H20   H     H_    0.949207 0.904929 0.199106 0.179831
C47   C     C_R   0.806314 0.679432 0.182098 0.029298
C48   C     C_R   0.722126 0.549367 0.215221 -0.069213
H21   H     H_    0.654693 0.455708 0.184353 0.179708
C49   C     C_R   0.724522 0.540727 0.288926 -0.116991
H22   H     H_    0.659439 0.439764 0.314393 0.132981
C50   C     C_R   0.818496 0.659738 0.328788 0.016733
O14   O     O_R   0.895110 0.806860 0.920430 -0.450578
O15   O     O_R   0.872260 0.046970 0.925000 -0.475476
C51   C     C_R   0.806475 0.104887 0.894488 0.585464
O16   O     O_R   0.691430 0.085060 0.918550 -0.524093
O17   O     O_R   0.451490 0.822460 0.925250 -0.479563
C52   C     C_R   0.393573 0.700468 0.897266 0.620309
O18   O     O_R   0.413330 0.603360 0.920440 -0.446284
O19   O     O_R   0.676110 0.626250 0.926750 -0.510585
C53   C     C_R   0.793313 0.697054 0.894687 0.564182
O20   O     O_R   0.895350 0.809870 0.080950 -0.497481
O21   O     O_R   0.872490 0.049760 0.073800 -0.453248
C54   C     C_R   0.810591 0.112140 0.101264 0.567608
O22   O     O_R   0.691680 0.088070 0.079070 -0.539035
O23   O     O_R   0.451720 0.825250 0.074050 -0.502274
C55   C     C_R   0.460059 0.728213 0.111010 0.568617
O24   O     O_R   0.413580 0.606370 0.080960 -0.377056
O25   O     O_R   0.676340 0.629040 0.075550 -0.486273
C56   C     C_R   0.795803 0.698566 0.106557 0.540633
Cr4   Cr    Cr6+3 0.874790 0.925890 0.000070 1.153864
Cr5   Cr    Cr6+3 0.574120 0.948670 0.999300 1.077668
Cr6   Cr    Cr6+3 0.551420 0.625320 0.000920 1.166807
O26   O     O_3   0.666780 0.833290 0.000090 -0.338923
F1    F     F_    0.571047 0.982305 0.603242 -0.616710
F2    F     F_    0.451161 0.510677 0.196315 -0.603162
N1    N     N_R   0.183390 0.778883 0.846305 0.081007
O27   O     O_R   0.150987 0.734911 0.911716 -0.277003
O28   O     O_R   0.153787 0.873468 0.822188 -0.372338
N2    N     N_R   0.096945 0.216709 0.170575 0.087655
O29   O     O_R   0.132144 0.266553 0.106235 -0.225369
O30   O     O_R   0.181670 0.187286 0.206581 -0.334049
F3    F     F_    0.338919 0.304173 0.824678 -0.631550
N3    N     N_R   0.112484 0.300424 0.895275 0.102829
O31   O     O_R   0.189896 0.280639 0.941923 -0.209936
O32   O     O_R   0.063675 0.384723 0.910826 -0.326808

loop_
_geom_bond_atom_site_label_1
_geom_bond_atom_site_label_2
_geom_bond_distance
_ccdc_geom_bond_type
C9    C52   1.435755 S    
C35   C55   1.461517 S    
C29   C30   1.404934 A    
O17   C52   1.268662 A    
C10   C11   1.365944 A    
C16   C17   1.390473 A    
C23   C24   1.388544 A    
C46   H20   1.082941 S    
O4    Cr2   1.934353 S    
C28   H10   1.082048 S    
N2    O29   1.301104 A    
C20   C26   1.398368 A    
O8    Cr1   1.933179 S    
C9    C10   1.400814 A    
O11   Cr3   2.063615 S    
C17   C18   1.410476 A    
C18   C19   1.422621 A    
C43   C44   1.408581 A    
O15   Cr4   1.934086 S    
O17   Cr5   1.945412 S    
O24   Cr6   2.064963 S    
C49   C50   1.404575 A    
C13   C51   1.492596 S    
C39   C44   1.387605 A    
C31   C32   1.391993 A    
C5    O11   1.258565 A    
C30   H11   1.082860 S    
C17   H5    1.081725 S    
C15   C16   1.389777 A    
C34   F2    1.355211 S    
C33   C34   1.374521 A    
O16   Cr5   2.062222 S    
O21   C54   1.280343 A    
Cr5   O26   1.960921 S    
O6    C3    1.265504 A    
C36   C37   1.397076 A    
C7    H1    1.083243 S    
O23   Cr5   1.943460 S    
C39   H16   1.080064 S    
C13   C19   1.415277 A    
C30   C31   1.378008 A    
C33   H13   1.083613 S    
C1    C32   1.447354 S    
O22   Cr5   2.064243 S    
C20   C22   1.416831 A    
C2    C12   1.441599 S    
C3    C26   1.488707 S    
Cr3   O13   1.961058 S    
O14   Cr4   2.065334 S    
C52   O18   1.253469 A    
C45   C50   1.393500 A    
C46   C47   1.407284 A    
N3    O32   1.301738 A    
C14   C15   1.403774 A    
C28   C29   1.393396 A    
C5    C38   1.460564 S    
O1    Cr1   2.054036 S    
C41   C42   1.413991 A    
C4    C50   1.446387 S    
C27   H9    1.083521 S    
O10   Cr2   1.945400 S    
Cr1   O13   1.971283 S    
O1    C3    1.283154 A    
C48   H21   1.083318 S    
C40   C41   1.409612 A    
O18   Cr6   2.055442 S    
C51   O16   1.247204 A    
C45   C46   1.374356 A    
C49   H22   1.079312 S    
C23   H7    1.082657 S    
C41   C54   1.468840 S    
C31   H12   1.082039 S    
O5    Cr3   2.063368 S    
O12   Cr3   1.944019 S    
O20   Cr4   2.051254 S    
C37   H15   1.083015 S    
O14   C53   1.256121 A    
C37   C38   1.402854 A    
C7    C12   1.404505 A    
C16   H4    1.082524 S    
C42   C43   1.404769 A    
C11   H3    1.083728 S    
C8    N1    1.435983 S    
C47   C48   1.393628 A    
O7    Cr1   2.065667 S    
C6    C44   1.456641 S    
O19   C53   1.270148 A    
C29   C53   1.443295 S    
O12   C6    1.293067 A    
C43   H18   1.083138 S    
C20   C21   1.401521 A    
Cr2   O13   1.969531 S    
Cr4   O26   1.970313 S    
C45   H19   1.083894 S    
C22   C23   1.391847 A    
C13   C21   1.434839 A    
C1    O3    1.271050 A    
C55   O24   1.292788 A    
N3    O31   1.301478 A    
N1    O27   1.301244 A    
O19   Cr6   1.945610 S    
C25   H6    1.081089 S    
C24   H8    1.079485 S    
C15   F3    1.357101 S    
O25   Cr6   1.934158 S    
O9    Cr2   2.051076 S    
O2    Cr1   1.946601 S    
C22   F1    1.358793 S    
C24   C25   1.393860 A    
C48   C49   1.387583 A    
C40   H17   1.083317 S    
O6    Cr3   1.943936 S    
O8    C4    1.266605 A    
C2    O5    1.286521 A    
C42   N2    1.437243 S    
O21   Cr4   1.945081 S    
O25   C56   1.274585 A    
C14   C19   1.426967 A    
O20   C56   1.253795 A    
C47   C56   1.444748 S    
C33   C38   1.401391 A    
C35   C36   1.407322 A    
O2    C1    1.262306 A    
C8    C9    1.405292 A    
C11   C12   1.393749 A    
Cr6   O26   1.970447 S    
O15   C51   1.294997 A    
O4    C2    1.290024 A    
O7    C6    1.297074 A    
C54   O22   1.255913 A    
N2    O30   1.301474 A    
C7    C8    1.398146 A    
O23   C55   1.300603 A    
C34   C35   1.401971 A    
O3    Cr2   2.065293 S    
C4    O9    1.267603 A    
C14   N3    1.438282 S    
C36   H14   1.082884 S    
C10   H2    1.084167 S    
C21   C25   1.420072 A    
O10   C5    1.273799 A    
C39   C40   1.367588 A    
C27   C32   1.410003 A    
C27   C28   1.388076 A    
C18   C26   1.425644 A    
N1    O28   1.299998 A    
