data_mof_unit_3318.cif
_audit_creation_date              2012-12-10T18:04:02-0500
_audit_creation_method            fapswitch 2.2
_symmetry_space_group_name_H-M    P1
_symmetry_Int_Tables_number       1
_space_group_crystal_system       triclinic
_cell_length_a                    10.857339
_cell_length_b                    9.616299
_cell_length_c                    10.779693
_cell_angle_alpha                 89.210846
_cell_angle_beta                  92.671004
_cell_angle_gamma                 89.949001
_cell_volume                      1124.14921918

loop_
_atom_site_label
_atom_site_type_symbol
_atom_type_description
_atom_site_fract_x
_atom_site_fract_y
_atom_site_fract_z
_atom_type_partial_charge
C1    C     C_R   0.262481 0.499494 0.501900 0.851638
C2    C     C_R   0.737542 0.499476 0.498422 0.845775
C3    C     C_R   0.432289 0.071866 0.409604 0.461251
C4    C     C_R   0.568261 0.068307 0.589106 0.418998
C5    C     C_R   0.433405 0.924460 0.412537 -0.102191
C6    C     C_R   0.566803 0.921481 0.586933 -0.120112
C7    C     C_R   0.499588 0.500969 0.262910 0.797631
C8    C     C_R   0.501199 0.499639 0.737506 0.803057
C9    C     C_R   0.409052 0.573371 0.058933 0.071639
C10   C     C_R   0.408971 0.571782 0.930773 0.073764
C11   C     C_R   0.499475 0.501342 0.129949 -0.062655
C12   C     C_R   0.499762 0.498725 0.871136 -0.086153
C13   C     C_R   0.585135 0.419275 0.071205 -0.140299
C14   C     C_R   0.586955 0.420587 0.942323 -0.095013
C15   C     C_3   0.374337 0.722052 0.919910 -0.418835
C16   C     C_3   0.374463 0.723575 0.060762 -0.402121
C17   C     C_R   0.064159 0.369303 0.505645 0.414656
C18   C     C_R   0.936046 0.369540 0.493769 0.410780
C19   C     C_R   0.871518 0.497010 0.497095 -0.188580
C20   C     C_R   0.128530 0.496951 0.503565 -0.197082
C21   C     C_R   0.936270 0.622859 0.500511 -0.247677
C22   C     C_R   0.063636 0.622872 0.501721 -0.252416
Cu1   Cu    Cu3+1 0.500000 0.640660 0.500000 0.948148
Cu2   Cu    Cu3+1 0.500000 0.359340 0.500000 1.092222
H1    H     H_    0.654231 0.359964 0.125020 0.146226
H2    H     H_    0.660523 0.366738 0.899607 0.217489
H3    H     H_    0.448100 0.787584 0.881198 0.234470
H4    H     H_    0.281321 0.739542 0.096820 0.213936
H5    H     H_    0.281108 0.737251 0.874682 0.197892
H6    H     H_    0.448340 0.789812 0.103637 0.231260
H7    H     H_    0.888641 0.721846 0.501588 0.193863
H8    H     H_    0.111154 0.721886 0.501845 0.199027
H9    H     H_    0.383002 0.865447 0.342349 0.189858
H10   H     H_    0.617434 0.860447 0.657116 0.199029
N1    N     N_R   0.500000 0.852070 0.500000 -0.227198
N2    N     N_R   0.500000 0.147940 0.500000 -0.281527
O1    O     O_R   0.319640 0.618740 0.499990 -0.600403
O2    O     O_R   0.680360 0.618740 0.500010 -0.599803
O3    O     O_R   0.319620 0.381170 0.499990 -0.492945
O4    O     O_R   0.680380 0.381170 0.500010 -0.504237
O5    O     O_R   0.499990 0.618810 0.319660 -0.600110
O6    O     O_R   0.500010 0.618810 0.680340 -0.598258
O7    O     O_R   0.499960 0.381240 0.319650 -0.516560
O8    O     O_R   0.500040 0.381240 0.680350 -0.516979
O9    O     O_3   0.125188 0.242760 0.510651 -0.526385
C23   C     C_3   0.134869 0.196290 0.635418 -0.199527
H11   H     H_    0.185285 0.272549 0.695716 0.139190
H12   H     H_    0.188361 0.097857 0.640024 0.177992
H13   H     H_    0.042527 0.174160 0.671701 0.181642
O10   O     O_3   0.875172 0.243265 0.487193 -0.546795
C24   C     C_3   0.865273 0.202813 0.361860 -0.209946
H14   H     H_    0.814912 0.282069 0.302699 0.125714
H15   H     H_    0.811654 0.104778 0.355980 0.179761
H16   H     H_    0.957550 0.182238 0.325176 0.200726
S1    S     S_3+6 0.351890 0.139773 0.272750 0.031587
O11   O     O_2   0.444584 0.160003 0.174828 -0.293977
O12   O     O_2   0.259487 0.034180 0.225721 -0.330578
O13   O     O_3   0.273701 0.288292 0.288637 -0.491211
H17   H     H_    0.245370 0.316244 0.203222 0.349667
S2    S     S_3+6 0.651052 0.130936 0.722901 0.014259
O14   O     O_2   0.718258 0.264718 0.703987 -0.291026
O15   O     O_2   0.560275 0.147032 0.822679 -0.274880
O16   O     O_3   0.756685 0.012704 0.774108 -0.542413
H18   H     H_    0.817947 0.010324 0.708836 0.344746

loop_
_geom_bond_atom_site_label_1
_geom_bond_atom_site_label_2
_ccdc_geom_bond_type
C17   C18   A    
C16   H4    S    
C8    O8    A    
S1    O11   D    
C4    N2    A    
C7    O7    A    
Cu1   O2    S    
C11   C13   A    
C9    C10   A    
C5    N1    A    
C15   H3    S    
Cu1   O5    S    
C1    O1    A    
C8    C12   S    
C24   H16   S    
C6    H10   S    
C4    S2    S    
C7    O5    A    
O10   C24   S    
O13   H17   S    
C3    C5    A    
Cu1   O1    S    
C21   C22   A    
C14   H2    S    
C7    C11   S    
C9    C11   A    
C23   H13   S    
C13   H1    S    
C21   H7    S    
Cu2   N2    S    
Cu1   O6    S    
C22   H8    S    
C3    N2    A    
S2    O16   S    
C10   C12   A    
C4    C6    A    
C19   C21   A    
C9    C16   S    
C20   C22   A    
C15   H5    S    
Cu1   N1    S    
C10   C15   S    
S1    O12   D    
Cu2   O8    S    
C23   H12   S    
O9    C23   S    
C15   C16   S    
C1    O3    A    
Cu1   Cu2   S    
C16   H6    S    
C24   H14   S    
C2    O4    A    
C12   C14   A    
Cu2   O3    S    
C6    N1    A    
C18   O10   S    
S2    O15   D    
C18   C19   A    
S1    O13   S    
Cu2   O7    S    
C2    O2    A    
C23   H11   S    
S2    O14   D    
C1    C20   S    
Cu2   O4    S    
C2    C19   S    
C13   C14   A    
C3    S1    S    
C17   C20   A    
C17   O9    S    
C8    O6    A    
O16   H18   S    
C24   H15   S    
C5    H9    S    
