data_mof_unit_731.cif
_audit_creation_date              2012-12-10T17:43:34-0500
_audit_creation_method            fapswitch 2.2
_symmetry_space_group_name_H-M    P1
_symmetry_Int_Tables_number       1
_space_group_crystal_system       triclinic
_cell_length_a                    15.019532
_cell_length_b                    10.823573
_cell_length_c                    10.08957
_cell_angle_alpha                 88.997582
_cell_angle_beta                  88.634368
_cell_angle_gamma                 94.963952
_cell_volume                      1633.27998147

loop_
_atom_site_label
_atom_site_type_symbol
_atom_type_description
_atom_site_fract_x
_atom_site_fract_y
_atom_site_fract_z
_atom_type_partial_charge
C1    C     C_R   0.511356 0.263168 0.499531 0.905891
C2    C     C_R   0.914792 0.613059 0.468523 0.021006
C3    C     C_R   0.928995 0.278251 0.552276 -0.063624
C4    C     C_R   0.021782 0.272102 0.554622 -0.062172
C5    C     C_R   0.081323 0.381771 0.530960 0.051283
C6    C     C_R   0.044472 0.493838 0.493799 0.031267
C7    C     C_R   0.100392 0.601472 0.455374 -0.012358
C8    C     C_R   0.064045 0.718075 0.445846 -0.093847
C9    C     C_R   0.971667 0.723330 0.461683 -0.067767
C10   C     C_R   0.175879 0.386068 0.544162 -0.053365
C11   C     C_R   0.230064 0.491806 0.497452 -0.219889
C12   C     C_R   0.327012 0.495800 0.500553 0.962014
C13   C     C_R   0.192045 0.591091 0.436247 -0.070899
C14   C     C_R   0.568996 0.108056 0.727472 -0.118372
C15   C     C_R   0.552411 0.040337 0.844908 0.022786
C16   C     C_R   0.480394 0.947828 0.851067 -0.042283
C17   C     C_R   0.450473 0.894754 0.731238 -0.085943
C18   C     C_R   0.491024 0.942481 0.610529 0.051876
C19   C     C_R   0.528825 0.064229 0.612148 0.106898
C20   C     C_R   0.531676 0.133506 0.495513 -0.221181
C21   C     C_R   0.542066 0.072469 0.374777 -0.160480
C22   C     C_R   0.536999 0.942523 0.375199 -0.179134
C23   C     C_R   0.499910 0.740386 0.498253 0.932583
C24   C     C_R   0.503223 0.875867 0.492350 -0.132397
C25   C     C_R   0.345431 0.403603 0.142103 -0.116568
C26   C     C_R   0.264046 0.420988 0.079220 -0.081171
C27   C     C_R   0.269248 0.439118 0.940370 -0.129929
C28   C     C_R   0.346783 0.403846 0.875225 -0.051558
C29   C     C_R   0.425360 0.454043 0.932674 0.052965
C30   C     C_R   0.425764 0.450998 0.075485 0.087304
C31   C     C_R   0.571027 0.548220 0.068455 -0.008841
C32   C     C_R   0.570841 0.550186 0.926748 0.002165
C33   C     C_R   0.672121 0.505153 0.498452 0.823774
C34   C     C_R   0.821383 0.614568 0.458922 -0.208031
C35   C     C_R   0.767104 0.507918 0.495941 -0.092185
C36   C     C_R   0.802368 0.399644 0.531705 -0.197755
C37   C     C_R   0.894302 0.391657 0.526278 0.078562
C38   C     C_R   0.951399 0.499121 0.494961 0.061651
H1    H     H_    0.616825 0.189228 0.723747 0.140608
H2    H     H_    0.628775 0.589124 0.119239 0.177281
H3    H     H_    0.756083 0.320526 0.559868 0.122901
N1    N     N_R   0.499150 0.498800 0.142780 -0.114163
N2    N     N_R   0.499120 0.498720 0.857170 -0.128785
O1    O     O_R   0.500000 0.316780 0.614690 -0.558666
O2    O     O_R   0.499990 0.316750 0.385360 -0.616316
O3    O     O_R   0.367850 0.499980 0.614680 -0.618646
O4    O     O_R   0.367840 0.499960 0.385350 -0.627266
O5    O     O_R   0.500010 0.683250 0.614640 -0.632379
O6    O     O_R   0.500000 0.683220 0.385310 -0.608721
O7    O     O_R   0.632160 0.500040 0.614650 -0.631835
O8    O     O_R   0.632150 0.500020 0.385320 -0.603989
Zn1   Zn    Zn3+2 0.500010 0.500020 0.653130 0.998426
Zn2   Zn    Zn3+2 0.499990 0.499980 0.346870 1.020189
C39   C     C_2   0.780802 0.722434 0.399807 0.982345
O9    O     O_2   0.803788 0.758057 0.287716 -0.487185
O10   O     O_R   0.718502 0.785601 0.470755 -0.767693
H4    H     H_    0.708178 0.753508 0.565009 0.308037
C40   C     C_1   0.618923 0.053622 0.944606 0.278994
N3    N     N_1   0.675664 0.064294 0.020061 -0.076561
C41   C     C_1   0.424826 0.931940 0.969814 0.267506
N4    N     N_1   0.377445 0.921941 0.062217 -0.166731
C42   C     C_1   0.370736 0.809130 0.730609 0.293841
N5    N     N_1   0.306891 0.741156 0.730575 -0.128180
C43   C     C_2   0.582840 0.884032 0.262385 0.997513
O11   O     O_2   0.663294 0.907003 0.246315 -0.493953
O12   O     O_R   0.536835 0.810546 0.169745 -0.796971
H5    H     H_    0.470848 0.795723 0.191511 0.325832
C44   C     C_1   0.346445 0.294118 0.225346 0.426901
N6    N     N_1   0.344859 0.203597 0.288354 -0.108916
C45   C     C_2   0.176301 0.406375 0.152743 0.984240
O13   O     O_2   0.164960 0.334152 0.247247 -0.642127
O14   O     O_R   0.106351 0.475266 0.114322 -0.753159
H6    H     H_    0.050797 0.457946 0.173096 0.354462
C46   C     C_1   0.195859 0.479194 0.866043 0.390960
N7    N     N_1   0.136610 0.512859 0.808189 -0.143354
C47   C     C_2   0.347068 0.266500 0.863947 0.949981
O15   O     O_2   0.410207 0.222050 0.811303 -0.622206
O16   O     O_R   0.278711 0.186896 0.924266 -0.745958
H7    H     H_    0.286762 0.096155 0.909348 0.361588
C48   C     C_1   0.647013 0.613985 0.859078 0.267024
N8    N     N_1   0.709116 0.666257 0.807251 -0.162564
C49   C     C_1   0.867504 0.168007 0.575957 0.215452
N9    N     N_1   0.815854 0.083348 0.593849 -0.161979
C50   C     C_1   0.052111 0.151100 0.580172 0.323585
N10   N     N_1   0.075828 0.054672 0.604110 -0.108088
C51   C     C_2   0.218764 0.284384 0.610077 0.854449
O17   O     O_2   0.190050 0.245599 0.718348 -0.611354
O18   O     O_R   0.290628 0.232195 0.549206 -0.795387
H8    H     H_    0.310592 0.159130 0.601458 0.365666
C52   C     C_2   0.246616 0.680138 0.346692 0.933438
O19   O     O_2   0.225409 0.692854 0.231317 -0.583394
O20   O     O_R   0.318346 0.754135 0.396299 -0.799474
H9    H     H_    0.344545 0.818640 0.329074 0.340698
C53   C     C_2   0.121959 0.836641 0.442762 0.939495
O21   O     O_2   0.176356 0.857703 0.529609 -0.594826
O22   O     O_R   0.113918 0.923573 0.340582 -0.709321
H10   H     H_    0.157586 0.999821 0.348280 0.365496
C54   C     C_2   0.938876 0.837188 0.515856 0.911986
O23   O     O_2   0.934586 0.929126 0.445081 -0.546780
O24   O     O_R   0.914935 0.837430 0.650598 -0.772061
H11   H     H_    0.903852 0.922200 0.684062 0.359458
C55   C     C_2   0.564677 0.143674 0.249815 0.991708
O25   O     O_2   0.513047 0.134721 0.158374 -0.621991
O26   O     O_R   0.641476 0.226359 0.238049 -0.738733
H12   H     H_    0.679344 0.226245 0.319862 0.307379

loop_
_geom_bond_atom_site_label_1
_geom_bond_atom_site_label_2
_ccdc_geom_bond_type
C9    C54   S    
C31   N1    A    
C13   C52   S    
C35   C36   A    
C1    O2    A    
C7    C8    A    
C31   H2    S    
C26   C27   A    
C29   C30   A    
C18   C24   A    
C28   C29   A    
C47   O16   S    
C18   C19   A    
N1    Zn2   S    
C5    C6    A    
C51   O18   S    
N2    Zn1   S    
C23   O6    A    
C15   C16   A    
O3    Zn1   S    
O10   H4    S    
C34   C35   A    
C16   C41   S    
O24   H11   S    
C33   O7    A    
C14   H1    S    
C44   N6    T    
C10   C51   S    
C42   N5    T    
C19   C20   A    
C8    C9    A    
O7    Zn1   S    
C23   C24   S    
C6    C38   A    
C45   O13   D    
C27   C46   S    
O4    Zn2   S    
O18   H8    S    
O1    Zn1   S    
O12   H5    S    
O2    Zn2   S    
C21   C22   A    
C29   N2    A    
C36   H3    S    
C53   O21   D    
C25   C44   S    
C12   O4    A    
O26   H12   S    
C39   O10   S    
C46   N7    T    
C8    C53   S    
C47   O15   D    
O14   H6    S    
C12   O3    A    
O16   H7    S    
C16   C17   A    
C25   C26   A    
C49   N9    T    
C41   N4    T    
O8    Zn2   S    
C43   O12   S    
C53   O22   S    
C37   C38   A    
C17   C42   S    
C32   C48   S    
C2    C38   A    
C1    O1    A    
C52   O20   S    
C31   C32   A    
C4    C50   S    
C7    C13   A    
O22   H10   S    
C3    C49   S    
C17   C18   A    
C50   N10   T    
C55   O26   S    
C21   C55   S    
C34   C39   S    
C54   O24   S    
C26   C45   S    
C15   C40   S    
C22   C24   A    
C3    C4    A    
C28   C47   S    
C25   C30   A    
C39   O9    D    
C36   C37   A    
C1    C20   S    
C23   O5    A    
C51   O17   D    
C14   C19   A    
C48   N8    T    
C11   C12   S    
C6    C7    A    
C33   O8    A    
C43   O11   D    
C40   N3    T    
C5    C10   A    
C11   C13   A    
C2    C34   A    
C52   O19   D    
O6    Zn2   S    
C4    C5    A    
O20   H9    S    
C33   C35   S    
C32   N2    A    
C55   O25   D    
C10   C11   A    
C22   C43   S    
O5    Zn1   S    
C20   C21   A    
C3    C37   A    
C54   O23   D    
C27   C28   A    
C14   C15   A    
C30   N1    A    
C45   O14   S    
C2    C9    A    
