data_mof_unit_3047.cif
_audit_creation_date              2012-12-10T20:31:10-0500
_audit_creation_method            fapswitch 2.2
_symmetry_space_group_name_H-M    P1
_symmetry_Int_Tables_number       1
_space_group_crystal_system       triclinic
_cell_length_a                    14.919752
_cell_length_b                    10.639704
_cell_length_c                    9.912941
_cell_angle_alpha                 89.423918
_cell_angle_beta                  89.297416
_cell_angle_gamma                 92.434501
_cell_volume                      1571.9709956

loop_
_atom_site_label
_atom_site_type_symbol
_atom_type_description
_atom_site_fract_x
_atom_site_fract_y
_atom_site_fract_z
_atom_type_partial_charge
C1    C     C_R   0.498741 0.260547 0.500347 0.900215
C2    C     C_R   0.181148 0.396533 0.554701 0.386021
C3    C     C_R   0.231740 0.500176 0.503234 -0.167814
C4    C     C_R   0.327098 0.498294 0.500766 0.934653
C5    C     C_R   0.191755 0.607623 0.456343 -0.313398
C6    C     C_R   0.570915 0.070561 0.560669 0.023340
C7    C     C_R   0.501197 0.129061 0.498296 -0.044890
C8    C     C_R   0.441069 0.060847 0.417736 -0.238569
C9    C     C_R   0.440979 0.931231 0.422010 -0.217358
C10   C     C_R   0.506136 0.872110 0.497226 -0.122158
C11   C     C_R   0.576304 0.942505 0.556628 0.071863
C12   C     C_R   0.911890 0.614414 0.448841 -0.109098
C13   C     C_3   0.614772 0.940001 0.696548 0.278712
C14   C     C_3   0.604098 0.081185 0.700887 -0.475338
C15   C     C_R   0.479284 0.392298 0.072973 0.086165
C16   C     C_R   0.503845 0.739733 0.499618 0.877229
C17   C     C_R   0.525206 0.605718 0.069055 0.489642
C18   C     C_R   0.528270 0.602705 0.925238 -0.283874
C19   C     C_R   0.478957 0.392245 0.930803 0.189405
C20   C     C_3   0.392483 0.316299 0.928675 0.292144
C21   C     C_3   0.393025 0.317088 0.082420 -0.593364
C22   C     C_R   0.673066 0.502568 0.498998 0.915430
C23   C     C_R   0.944041 0.312093 0.635089 -0.238730
C24   C     C_R   0.818265 0.604587 0.432044 0.409612
C25   C     C_R   0.768897 0.506162 0.497829 -0.193455
C26   C     C_R   0.810195 0.412224 0.568952 -0.330441
C27   C     C_R   0.902506 0.412415 0.573214 0.162080
C28   C     C_R   0.953812 0.513542 0.513738 -0.044910
C29   C     C_3   0.779002 0.665732 0.220391 0.204758
C30   C     C_3   0.765444 0.784460 0.137710 -0.717203
C31   C     C_3   0.720010 0.787305 0.716258 0.158750
C32   C     C_3   0.819799 0.767061 0.728514 -0.827815
C33   C     C_3   0.495340 0.813469 0.100840 0.101045
C34   C     C_R   0.036654 0.307285 0.631239 -0.206874
C35   C     C_3   0.544872 0.940126 0.118622 -0.821810
C36   C     C_3   0.322592 0.129282 0.865924 0.109661
C37   C     C_3   0.338363 0.993473 0.829787 -0.871093
C38   C     C_3   0.213342 0.206437 0.468419 0.080833
C39   C     C_3   0.218172 0.069484 0.511993 -0.896952
C40   C     C_3   0.956497 0.938973 0.406461 0.088138
C41   C     C_3   0.884902 0.036107 0.396120 -0.779423
C42   C     C_R   0.088566 0.405081 0.569372 0.031196
C43   C     C_R   0.047157 0.511519 0.516169 0.016415
C44   C     C_R   0.099130 0.612894 0.459713 0.079670
C45   C     C_R   0.058168 0.717706 0.407077 -0.349680
C46   C     C_R   0.964364 0.721490 0.404070 0.487508
H1    H     H_    0.550141 0.685009 0.868194 0.152170
H2    H     H_    0.749100 0.759188 0.032391 0.187821
H3    H     H_    0.709984 0.837143 0.181702 0.286829
H4    H     H_    0.827296 0.846116 0.136651 0.253599
H5    H     H_    0.388380 0.877460 0.371390 0.140207
H6    H     H_    0.572486 0.888041 0.773855 0.071545
H7    H     H_    0.693364 0.732958 0.629602 0.171248
H8    H     H_    0.687505 0.753064 0.811549 0.119603
H9    H     H_    0.847004 0.818289 0.817143 0.244351
H10   H     H_    0.831268 0.665246 0.741495 0.215160
H11   H     H_    0.855664 0.802785 0.636489 0.271748
H12   H     H_    0.337874 0.370778 0.127170 0.176564
H13   H     H_    0.551500 0.108859 0.773598 0.229481
H14   H     H_    0.668323 0.137881 0.705808 0.211814
H15   H     H_    0.435145 0.807276 0.167455 0.154129
H16   H     H_    0.471109 0.811637 0.995482 0.102114
H17   H     H_    0.599895 0.951626 0.042436 0.243291
H18   H     H_    0.497850 0.017178 0.104254 0.231252
H19   H     H_    0.573701 0.947018 0.220999 0.275175
H20   H     H_    0.337555 0.368383 0.880915 0.094300
H21   H     H_    0.282389 0.171772 0.785346 0.211731
H22   H     H_    0.283754 0.129340 0.962706 0.126886
H23   H     H_    0.770005 0.336716 0.617363 0.163206
H24   H     H_    0.369206 0.945840 0.916227 0.238996
H25   H     H_    0.273492 0.943579 0.807141 0.216724
H26   H     H_    0.383741 0.989315 0.740414 0.269153
H27   H     H_    0.904763 0.235123 0.682041 0.156302
H28   H     H_    0.268858 0.230969 0.395947 0.143852
H29   H     H_    0.148507 0.214985 0.414557 0.135118
H30   H     H_    0.161366 0.043042 0.581462 0.246395
H31   H     H_    0.214531 0.007907 0.422254 0.203732
H32   H     H_    0.282032 0.054865 0.564252 0.280408
H33   H     H_    0.099263 0.795252 0.365107 0.143508
H34   H     H_    0.401820 0.223183 0.129418 0.216218
H35   H     H_    0.016656 0.974715 0.348376 0.137616
H36   H     H_    0.974101 0.928770 0.514986 0.128731
H37   H     H_    0.911412 0.127798 0.434321 0.206624
H38   H     H_    0.865213 0.048472 0.289279 0.246979
H39   H     H_    0.824801 0.005002 0.456932 0.289189
H40   H     H_    0.067364 0.226513 0.675646 0.181894
H41   H     H_    0.232985 0.686134 0.416051 0.151616
H42   H     H_    0.391120 0.106905 0.359149 0.149147
H43   H     H_    0.725162 0.594970 0.195064 0.159321
H44   H     H_    0.844746 0.628234 0.188949 0.103593
N1    N     N_R   0.499390 0.499140 0.142800 -0.147393
N2    N     N_R   0.499390 0.499180 0.857150 -0.155553
O1    O     O_R   0.500010 0.316790 0.614690 -0.586712
O2    O     O_3   0.707308 0.916117 0.695444 -0.597626
O3    O     O_3   0.552471 0.714806 0.134281 -0.587879
O4    O     O_3   0.406057 0.195536 0.876686 -0.594162
O5    O     O_3   0.221489 0.284720 0.582834 -0.644148
O6    O     O_3   0.923001 0.824917 0.350337 -0.581538
O7    O     O_R   0.500000 0.316760 0.385350 -0.627020
O8    O     O_R   0.367850 0.499990 0.614680 -0.602547
O9    O     O_R   0.367840 0.499950 0.385340 -0.641322
O10   O     O_R   0.500000 0.683240 0.614650 -0.656870
O11   O     O_R   0.499990 0.683210 0.385310 -0.558080
O12   O     O_R   0.632160 0.500050 0.614660 -0.636713
O13   O     O_R   0.632150 0.500010 0.385320 -0.603832
O14   O     O_3   0.773973 0.694349 0.359510 -0.577962
Zn1   Zn    Zn3+2 0.500010 0.500020 0.653130 0.952425
Zn2   Zn    Zn3+2 0.499990 0.499980 0.346870 0.977360

loop_
_geom_bond_atom_site_label_1
_geom_bond_atom_site_label_2
_ccdc_geom_bond_type
C19   C20   S    
C9    H5    S    
C18   H1    S    
C1    O7    A    
C29   H43   S    
C36   H21   S    
C7    C8    A    
C45   C46   A    
C15   C19   A    
C14   H13   S    
C26   C27   A    
C12   C28   A    
C39   H31   S    
C30   H2    S    
C36   C37   S    
C40   O6    S    
C38   C39   S    
C35   H19   S    
C41   H37   S    
C22   O12   A    
C34   H40   S    
C19   N2    A    
C16   O11   A    
C2    O5    S    
C8    C9    A    
C22   C25   S    
C34   C42   A    
C17   N1    A    
O11   Zn2   S    
C17   O3    S    
C23   C27   A    
C9    C10   A    
C32   H9    S    
O9    Zn2   S    
C46   O6    S    
C13   C14   S    
C32   H11   S    
C23   H27   S    
C38   O5    S    
C33   O3    S    
C29   H44   S    
C38   H29   S    
C30   H4    S    
O13   Zn2   S    
C39   H32   S    
C40   H36   S    
C24   C25   A    
C12   C46   A    
C6    C11   A    
C33   H16   S    
C25   C26   A    
C41   H38   S    
C1    O1    A    
C8    H42   S    
C43   C44   A    
C29   C30   S    
O7    Zn2   S    
C6    C14   S    
C13   H6    S    
C36   O4    S    
N2    Zn1   S    
C31   C32   S    
C23   C34   A    
C4    O9    A    
C17   C18   A    
O10   Zn1   S    
C45   H33   S    
C39   H30   S    
C31   H7    S    
C35   H18   S    
C16   O10   A    
C40   C41   S    
C5    C44   A    
C37   H25   S    
C29   O14   S    
C24   O14   S    
C42   C43   A    
C3    C4    S    
C31   O2    S    
C41   H39   S    
C44   C45   A    
C38   H28   S    
C20   H20   S    
O8    Zn1   S    
C1    C7    S    
N1    Zn2   S    
C30   H3    S    
C3    C5    A    
C36   H22   S    
C6    C7    A    
C22   O13   A    
C14   H14   S    
C12   C24   A    
C28   C43   A    
C13   O2    S    
C40   H35   S    
C18   N2    A    
C4    O8    A    
C2    C3    A    
C21   H12   S    
C10   C16   S    
O1    Zn1   S    
C11   C13   S    
C2    C42   A    
C21   H34   S    
C33   C35   S    
C31   H8    S    
C20   O4    S    
C10   C11   A    
C15   N1    A    
C5    H41   S    
C15   C21   S    
C20   C21   S    
C33   H15   S    
C37   H26   S    
C27   C28   A    
C26   H23   S    
C35   H17   S    
C37   H24   S    
C32   H10   S    
O12   Zn1   S    
