data_mof_unit_439.cif
_audit_creation_date              2012-12-10T19:25:49-0500
_audit_creation_method            fapswitch 2.2
_symmetry_space_group_name_H-M    P1
_symmetry_Int_Tables_number       1
_space_group_crystal_system       triclinic
_cell_length_a                    9.748035
_cell_length_b                    10.536882
_cell_length_c                    16.771679
_cell_angle_alpha                 90.783076
_cell_angle_beta                  83.464651
_cell_angle_gamma                 90.337883
_cell_volume                      1711.31397362

loop_
_atom_site_label
_atom_site_type_symbol
_atom_type_description
_atom_site_fract_x
_atom_site_fract_y
_atom_site_fract_z
_atom_type_partial_charge
C1    C     C_R   0.500288 0.742198 0.501063 0.990022
C2    C     C_R   0.499727 0.257836 0.498806 0.991497
C3    C     C_3   0.460291 0.954635 0.432171 0.363370
C4    C     C_3   0.539718 0.045469 0.567452 0.358182
C5    C     C_3   0.588591 0.040270 0.435669 -0.397963
C6    C     C_3   0.411409 0.959905 0.563925 -0.415146
C7    C     C_3   0.499097 0.123532 0.497830 -0.172330
C8    C     C_3   0.500917 0.876564 0.501812 -0.172692
C9    C     C_3   0.372766 0.038161 0.492806 0.411441
C10   C     C_3   0.627282 0.961979 0.506799 0.404627
C11   C     C_3   0.937194 0.506451 0.572348 -0.039500
C12   C     C_3   0.062875 0.493547 0.427689 -0.028615
C13   C     C_3   0.042731 0.602292 0.533500 -0.020564
C14   C     C_3   0.957314 0.397702 0.466529 -0.000643
C15   C     C_3   0.040359 0.404144 0.538929 -0.079722
C16   C     C_3   0.959684 0.595870 0.461099 -0.066471
C17   C     C_R   0.478572 0.496918 0.653189 0.935977
C18   C     C_R   0.521319 0.500781 0.346665 0.948914
C19   C     C_R   0.461567 0.468653 0.738476 -0.225984
C20   C     C_R   0.536719 0.514198 0.259703 -0.209838
C21   C     C_R   0.559772 0.388197 0.766113 -0.251476
C22   C     C_R   0.433265 0.582141 0.227175 -0.271762
C23   C     C_R   0.552407 0.357069 0.846603 0.443704
C24   C     C_R   0.434385 0.593360 0.144829 0.447171
C25   C     C_R   0.444559 0.407500 0.899937 -0.147248
C26   C     C_R   0.541853 0.535981 0.094489 -0.132846
C27   C     C_R   0.340314 0.479148 0.872085 -0.184379
C28   C     C_R   0.649808 0.475088 0.126001 -0.215039
C29   C     C_R   0.347936 0.512114 0.791654 0.380872
C30   C     C_R   0.648544 0.462054 0.208533 0.387897
C31   C     C_2   0.459456 0.419183 0.985144 0.464780
C32   C     C_2   0.531861 0.518870 0.009137 0.453495
H1    H     H_    0.644036 0.351204 0.724813 0.204647
H2    H     H_    0.349441 0.624576 0.266345 0.201753
H3    H     H_    0.879600 0.511779 0.633320 0.178918
H4    H     H_    0.120784 0.488194 0.366804 0.174052
H5    H     H_    0.079428 0.323580 0.571740 0.181042
H6    H     H_    0.920665 0.676429 0.428263 0.178842
H7    H     H_    0.259114 0.517956 0.914791 0.240432
H8    H     H_    0.731108 0.431677 0.085400 0.237935
H9    H     H_    0.660089 0.073435 0.383943 0.240392
H10   H     H_    0.339085 0.927590 0.615460 0.234264
H11   H     H_    0.083762 0.688289 0.561768 0.186834
H12   H     H_    0.916365 0.311651 0.438290 0.186161
N1    N     N_3   0.136700 0.499970 0.500060 -0.102532
N2    N     N_3   0.863300 0.500030 0.499940 -0.099371
O1    O     O_R   0.383390 0.686040 0.500000 -0.606189
O2    O     O_R   0.616610 0.313960 0.500000 -0.610951
O3    O     O_R   0.616650 0.686050 0.499970 -0.589295
O4    O     O_R   0.383350 0.313950 0.500030 -0.588989
O5    O     O_R   0.369590 0.500020 0.615820 -0.548896
O6    O     O_R   0.630410 0.499980 0.384180 -0.548557
O7    O     O_R   0.602840 0.500020 0.615790 -0.637719
O8    O     O_R   0.397160 0.499980 0.384210 -0.639011
Zn1   Zn    Zn3+2 0.344250 0.499990 0.500020 1.030562
Zn2   Zn    Zn3+2 0.655750 0.500010 0.499980 1.030222
S1    S     S_3+6 0.784409 0.375066 0.243406 0.066083
O9    O     O_2   0.726904 0.281536 0.305397 -0.301243
O10   O     O_2   0.865863 0.304030 0.175635 -0.218405
O11   O     O_3   0.890144 0.476711 0.284759 -0.562092
H13   H     H_    0.925452 0.534136 0.240758 0.357151
S2    S     S_3+6 0.220323 0.615556 0.762575 0.074599
O12   O     O_2   0.143961 0.680426 0.834634 -0.210440
O13   O     O_2   0.119117 0.539239 0.720358 -0.279957
O14   O     O_3   0.293237 0.726269 0.699989 -0.562806
H14   H     H_    0.366259 0.765623 0.728793 0.347694
O15   O     O_3   0.596358 0.602563 0.953861 -0.721638
H15   H     H_    0.644099 0.668231 0.983614 0.378471
O16   O     O_3   0.395080 0.335132 0.040123 -0.707122
H16   H     H_    0.345717 0.270948 0.010134 0.380249
S3    S     S_3+6 0.296073 0.672068 0.106749 0.075368
O17   O     O_2   0.350072 0.752109 0.036477 -0.203494
O18   O     O_2   0.197372 0.575027 0.079286 -0.284013
O19   O     O_3   0.211769 0.766057 0.177872 -0.491270
H17   H     H_    0.143245 0.710065 0.208366 0.351562
S4    S     S_3+6 0.684508 0.263705 0.879921 0.085719
O20   O     O_2   0.784923 0.348771 0.916947 -0.267975
O21   O     O_2   0.622975 0.172058 0.942096 -0.201632
O22   O     O_3   0.768690 0.181428 0.802828 -0.495789
H18   H     H_    0.840418 0.240218 0.778009 0.366515
O23   O     O_3   0.416115 0.901473 0.362586 -0.726990
H19   H     H_    0.398541 0.974601 0.328678 0.377377
O24   O     O_3   0.583845 0.098595 0.637063 -0.730656
H20   H     H_    0.600597 0.025497 0.671184 0.376082
O25   O     O_3   0.240521 0.081939 0.483348 -0.728343
H21   H     H_    0.181766 0.004825 0.483509 0.350553
O26   O     O_3   0.759534 0.918235 0.516266 -0.728649
H22   H     H_    0.818230 0.995377 0.516198 0.350813

loop_
_geom_bond_atom_site_label_1
_geom_bond_atom_site_label_2
_ccdc_geom_bond_type
C25   C31   S    
O26   H22   S    
C26   C32   S    
C27   C29   A    
C1    C8    S    
C2    C7    S    
S4    O22   S    
C23   S4    S    
C17   O5    A    
C6    C9    S    
O23   H19   S    
C18   O6    A    
C14   N2    S    
C20   C30   A    
O25   H21   S    
O24   H20   S    
S4    O21   D    
O1    Zn1   S    
C19   C21   A    
C24   C26   A    
S1    O10   D    
C21   H1    S    
C28   H8    S    
C30   S1    S    
C7    C9    S    
C15   H5    S    
S2    O13   D    
C2    O4    A    
C9    O25   S    
O8    Zn1   S    
C11   C15   S    
C12   C16   S    
C27   H7    S    
C3    O23   S    
C12   H4    S    
C18   C20   S    
C4    C7    S    
C22   H2    S    
C10   O26   S    
O19   H17   S    
O15   H15   S    
S4    O20   D    
C4    C6    S    
C3    C8    S    
C16   N2    S    
C5    C7    S    
C1    O1    A    
S1    O11   S    
C6    C8    S    
C2    O2    A    
O11   H13   S    
S2    O12   D    
C3    C9    S    
C31   C32   D    
C31   O16   S    
C32   O15   S    
C20   C22   A    
C21   C23   A    
C22   C24   A    
C15   N1    S    
C4    C10   S    
C19   C29   A    
C17   O7    A    
C13   H11   S    
C14   H12   S    
O7    Zn2   S    
O2    Zn2   S    
C5    H9    S    
C29   S2    S    
S2    O14   S    
C12   C14   S    
C12   N1    S    
C3    C5    S    
N2    Zn2   S    
S3    O19   S    
C25   C27   A    
O3    Zn2   S    
C26   C28   A    
O4    Zn1   S    
C28   C30   A    
C5    C10   S    
C13   N1    S    
C11   C13   S    
S1    O9    D    
C4    O24   S    
C11   H3    S    
C17   C19   S    
O5    Zn1   S    
C23   C25   A    
O16   H16   S    
C18   O8    A    
O22   H18   S    
S3    O17   D    
N1    Zn1   S    
C8    C10   S    
O14   H14   S    
C6    H10   S    
C13   C16   S    
S3    O18   D    
C14   C15   S    
C11   N2    S    
C1    O3    A    
O6    Zn2   S    
C24   S3    S    
C16   H6    S    
