data_mof_unit_4051.cif
_audit_creation_date              2012-10-26T19:00:12-0400
_audit_creation_method            fapswitch 2.2
_symmetry_space_group_name_H-M    P1
_symmetry_Int_Tables_number       1
_space_group_crystal_system       triclinic
_cell_length_a                    10.811934
_cell_length_b                    10.805241
_cell_length_c                    9.544142
_cell_angle_alpha                 89.954756
_cell_angle_beta                  89.968281
_cell_angle_gamma                 90.194248
_cell_volume                      1114.99273473

loop_
_atom_site_label
_atom_site_type_symbol
_atom_type_description
_atom_site_fract_x
_atom_site_fract_y
_atom_site_fract_z
_atom_type_partial_charge
C1    C     C_R   0.500660 0.262427 0.500063 0.548325
C2    C     C_R   0.816675 0.314296 0.953598 -0.124935
C3    C     C_R   0.756750 0.203957 0.917932 -0.072121
C4    C     C_R   0.262427 0.500076 0.499980 0.582729
C5    C     C_R   0.754526 0.164589 0.778465 -0.070997
C6    C     C_R   0.810591 0.236265 0.673956 -0.091608
C7    C     C_R   0.870859 0.347170 0.709254 0.031374
C8    C     C_R   0.483049 0.063638 0.623130 0.056566
C9    C     C_R   0.509043 0.129359 0.500874 -0.041164
C10   C     C_R   0.549722 0.065020 0.381741 -0.173916
C11   C     C_R   0.550054 0.936036 0.381921 -0.170630
C12   C     C_R   0.246059 0.824270 0.126496 -0.134458
C13   C     C_R   0.509573 0.870947 0.501020 -0.006559
C14   C     C_R   0.483311 0.936326 0.623314 0.032853
C15   C     C_3   0.372392 0.929208 0.716626 -0.194734
C16   C     C_R   0.500982 0.737658 0.500002 0.550532
C17   C     C_3   0.372486 0.069708 0.716491 0.242584
C18   C     C_R   0.602798 0.535992 0.073514 0.096266
C19   C     C_R   0.403999 0.450978 0.074515 0.027902
C20   C     C_R   0.403999 0.450951 0.925711 0.044063
C21   C     C_R   0.602429 0.536794 0.926370 0.178372
C22   C     C_3   0.666232 0.659393 0.921485 0.234229
C23   C     C_R   0.934098 0.563439 0.402224 -0.173935
C24   C     C_3   0.667127 0.657926 0.080491 -0.214211
C25   C     C_R   0.737541 0.496297 0.500273 0.544014
C26   C     C_R   0.238130 0.847568 0.269883 -0.117064
C27   C     C_R   0.177672 0.763664 0.357773 -0.113297
C28   C     C_R   0.123974 0.655390 0.303116 0.045053
C29   C     C_R   0.131649 0.631801 0.156713 0.269902
C30   C     C_R   0.192952 0.717256 0.070334 -0.047257
C31   C     C_R   0.871427 0.491537 0.501004 -0.031768
C32   C     C_R   0.936767 0.420397 0.600752 -0.035818
C33   C     C_R   0.067031 0.421188 0.597333 0.214010
C34   C     C_R   0.128357 0.497901 0.500134 0.038431
C35   C     C_R   0.062025 0.568861 0.401802 -0.092003
C36   C     C_R   0.873886 0.385643 0.849738 -0.086841
Cu1   Cu    Cu3+1 0.499990 0.499980 0.640670 1.049368
Cu2   Cu    Cu3+1 0.500010 0.500020 0.359330 0.946071
F1    F     F_    0.402212 0.118715 0.846197 -0.631144
F2    F     F_    0.591519 0.752233 0.869420 -0.637331
H1    H     H_    0.293354 0.889363 0.058750 0.149885
H2    H     H_    0.325485 0.412803 0.130006 0.155209
H3    H     H_    0.278925 0.930786 0.313115 0.127549
H4    H     H_    0.325459 0.412785 0.870529 0.192489
H5    H     H_    0.759537 0.655605 0.872818 0.108202
H6    H     H_    0.761726 0.650032 0.124597 0.077299
H7    H     H_    0.608668 0.730849 0.127992 0.175809
H8    H     H_    0.172634 0.782918 0.468964 0.096633
H9    H     H_    0.200253 0.700032 0.958858 0.135209
H10   H     H_    0.882975 0.620078 0.328763 0.137649
H11   H     H_    0.920649 0.470673 0.878436 0.154022
H12   H     H_    0.712843 0.148515 0.998452 0.135497
H13   H     H_    0.818990 0.344489 0.061700 0.116956
H14   H     H_    0.050428 0.470138 0.166094 0.327163
H15   H     H_    0.086258 0.281685 0.728018 0.331660
H16   H     H_    0.710489 0.077824 0.751716 0.148929
H17   H     H_    0.808729 0.204655 0.566304 0.098161
H18   H     H_    0.577176 0.113808 0.287457 0.153879
H19   H     H_    0.577576 0.887996 0.287793 0.139866
H20   H     H_    0.290483 0.888308 0.663437 0.054823
H21   H     H_    0.394365 0.888234 0.820383 0.219039
H22   H     H_    0.290095 0.112386 0.666522 0.130003
N1    N     N_R   0.500790 0.500930 0.147930 -0.241015
N2    N     N_R   0.500790 0.500890 0.852020 -0.219245
O1    O     O_R   0.500000 0.319640 0.618810 -0.460678
O2    O     O_3   0.137726 0.347016 0.684547 -0.703252
O3    O     O_R   0.500010 0.319680 0.381230 -0.511334
O4    O     O_R   0.319640 0.499990 0.618790 -0.471450
O5    O     O_R   0.319650 0.500030 0.381210 -0.517196
O6    O     O_R   0.499990 0.680320 0.618770 -0.437287
O7    O     O_R   0.500000 0.680360 0.381190 -0.516416
O8    O     O_R   0.680350 0.499970 0.618790 -0.498790
O9    O     O_R   0.680360 0.500010 0.381210 -0.514843
O10   O     O_3   0.083610 0.526978 0.093994 -0.745278

loop_
_geom_bond_atom_site_label_1
_geom_bond_atom_site_label_2
_ccdc_geom_bond_type
C27   H8    S    
C25   C31   S    
C18   C21   A    
C7    C36   A    
C5    H16   S    
C19   C20   A    
H15   O2    S    
C26   C27   A    
C29   C30   A    
C18   C24   S    
C28   C29   A    
C10   H18   S    
C5    C6    A    
C18   N1    A    
Cu1   O4    S    
C34   C35   A    
C17   F1    S    
C21   N2    A    
H14   O10   S    
C28   C35   S    
C19   N1    A    
C8    C9    A    
Cu1   O1    S    
C26   H3    S    
C1    O1    A    
C9    C10   A    
C19   H2    S    
Cu2   O5    S    
C13   C14   A    
C6    H17   S    
C16   O7    A    
C11   H19   S    
C4    O5    A    
C20   H4    S    
C33   O2    S    
C4    C34   S    
C1    C9    S    
C4    O4    A    
C23   H10   S    
C29   O10   S    
C12   C26   A    
C23   C31   A    
C20   N2    A    
Cu1   Cu2   S    
C17   H22   S    
C31   C32   A    
C22   F2    S    
C33   C34   A    
C15   H21   S    
C16   O6    A    
C25   O8    A    
C36   H11   S    
C30   H9    S    
C23   C35   A    
C22   C24   S    
C13   C16   S    
Cu1   N2    S    
C12   H1    S    
Cu2   N1    S    
C2    C36   A    
C15   C17   S    
Cu2   O7    S    
C8    C14   A    
C7    C32   S    
C12   C30   A    
C24   H7    S    
C3    C5    A    
C2    H13   S    
C3    H12   S    
C6    C7    A    
C8    C17   S    
C24   H6    S    
C32   C33   A    
C2    C3    A    
C11   C13   A    
C1    O3    A    
C25   O9    A    
C10   C11   A    
C22   H5    S    
Cu2   O3    S    
Cu1   O8    S    
C27   C28   A    
C14   C15   S    
C21   C22   S    
C15   H20   S    
Cu1   O6    S    
Cu2   O9    S    
