data_mof_unit_2883.cif
_audit_creation_date              2012-12-11T15:43:11-0500
_audit_creation_method            fapswitch 2.2
_symmetry_space_group_name_H-M    P1
_symmetry_Int_Tables_number       1
_space_group_crystal_system       triclinic
_cell_length_a                    19.030514
_cell_length_b                    10.939339
_cell_length_c                    18.779119
_cell_angle_alpha                 90.083173
_cell_angle_beta                  89.680751
_cell_angle_gamma                 90.086868
_cell_volume                      3909.39110234

loop_
_atom_site_label
_atom_site_type_symbol
_atom_type_description
_atom_site_fract_x
_atom_site_fract_y
_atom_site_fract_z
_atom_type_partial_charge
C1    C     C_R   0.730157 0.375819 0.145741 0.546918
C2    C     C_R   0.022961 0.002344 0.027050 -0.138714
C3    C     C_R   0.765175 0.485416 0.563665 0.019943
C4    C     C_R   0.730110 0.380266 0.351600 0.550215
C5    C     C_R   0.269821 0.381548 0.648738 0.551583
C6    C     C_R   0.230110 0.880266 0.351600 0.550216
C7    C     C_R   0.769821 0.881547 0.648738 0.551581
C8    C     C_R   0.534723 0.156916 0.355369 0.544456
C9    C     C_R   0.469579 0.156911 0.647477 0.541878
C10   C     C_R   0.034723 0.656916 0.355369 0.544455
C11   C     C_R   0.969579 0.656911 0.647477 0.541879
C12   C     C_R   0.739530 0.977920 0.357044 0.546536
C13   C     C_R   0.533513 0.493435 0.953981 -0.129054
C14   C     C_R   0.271044 0.016894 0.638243 0.566409
C15   C     C_R   0.239530 0.477920 0.357044 0.546538
C16   C     C_R   0.771044 0.516895 0.638243 0.566409
C17   C     C_R   0.496623 0.161598 0.925614 -0.001315
C18   C     C_R   0.502468 0.169280 0.074816 -0.002057
C19   C     C_R   0.996621 0.661599 0.925615 -0.001314
C20   C     C_R   0.002467 0.669278 0.074816 -0.002057
C21   C     C_R   0.511833 0.273866 0.959556 0.011230
C22   C     C_R   0.508679 0.280233 0.034994 0.029961
C23   C     C_R   0.011829 0.773867 0.959558 0.011236
C24   C     C_R   0.522973 0.502344 0.027046 -0.138705
C25   C     C_R   0.008674 0.780232 0.034996 0.029966
C26   C     C_R   0.488537 0.060086 0.039430 -0.169075
C27   C     C_R   0.488297 0.055576 0.966541 -0.155409
C28   C     C_R   0.988538 0.560085 0.039430 -0.169075
C29   C     C_R   0.988296 0.555577 0.966541 -0.155411
C30   C     C_R   0.778825 0.842666 0.938078 0.014429
C31   C     C_R   0.247487 0.906980 0.073314 0.018552
C32   C     C_R   0.278830 0.342648 0.938082 0.014416
C33   C     C_R   0.747491 0.406986 0.073316 0.018558
C34   C     C_R   0.714597 0.818041 0.971531 0.007190
C35   C     C_R   0.277792 0.817308 0.029282 0.039392
C36   C     C_R   0.214599 0.318035 0.971532 0.007197
C37   C     C_R   0.288544 0.329156 0.861259 0.567351
C38   C     C_R   0.777791 0.317313 0.029284 0.039398
C39   C     C_R   0.704303 0.845160 0.042895 0.004337
C40   C     C_R   0.277947 0.829834 0.956089 0.007811
C41   C     C_R   0.204302 0.345164 0.042895 0.004345
C42   C     C_R   0.777947 0.329842 0.956090 0.007805
C43   C     C_R   0.825634 0.904013 0.052960 -0.157710
C44   C     C_R   0.206896 0.010698 0.968727 -0.138221
C45   C     C_R   0.325637 0.403999 0.052965 -0.157712
C46   C     C_R   0.706910 0.510721 0.968732 -0.138217
C47   C     C_R   0.835778 0.877319 0.980795 -0.157026
C48   C     C_R   0.230156 0.875817 0.145740 0.546918
C49   C     C_R   0.209462 0.001421 0.041848 -0.144040
C50   C     C_R   0.335784 0.377298 0.980800 -0.157031
C51   C     C_R   0.709476 0.501442 0.041853 -0.144042
C52   C     C_3   0.642401 0.858775 0.952051 -0.268313
C53   C     C_3   0.350486 0.765514 0.028518 -0.271253
C54   C     C_3   0.142405 0.358777 0.952046 -0.268306
C55   C     C_3   0.850483 0.265531 0.028520 -0.271274
C56   C     C_3   0.631252 0.888728 0.030132 -0.260881
C57   C     C_3   0.349447 0.776690 0.947832 -0.279582
C58   C     C_3   0.131254 0.388748 0.030125 -0.260870
C59   C     C_R   0.788540 0.829165 0.861255 0.567373
C60   C     C_3   0.849444 0.276711 0.947834 -0.279605
C61   C     C_R   0.757911 0.898436 0.083119 0.014834
C62   C     C_R   0.245857 0.930644 0.924901 0.021846
C63   C     C_R   0.257912 0.398435 0.083120 0.014834
C64   C     C_R   0.745861 0.430654 0.924904 0.021853
C65   C     C_R   0.531350 0.156474 0.146790 0.537970
C66   C     C_R   0.468958 0.155145 0.852999 0.532374
C67   C     C_R   0.031350 0.656474 0.146790 0.537969
C68   C     C_R   0.968957 0.655146 0.852999 0.532375
C69   C     C_R   0.507587 0.164218 0.580059 0.018919
C70   C     C_R   0.528671 0.380266 0.920350 -0.095477
C71   C     C_R   0.518985 0.163307 0.431023 0.019082
C72   C     C_R   0.007587 0.664218 0.580059 0.018918
C73   C     C_R   0.018984 0.663307 0.431023 0.019082
C74   C     C_R   0.524245 0.056401 0.543194 0.029696
C75   C     C_R   0.528341 0.056745 0.470288 0.045618
C76   C     C_R   0.024245 0.556401 0.543194 0.029696
C77   C     C_R   0.028341 0.556745 0.470288 0.045618
C78   C     C_R   0.515855 0.274859 0.468162 -0.168531
C79   C     C_R   0.512201 0.275472 0.542867 -0.167864
C80   C     C_R   0.015854 0.774859 0.468162 -0.168530
C81   C     C_R   0.510879 0.397333 0.067348 -0.087460
C82   C     C_R   0.012201 0.775472 0.542866 -0.167864
C83   C     C_3   0.490196 0.932532 0.542767 -0.271708
C84   C     C_3   0.492896 0.936001 0.462458 -0.277974
C85   C     C_3   0.990195 0.432532 0.542766 -0.271708
C86   C     C_3   0.992895 0.436002 0.462457 -0.277975
C87   C     C_R   0.748994 0.937223 0.581783 0.017877
C88   C     C_R   0.253463 0.934004 0.418020 0.017752
C89   C     C_R   0.248994 0.437223 0.581783 0.017877
C90   C     C_R   0.753463 0.434005 0.418020 0.017752
C91   C     C_R   0.796976 0.010803 0.544401 0.026791
C92   C     C_R   0.028664 0.880269 0.920353 -0.095478
C93   C     C_R   0.216812 0.032399 0.448484 0.022155
C94   C     C_R   0.296975 0.510802 0.544400 0.026791
C95   C     C_R   0.716812 0.532399 0.448484 0.022155
C96   C     C_R   0.793661 0.019573 0.471637 0.035134
C97   C     C_R   0.222130 0.056361 0.520581 0.020715
C98   C     C_R   0.293661 0.519572 0.471637 0.035133
C99   C     C_R   0.722130 0.556361 0.520581 0.020714
C100  C     C_R   0.686874 0.902825 0.471233 -0.150282
C101  C     C_R   0.305708 0.892276 0.532744 -0.167144
C102  C     C_R   0.186874 0.402825 0.471233 -0.150282
C103  C     C_R   0.010870 0.897331 0.067351 -0.087463
C104  C     C_R   0.805708 0.392276 0.532744 -0.167144
C105  C     C_R   0.689090 0.896665 0.545847 -0.154957
C106  C     C_R   0.301396 0.869088 0.460035 -0.169225
C107  C     C_R   0.189090 0.396666 0.545847 -0.154957
C108  C     C_R   0.801396 0.369088 0.460035 -0.169226
C109  C     C_3   0.875707 0.010307 0.542221 -0.269852
C110  C     C_3   0.139364 0.056069 0.449063 -0.267056
C111  C     C_3   0.375707 0.510310 0.542221 -0.269852
C112  C     C_3   0.639364 0.556068 0.449063 -0.267056
C113  C     C_R   0.742113 0.967235 0.148055 0.545240
C114  C     C_R   0.033502 0.993437 0.953985 -0.129066
C115  C     C_R   0.258038 0.969810 0.852447 0.549329
C116  C     C_R   0.242113 0.467236 0.148055 0.545241
C117  C     C_R   0.758038 0.469811 0.852447 0.549328
C118  C     C_3   0.871415 0.019983 0.462171 -0.278878
C119  C     C_3   0.144550 0.074603 0.528201 -0.265007
C120  C     C_3   0.371415 0.519986 0.462171 -0.278878
C121  C     C_3   0.644550 0.574603 0.528201 -0.265007
C122  C     C_R   0.742947 0.956079 0.433180 0.018927
C123  C     C_R   0.265175 0.985416 0.563665 0.019943
C124  C     C_R   0.242947 0.456079 0.433180 0.018928
Cr1   Cr    Cr6+3 0.772010 0.169670 0.250090 1.006361
Cr2   Cr    Cr6+3 0.383290 0.010760 0.749160 0.999607
Cr3   Cr    Cr6+3 0.116710 0.510760 0.250840 1.008064
Cr4   Cr    Cr6+3 0.883290 0.510760 0.749160 0.999607
Cr5   Cr    Cr6+3 0.227990 0.169670 0.749910 1.000049
Cr6   Cr    Cr6+3 0.272010 0.669670 0.250090 1.006362
Cr7   Cr    Cr6+3 0.727990 0.669670 0.749910 1.000048
Cr8   Cr    Cr6+3 0.615000 0.323260 0.249260 1.001672
Cr9   Cr    Cr6+3 0.385000 0.323260 0.750740 0.994052
Cr10  Cr    Cr6+3 0.115000 0.823260 0.249260 1.001672
Cr11  Cr    Cr6+3 0.885000 0.823260 0.750740 0.994050
Cr12  Cr    Cr6+3 0.616710 0.010760 0.250840 1.008063
H1    H     H_    0.482871 0.974760 0.068072 0.129948
H2    H     H_    0.026785 0.364180 0.438859 0.130662
H3    H     H_    0.436192 0.934082 0.563643 0.167806
H4    H     H_    0.526785 0.864180 0.438859 0.130662
H5    H     H_    0.524093 0.860600 0.566069 0.121060
H6    H     H_    0.440392 0.944408 0.437416 0.141700
H7    H     H_    0.024092 0.360600 0.566069 0.121060
H8    H     H_    0.940392 0.444408 0.437416 0.141700
H9    H     H_    0.643237 0.862625 0.443364 0.125329
H10   H     H_    0.337240 0.832193 0.565215 0.130139
H11   H     H_    0.143236 0.362627 0.443364 0.125330
H12   H     H_    0.479574 0.967365 0.942301 0.136708
H13   H     H_    0.837240 0.332193 0.565216 0.130140
H14   H     H_    0.647439 0.852343 0.575073 0.117943
H15   H     H_    0.330102 0.792198 0.438506 0.135576
H16   H     H_    0.147438 0.352344 0.575073 0.117943
H17   H     H_    0.830102 0.292198 0.438507 0.135577
H18   H     H_    0.897327 0.921586 0.559455 0.167115
H19   H     H_    0.107528 0.975105 0.435426 0.163076
H20   H     H_    0.397328 0.421590 0.559455 0.167115
H21   H     H_    0.607529 0.475104 0.435426 0.163076
H22   H     H_    0.891888 0.108030 0.441262 0.133045
H23   H     H_    0.982873 0.474758 0.068071 0.129947
H24   H     H_    0.129141 0.167032 0.545031 0.126918
H25   H     H_    0.391887 0.608034 0.441262 0.133045
H26   H     H_    0.629140 0.667031 0.545031 0.126917
H27   H     H_    0.890698 0.937224 0.433790 0.137238
H28   H     H_    0.118764 0.000291 0.559217 0.150875
H29   H     H_    0.390700 0.437229 0.433790 0.137238
H30   H     H_    0.618765 0.500290 0.559217 0.150875
H31   H     H_    0.538412 0.376953 0.863598 0.135611
H32   H     H_    0.499470 0.410835 0.123159 0.132429
H33   H     H_    0.038406 0.876959 0.863601 0.135613
H34   H     H_    0.979571 0.467367 0.942301 0.136709
H35   H     H_    0.999461 0.910829 0.123162 0.132428
H36   H     H_    0.044516 0.074709 0.923068 0.105602
H37   H     H_    0.024445 0.090997 0.052708 0.100311
H38   H     H_    0.544530 0.574705 0.923063 0.105606
H39   H     H_    0.524459 0.590998 0.052704 0.100309
H40   H     H_    0.869043 0.941261 0.082922 0.130142
H41   H     H_    0.177836 0.086563 0.947040 0.146112
H42   H     H_    0.369046 0.441247 0.082927 0.130139
H43   H     H_    0.677856 0.586595 0.947046 0.146112
H44   H     H_    0.886706 0.893225 0.957140 0.153542
H45   H     H_    0.513079 0.360170 0.439543 0.115053
H46   H     H_    0.180163 0.066696 0.073731 0.138306
H47   H     H_    0.386712 0.393200 0.957146 0.153536
H48   H     H_    0.680183 0.566724 0.073737 0.138296
H49   H     H_    0.108973 0.282024 0.933265 0.123926
H50   H     H_    0.851583 0.169240 0.047092 0.157291
H51   H     H_    0.608971 0.782021 0.933265 0.123926
H52   H     H_    0.351582 0.669218 0.047091 0.157288
H53   H     H_    0.642504 0.940941 0.917225 0.156726
H54   H     H_    0.389283 0.826809 0.054443 0.122709
H55   H     H_    0.142514 0.440937 0.917214 0.156730
H56   H     H_    0.506823 0.361518 0.570683 0.117489
H57   H     H_    0.889275 0.326825 0.054445 0.122715
H58   H     H_    0.591329 0.829472 0.056382 0.128801
H59   H     H_    0.348272 0.686664 0.920295 0.153136
H60   H     H_    0.091323 0.329507 0.056377 0.128805
H61   H     H_    0.848273 0.186695 0.920298 0.153138
H62   H     H_    0.898861 0.092573 0.567887 0.130440
H63   H     H_    0.125549 0.140581 0.419545 0.125502
H64   H     H_    0.398859 0.592577 0.567888 0.130439
H65   H     H_    0.625548 0.640580 0.419545 0.125501
H66   H     H_    0.625858 0.988321 0.040420 0.167145
H67   H     H_    0.013078 0.860171 0.439542 0.115053
H68   H     H_    0.388128 0.842728 0.926284 0.152193
H69   H     H_    0.125867 0.488347 0.040406 0.167131
H70   H     H_    0.888118 0.342750 0.926288 0.152204
H71   H     H_    0.006823 0.861518 0.570683 0.117489
H72   H     H_    0.936192 0.434083 0.563643 0.167807
O1    O     O_R   0.787520 0.042810 0.170440 -0.529080
O2    O     O_R   0.454050 0.051210 0.669140 -0.529019
O3    O     O_R   0.045950 0.551210 0.330860 -0.519039
O4    O     O_R   0.954050 0.551210 0.669140 -0.529019
O5    O     O_R   0.681390 0.959480 0.325510 -0.508591
O6    O     O_R   0.318610 0.959480 0.674490 -0.508497
O7    O     O_R   0.181390 0.459480 0.325510 -0.508591
O8    O     O_R   0.818610 0.459480 0.674490 -0.508497
O9    O     O_3   0.667900 0.167900 0.250060 -0.242595
O10   O     O_3   0.332100 0.167900 0.749940 -0.278892
O11   O     O_3   0.167900 0.667900 0.250060 -0.242596
O12   O     O_R   0.212480 0.042810 0.829560 -0.535450
O13   O     O_3   0.832100 0.667900 0.749940 -0.278890
O14   O     O_R   0.765640 0.292100 0.175020 -0.500304
O15   O     O_R   0.234360 0.292100 0.824980 -0.501272
O16   O     O_R   0.265640 0.792100 0.175020 -0.500302
O17   O     O_R   0.734360 0.792100 0.824980 -0.501284
O18   O     O_R   0.670190 0.408840 0.168540 -0.521684
O19   O     O_R   0.329810 0.408840 0.831460 -0.518663
O20   O     O_R   0.170190 0.908840 0.168540 -0.521687
O21   O     O_R   0.829810 0.908840 0.831460 -0.518677
O22   O     O_R   0.556620 0.251410 0.175160 -0.509228
O23   O     O_R   0.287520 0.542810 0.170440 -0.529082
O24   O     O_R   0.443380 0.251410 0.824840 -0.524504
O25   O     O_R   0.056620 0.751410 0.175160 -0.509228
O26   O     O_R   0.943380 0.751410 0.824840 -0.524502
O27   O     O_R   0.545960 0.049620 0.170320 -0.525925
O28   O     O_R   0.454040 0.049620 0.829680 -0.524605
O29   O     O_R   0.045960 0.549620 0.170320 -0.525924
O30   O     O_R   0.954040 0.549620 0.829680 -0.524605
O31   O     O_R   0.681390 0.958010 0.176690 -0.498191
O32   O     O_R   0.318610 0.958010 0.823310 -0.496680
O33   O     O_R   0.181390 0.458010 0.176690 -0.498188
O34   O     O_R   0.712480 0.542810 0.829560 -0.535447
O35   O     O_R   0.818610 0.458010 0.823310 -0.496683
O36   O     O_R   0.787510 0.044390 0.330970 -0.520502
O37   O     O_R   0.212490 0.044390 0.669030 -0.515330
O38   O     O_R   0.287510 0.544390 0.330970 -0.520502
O39   O     O_R   0.712490 0.544390 0.669030 -0.515330
O40   O     O_R   0.765630 0.293570 0.323840 -0.509248
O41   O     O_R   0.234370 0.293570 0.676160 -0.513276
O42   O     O_R   0.265630 0.793570 0.323840 -0.509248
O43   O     O_R   0.734370 0.793570 0.676160 -0.513277
O44   O     O_R   0.670190 0.410420 0.329080 -0.525963
O45   O     O_R   0.556610 0.252880 0.323980 -0.509412
O46   O     O_R   0.329810 0.410420 0.670920 -0.519171
O47   O     O_R   0.170190 0.910420 0.329080 -0.525961
O48   O     O_R   0.829810 0.910420 0.670920 -0.519172
O49   O     O_R   0.443390 0.252880 0.676020 -0.510664
O50   O     O_R   0.056610 0.752880 0.323980 -0.509412
O51   O     O_R   0.943390 0.752880 0.676020 -0.510664
O52   O     O_R   0.545950 0.051210 0.330860 -0.519038

loop_
_geom_bond_atom_site_label_1
_geom_bond_atom_site_label_2
_ccdc_geom_bond_type
C3    C104  A    
C44   C49   A    
C8    O52   A    
C87   C91   A    
C7    O48   A    
C35   C53   S    
C120  H25   S    
C8    O45   A    
C20   C67   S    
C50   H47   S    
C18   C26   A    
C59   O21   A    
C106  H15   S    
C74   C83   S    
C72   C76   A    
C26   H1    S    
Cr2   O32   S    
C85   H7    S    
C83   H3    S    
Cr6   O38   S    
C119  H28   S    
C1    C33   S    
C90   C95   A    
Cr5   O37   S    
Cr1   O14   S    
C68   O26   A    
C18   C65   S    
C98   C124  A    
C121  H30   S    
Cr8   O44   S    
C100  C105  A    
Cr5   O10   S    
C65   O22   A    
C57   H59   S    
C32   C36   A    
C96   C118  S    
C28   C29   A    
C53   H52   S    
C9    C69   S    
C41   C58   S    
C38   C42   A    
Cr5   O12   S    
C9    O49   A    
C95   C112  S    
C2    H37   S    
C115  O32   A    
C102  H11   S    
C10   C73   S    
C95   C99   A    
C75   C84   S    
C80   H67   S    
C56   H66   S    
C20   C25   A    
C94   C98   A    
Cr4   O30   S    
Cr10  O11   S    
Cr12  O27   S    
C66   O24   A    
C94   C111  S    
C6    C88   S    
C14   O6    A    
Cr1   O36   S    
Cr8   O9    S    
C73   C80   A    
C55   H50   S    
C89   C94   A    
C16   O8    A    
C4    O40   A    
C110  C119  S    
C110  H19   S    
Cr2   O6    S    
C91   C96   A    
C88   C93   A    
C52   C56   S    
C81   H32   S    
C7    C87   S    
C38   C55   S    
C83   C84   S    
C27   H12   S    
C12   O36   A    
C54   H49   S    
Cr3   O33   S    
Cr12  O52   S    
C121  H26   S    
C10   O50   A    
C7    O43   A    
C14   C123  S    
C52   H51   S    
C84   H6    S    
Cr11  O48   S    
Cr2   O28   S    
C53   H54   S    
C9    O2    A    
Cr5   O15   S    
C93   C110  S    
C99   C121  S    
C14   O37   A    
C117  O34   A    
Cr9   O49   S    
C40   C62   A    
C36   C54   S    
C18   C22   A    
C55   C60   S    
C103  H35   S    
C5    C89   S    
C109  H62   S    
C15   O38   A    
C12   O5    A    
C31   C49   A    
C102  C124  A    
C46   H43   S    
C82   H71   S    
C92   H33   S    
Cr7   O43   S    
C120  H29   S    
C4    C90   S    
Cr6   O42   S    
C69   C74   A    
C13   H38   S    
C39   C61   A    
Cr5   O41   S    
C101  H10   S    
C1    O14   A    
C54   H55   S    
C30   C34   A    
Cr3   O11   S    
C34   C39   A    
C17   C27   A    
C22   C81   A    
C5    O41   A    
C30   C47   A    
C102  C107  A    
C63   C116  S    
C76   C77   A    
C4    O44   A    
C15   O7    A    
C51   H48   S    
Cr2   O2    S    
C42   C60   S    
C83   H5    S    
C53   C57   S    
C11   C72   S    
C25   C103  A    
Cr12  O9    S    
C20   C28   A    
C58   H69   S    
C44   C62   A    
C85   C86   S    
C46   C51   A    
C67   O29   A    
C28   H23   S    
C17   C21   A    
C64   C117  S    
C13   C24   A    
C66   O28   A    
C111  C120  S    
Cr10  O20   S    
C104  H13   S    
C97   C119  S    
C19   C23   A    
C24   C81   A    
C47   H44   S    
C105  H14   S    
C6    O42   A    
Cr8   O18   S    
C11   O4    A    
C88   C106  A    
C43   H40   S    
Cr7   O17   S    
C93   C97   A    
Cr11  O21   S    
C39   C56   S    
C87   C105  A    
C1    O18   A    
C113  O31   A    
C100  H9    S    
Cr10  O50   S    
C30   C59   S    
C89   C107  A    
C26   C27   A    
Cr11  O26   S    
C19   C68   S    
Cr7   O13   S    
C46   C64   A    
C32   C37   S    
C109  H18   S    
C32   C50   A    
Cr7   O39   S    
C45   H42   S    
Cr4   O8    S    
C56   H58   S    
C107  H16   S    
Cr8   O45   S    
C80   C82   A    
C15   C124  S    
C55   H57   S    
C5    O46   A    
C77   C86   S    
Cr3   O29   S    
C37   O15   A    
C31   C48   S    
C116  O23   A    
C61   C113  S    
C29   H34   S    
C31   C35   A    
C115  O12   A    
C69   C79   A    
C41   C63   A    
C19   C29   A    
C117  O35   A    
C104  C108  A    
C119  H24   S    
C43   C61   A    
Cr12  O5    S    
C54   C58   S    
C16   O39   A    
Cr3   O3    S    
C101  C106  A    
C116  O33   A    
C67   O25   A    
Cr11  O13   S    
Cr1   O1    S    
C40   C57   S    
C112  C121  S    
C110  H63   S    
C78   C79   A    
Cr11  O51   S    
C111  H64   S    
C65   O27   A    
Cr9   O19   S    
C43   C47   A    
Cr1   O40   S    
Cr7   O34   S    
Cr8   O22   S    
Cr4   O13   S    
Cr10  O47   S    
C44   H41   S    
C112  H65   S    
C42   C64   A    
C98   C120  S    
C109  C118  S    
C33   C51   A    
C48   O16   A    
C34   C52   S    
Cr9   O10   S    
C96   C122  A    
C21   C70   A    
C79   H56   S    
C78   H45   S    
C91   C109  S    
Cr6   O16   S    
C35   C40   A    
Cr9   O24   S    
C113  O1    A    
C62   C115  S    
C97   C123  A    
C101  C123  A    
C68   O30   A    
C70   H31   S    
Cr4   O4    S    
C71   C75   A    
C2    C114  A    
C60   H70   S    
Cr9   O46   S    
C92   C114  A    
Cr6   O23   S    
C114  H36   S    
C48   O20   A    
C118  H27   S    
C57   H68   S    
C58   H60   S    
Cr10  O25   S    
C45   C63   A    
C6    O47   A    
C86   H8    S    
C100  C122  A    
C52   H53   S    
C23   C25   A    
C60   H61   S    
Cr6   O11   S    
C59   O17   A    
C2    C103  A    
C118  H22   S    
C86   H2    S    
C90   C108  A    
C49   H46   S    
Cr3   O7    S    
C3    C99   A    
C10   O3    A    
C108  H17   S    
C111  H20   S    
C12   C122  S    
C74   C75   A    
C84   H4    S    
C13   C70   A    
Cr12  O31   S    
C36   C41   A    
C17   C66   S    
Cr4   O35   S    
C73   C77   A    
C23   C92   A    
C112  H21   S    
C33   C38   A    
C45   C50   A    
C21   C22   A    
C24   H39   S    
C37   O19   A    
C76   C85   S    
C71   C78   A    
C72   C82   A    
C3    C16   S    
Cr2   O10   S    
C85   H72   S    
C11   O51   A    
C8    C71   S    
Cr1   O9    S    
