data_mof_unit_4180.cif
_audit_creation_date              2012-12-10T17:46:23-0500
_audit_creation_method            fapswitch 2.2
_symmetry_space_group_name_H-M    P1
_symmetry_Int_Tables_number       1
_space_group_crystal_system       triclinic
_cell_length_a                    20.748064
_cell_length_b                    21.242476
_cell_length_c                    14.797971
_cell_angle_alpha                 90.00558
_cell_angle_beta                  127.875961
_cell_angle_gamma                 90.015716
_cell_volume                      5148.13488723

loop_
_atom_site_label
_atom_site_type_symbol
_atom_type_description
_atom_site_fract_x
_atom_site_fract_y
_atom_site_fract_z
_atom_type_partial_charge
C1    C     C_R   0.602128 0.913290 0.630501 0.803784
C2    C     C_R   0.397873 0.086711 0.369501 0.803785
C3    C     C_R   0.397008 0.913876 0.368420 0.809734
C4    C     C_R   0.602991 0.086124 0.631579 0.809709
C5    C     C_R   0.102640 0.413641 0.631145 0.803849
C6    C     C_R   0.897361 0.586360 0.368856 0.803833
C7    C     C_R   0.897726 0.413351 0.369318 0.809167
C8    C     C_R   0.102272 0.586650 0.630680 0.809117
C9    C     C_R   0.283495 0.804232 0.875811 -0.218506
C10   C     C_R   0.716522 0.195764 0.124196 -0.218511
C11   C     C_R   0.685707 0.785912 0.092709 -0.219343
C12   C     C_R   0.314342 0.214118 0.907343 -0.219327
C13   C     C_R   0.824320 0.279220 0.917868 -0.216976
C14   C     C_R   0.175619 0.720822 0.082065 -0.216962
C15   C     C_R   0.221442 0.306084 0.127594 -0.221369
C16   C     C_R   0.778527 0.693908 0.872387 -0.221370
C17   C     C_R   0.322774 0.004214 0.669319 -0.346476
C18   C     C_R   0.677223 0.995801 0.330677 -0.346492
C19   C     C_R   0.822733 0.503348 0.669285 -0.346060
C20   C     C_R   0.177265 0.496670 0.330713 -0.346073
C21   C     C_R   0.351152 0.002685 0.605036 0.188769
C22   C     C_R   0.648847 0.997327 0.394962 0.188778
C23   C     C_R   0.851102 0.501243 0.605009 0.189036
C24   C     C_R   0.148897 0.498781 0.394990 0.189040
C25   C     C_R   0.488289 0.998755 0.775155 -0.023166
C26   C     C_R   0.511711 0.001237 0.224845 -0.023179
C27   C     C_R   0.988319 0.499529 0.775174 -0.023079
C28   C     C_R   0.011680 0.500451 0.224826 -0.023069
C29   C     C_R   0.462198 0.000119 0.845305 -0.017576
C30   C     C_R   0.537800 0.999878 0.154693 -0.017573
C31   C     C_R   0.962212 0.500471 0.845312 -0.017924
C32   C     C_R   0.037786 0.499509 0.154686 -0.017926
C33   C     C_R   0.377318 0.002866 0.788405 0.142413
C34   C     C_R   0.622679 0.997139 0.211591 0.142420
C35   C     C_R   0.877321 0.502974 0.788401 0.142990
C36   C     C_R   0.122677 0.497019 0.211597 0.142995
C37   C     C_R   0.516250 0.999118 0.968616 0.084408
C38   C     C_R   0.483747 0.000878 0.031382 0.084398
C39   C     C_R   0.016250 0.499160 0.968616 0.083863
C40   C     C_R   0.983747 0.500815 0.031382 0.083864
C41   C     C_R   0.398434 0.003566 0.968729 -0.250824
C42   C     C_R   0.601563 0.996434 0.031268 -0.250827
C43   C     C_R   0.898463 0.503974 0.968746 -0.247391
C44   C     C_R   0.101535 0.496003 0.031253 -0.247390
C45   C     C_R   0.346627 0.004501 0.849996 -0.193164
C46   C     C_R   0.653369 0.995505 0.150000 -0.193186
C47   C     C_R   0.846649 0.504914 0.850006 -0.193573
C48   C     C_R   0.153348 0.495074 0.149992 -0.193561
C49   C     C_R   0.662480 0.135055 0.706476 -0.050859
C50   C     C_R   0.337512 0.864950 0.293513 -0.050862
C51   C     C_R   0.345271 0.140401 0.302635 -0.052212
C52   C     C_R   0.654732 0.859602 0.697368 -0.052201
C53   C     C_R   0.155363 0.640121 0.698086 -0.047270
C54   C     C_R   0.844631 0.359883 0.301908 -0.047222
C55   C     C_R   0.839455 0.636447 0.295867 -0.053157
C56   C     C_R   0.160553 0.363559 0.704143 -0.053150
C57   C     C_R   0.760789 0.214726 0.749005 -0.196797
C58   C     C_R   0.239167 0.785303 0.250947 -0.196786
C59   C     C_R   0.271913 0.234078 0.284046 -0.196668
C60   C     C_R   0.728073 0.765918 0.715947 -0.196675
C61   C     C_R   0.233884 0.731269 0.720705 -0.199063
C62   C     C_R   0.766127 0.268726 0.279300 -0.199078
C63   C     C_R   0.748659 0.720929 0.260730 -0.195578
C64   C     C_R   0.251387 0.279100 0.739316 -0.195599
C65   C     C_R   0.706332 0.167427 0.677648 -0.136988
C66   C     C_R   0.293641 0.832590 0.322322 -0.136980
C67   C     C_R   0.314419 0.179703 0.343846 -0.166135
C68   C     C_R   0.685577 0.820297 0.656153 -0.166094
C69   C     C_R   0.190274 0.677296 0.660256 -0.142622
C70   C     C_R   0.809730 0.322702 0.339746 -0.142619
C71   C     C_R   0.800698 0.671988 0.329556 -0.163291
C72   C     C_R   0.199337 0.328033 0.670478 -0.163210
C73   C     C_R   0.674182 0.150000 0.807626 -0.257914
C74   C     C_R   0.325817 0.850003 0.192368 -0.257913
C75   C     C_R   0.332355 0.155432 0.200816 -0.247188
C76   C     C_R   0.667653 0.844575 0.799193 -0.247197
C77   C     C_R   0.165378 0.656877 0.797269 -0.252073
C78   C     C_R   0.834603 0.343137 0.202712 -0.252078
C79   C     C_R   0.825306 0.649992 0.192619 -0.253113
C80   C     C_R   0.174688 0.350006 0.807379 -0.253146
C81   C     C_R   0.729441 0.197019 0.881898 0.091583
C82   C     C_R   0.270542 0.802995 0.118081 0.091580
C83   C     C_R   0.294025 0.211852 0.142484 0.092279
C84   C     C_R   0.705978 0.788153 0.857523 0.092283
C85   C     C_R   0.204982 0.712906 0.856068 0.091420
C86   C     C_R   0.795001 0.287107 0.143911 0.091424
C87   C     C_R   0.773012 0.699102 0.121332 0.091897
C88   C     C_R   0.226994 0.300905 0.878679 0.091895
C89   C     C_R   0.771887 0.230284 0.849843 0.157734
C90   C     C_R   0.228073 0.769744 0.150112 0.157732
C91   C     C_R   0.262037 0.250685 0.184423 0.158398
C92   C     C_R   0.737949 0.749313 0.815571 0.158395
C93   C     C_R   0.241141 0.749513 0.817745 0.157348
C94   C     C_R   0.758862 0.250489 0.182251 0.157354
C95   C     C_R   0.735389 0.735265 0.157974 0.158726
C96   C     C_R   0.264644 0.264757 0.842062 0.158728
C97   C     C_R   0.741405 0.213328 0.984639 0.067924
C98   C     C_R   0.258584 0.786684 0.015343 0.067923
C99   C     C_R   0.286499 0.230524 0.043936 0.066867
C100  C     C_R   0.713513 0.769487 0.956081 0.066876
C101  C     C_R   0.210166 0.733114 0.952094 0.067085
C102  C     C_R   0.789806 0.266908 0.047872 0.067090
C103  C     C_R   0.759401 0.714587 0.017120 0.067879
C104  C     C_R   0.240594 0.285417 0.982883 0.067877
C105  C     C_R   0.292596 0.822454 0.973070 -0.216189
C106  C     C_R   0.707416 0.177546 0.026932 -0.216192
C107  C     C_R   0.675162 0.803072 0.994077 -0.217092
C108  C     C_R   0.324877 0.196953 0.005966 -0.217095
C109  C     C_R   0.832853 0.297637 0.014552 -0.216956
C110  C     C_R   0.167092 0.702402 0.985386 -0.216960
C111  C     C_R   0.210477 0.323160 0.028565 -0.216020
C112  C     C_R   0.789493 0.676833 0.971418 -0.216023
Cu1   Cu    Cu3+1 0.526640 0.000000 0.436960 0.962538
Cu2   Cu    Cu3+1 0.473360 0.000000 0.563040 0.962542
Cu3   Cu    Cu3+1 0.026640 0.500000 0.436960 0.961803
Cu4   Cu    Cu3+1 0.973360 0.500000 0.563040 0.961805
H1    H     H_    0.310256 0.833145 0.846191 0.152386
H2    H     H_    0.689777 0.166842 0.153831 0.152387
H3    H     H_    0.655624 0.813233 0.119015 0.152864
H4    H     H_    0.344448 0.186810 0.881058 0.152861
H5    H     H_    0.858120 0.304263 0.895191 0.151388
H6    H     H_    0.141797 0.695792 0.104720 0.151387
H7    H     H_    0.197730 0.336562 0.159808 0.152699
H8    H     H_    0.802223 0.663422 0.840161 0.152703
H9    H     H_    0.369489 0.005066 0.009126 0.130037
H10   H     H_    0.630507 0.994937 0.990871 0.130029
H11   H     H_    0.869552 0.505830 0.009173 0.129054
H12   H     H_    0.130445 0.494147 0.990825 0.129058
H13   H     H_    0.362630 0.874560 0.175315 0.151773
H14   H     H_    0.637385 0.125431 0.824695 0.151772
H15   H     H_    0.647000 0.878072 0.830912 0.143183
H16   H     H_    0.353014 0.121939 0.169098 0.143190
H17   H     H_    0.858074 0.375103 0.172855 0.146868
H18   H     H_    0.141897 0.624918 0.827123 0.146887
H19   H     H_    0.141937 0.377453 0.828251 0.148369
H20   H     H_    0.858038 0.622533 0.171730 0.148362
H21   H     H_    0.302641 0.842799 0.401027 0.189710
H22   H     H_    0.697326 0.157219 0.598938 0.189720
H23   H     H_    0.675168 0.830669 0.576510 0.193202
H24   H     H_    0.324829 0.169330 0.423490 0.193224
H25   H     H_    0.817442 0.334558 0.417025 0.187086
H26   H     H_    0.182569 0.665436 0.582983 0.187164
H27   H     H_    0.187876 0.336927 0.589733 0.195855
H28   H     H_    0.812174 0.663101 0.410314 0.195866
H29   H     H_    0.260674 0.759437 0.690363 0.142791
H30   H     H_    0.739349 0.240551 0.309652 0.142786
H31   H     H_    0.719997 0.748435 0.288973 0.144977
H32   H     H_    0.280072 0.251606 0.711094 0.144972
H33   H     H_    0.793332 0.239877 0.724428 0.142395
H34   H     H_    0.206606 0.760162 0.275507 0.142400
H35   H     H_    0.248378 0.263962 0.317140 0.144996
H36   H     H_    0.751599 0.736028 0.682846 0.145010
H37   H     H_    0.324833 0.866065 0.011077 0.142958
H38   H     H_    0.675194 0.133929 0.988938 0.142958
H39   H     H_    0.634785 0.842307 0.948326 0.146079
H40   H     H_    0.365271 0.157728 0.051736 0.146084
H41   H     H_    0.875578 0.335329 0.062908 0.147129
H42   H     H_    0.124347 0.664724 0.937007 0.147138
H43   H     H_    0.179817 0.367386 0.991867 0.141025
H44   H     H_    0.820137 0.632601 0.008101 0.141028
H45   H     H_    0.281340 0.006621 0.805626 0.148558
H46   H     H_    0.718656 0.993391 0.194368 0.148557
H47   H     H_    0.781371 0.507183 0.805645 0.147621
H48   H     H_    0.218627 0.492812 0.194352 0.147625
H49   H     H_    0.448099 0.002906 0.188073 0.127036
H50   H     H_    0.551901 0.997077 0.811928 0.127027
H51   H     H_    0.948039 0.501347 0.188028 0.127247
H52   H     H_    0.051960 0.498619 0.811972 0.127250
H53   H     H_    0.257541 0.006562 0.625806 0.147977
H54   H     H_    0.742455 0.993464 0.374187 0.147973
H55   H     H_    0.757460 0.504817 0.625748 0.147808
H56   H     H_    0.242538 0.495219 0.374249 0.147799
N1    N     N_R   0.433280 0.000000 0.657760 -0.217945
N2    N     N_R   0.566720 0.000000 0.342240 -0.217950
N3    N     N_R   0.933280 0.500000 0.657760 -0.218202
N4    N     N_R   0.066720 0.500000 0.342240 -0.218202
O1    O     O_R   0.600040 0.935040 0.546740 -0.568535
O2    O     O_R   0.399960 0.064960 0.453260 -0.568562
O3    O     O_R   0.399960 0.935040 0.453260 -0.560922
O4    O     O_R   0.600040 0.064960 0.546740 -0.560952
O5    O     O_R   0.100040 0.435040 0.546740 -0.567295
O6    O     O_R   0.899960 0.564960 0.453260 -0.567381
O7    O     O_R   0.899960 0.435040 0.453260 -0.561867
O8    O     O_R   0.100040 0.564960 0.546740 -0.561949
O9    O     O_R   0.555010 0.935070 0.653220 -0.596145
O10   O     O_R   0.444990 0.064930 0.346780 -0.596140
O11   O     O_R   0.444990 0.935070 0.346780 -0.598268
O12   O     O_R   0.555010 0.064930 0.653220 -0.598261
O13   O     O_R   0.055010 0.435070 0.653220 -0.597255
O14   O     O_R   0.944990 0.564930 0.346780 -0.597232
O15   O     O_R   0.944990 0.435070 0.346780 -0.597731
O16   O     O_R   0.055010 0.564930 0.653220 -0.597708
C113  C     C_2   0.710749 0.994694 0.519948 0.882236
O17   O     O_2   0.738232 0.043392 0.575208 -0.619533
O18   O     O_R   0.744332 0.936700 0.573164 -0.781693
H57   H     H_    0.788008 0.940831 0.658959 0.329652
C114  C     C_2   0.289251 0.005340 0.480050 0.882232
O19   O     O_2   0.261773 0.956653 0.424754 -0.619508
O20   O     O_R   0.255663 0.063344 0.426877 -0.781728
H58   H     H_    0.211988 0.059231 0.341079 0.329656
C115  C     C_2   0.210932 0.499854 0.520038 0.882272
O21   O     O_2   0.236964 0.550195 0.570104 -0.615698
O22   O     O_R   0.246528 0.443551 0.579129 -0.784585
H59   H     H_    0.290188 0.450315 0.664314 0.329549
C116  C     C_2   0.789065 0.500227 0.479958 0.882252
O23   O     O_2   0.763056 0.449908 0.429798 -0.615610
O24   O     O_R   0.753439 0.556552 0.420977 -0.784645
H60   H     H_    0.709775 0.549832 0.335781 0.329564

loop_
_geom_bond_atom_site_label_1
_geom_bond_atom_site_label_2
_ccdc_geom_bond_type
C88   C104  A    
C72   H27   S    
Cu1   O1    S    
O22   H59   S    
C88   C96   A    
C26   H49   S    
C14   H6    S    
C29   C33   A    
C70   H25   S    
C33   C45   A    
C115  O21   D    
C5    C56   S    
C53   C77   A    
C6    C55   S    
Cu4   O13   S    
C109  H41   S    
C76   C84   A    
C79   C87   A    
Cu3   O8    S    
C107  H39   S    
C116  O23   D    
C99   C108  A    
C62   C70   A    
Cu3   N4    S    
C80   H19   S    
C57   C89   A    
C6    O6    A    
C10   H2    S    
C32   C36   A    
C71   H28   S    
C19   H55   S    
C102  C109  A    
C1    C52   S    
C50   C74   A    
C60   H36   S    
C76   H15   S    
C17   H53   S    
C23   N3    A    
C10   C94   A    
C9    C105  A    
Cu3   Cu4   S    
Cu1   O11   S    
Cu4   O7    S    
C63   C95   A    
Cu2   O12   S    
C30   C38   A    
C74   H13   S    
C42   C46   A    
C63   H31   S    
C37   C42   A    
C114  O20   S    
C61   H29   S    
C14   C90   A    
C13   C109  A    
C86   C94   A    
C28   H51   S    
C59   C67   A    
C12   H4    S    
Cu3   O14   S    
C85   C93   A    
C58   C66   A    
Cu2   N1    S    
C20   C24   A    
C106  H38   S    
C57   H33   S    
C13   H5    S    
C22   C113  S    
C34   C46   A    
C43   C47   A    
C97   C102  A    
C52   C68   A    
C27   H52   S    
C81   C89   A    
C78   C86   A    
C32   C40   A    
C99   C104  A    
Cu4   O16   S    
C53   C69   A    
O20   H58   S    
Cu2   O3    S    
C83   C99   A    
C64   H32   S    
C115  O22   S    
C7    O15   A    
C15   H7    S    
C17   C33   A    
C77   C85   A    
C4    O4    A    
C45   H45   S    
C73   C81   A    
C22   N2    A    
C3    C50   S    
C5    O5    A    
C116  O24   S    
C25   C29   A    
C24   C115  S    
C82   C98   A    
C27   C31   A    
O24   H60   S    
C84   C100  A    
C75   C83   A    
C15   C111  A    
C28   C32   A    
C44   C48   A    
C64   C96   A    
C38   C41   A    
C11   H3    S    
C27   N3    A    
C39   C40   A    
C12   C108  A    
C30   C34   A    
C28   N4    A    
C51   C67   A    
C56   C72   A    
C69   H26   S    
C100  C103  A    
C17   C21   A    
C3    O3    A    
Cu4   O6    S    
C103  C112  A    
C19   C23   A    
C2    O10   A    
C37   C38   A    
C79   H20   S    
C41   H9    S    
C87   C95   A    
C55   C79   A    
C98   C105  A    
C54   C70   A    
C105  H37   S    
C57   C65   A    
C6    O14   A    
C113  O18   S    
C59   C91   A    
C82   C90   A    
C84   C92   A    
C67   H24   S    
C18   C34   A    
C1    O9    A    
C49   C65   A    
C58   C90   A    
C87   C103  A    
C65   H22   S    
C20   H56   S    
C63   C71   A    
C16   C92   A    
C21   N1    A    
C62   C94   A    
C11   C107  A    
C49   C73   A    
C10   C106  A    
C77   H18   S    
C97   C106  A    
C43   H11   S    
C86   C102  A    
C9    C93   A    
Cu3   O5    S    
C51   C75   A    
C85   C101  A    
C75   H16   S    
C16   C112  A    
Cu1   Cu2   S    
C74   C82   A    
C11   C95   A    
C14   C110  A    
C26   N2    A    
C73   H14   S    
C44   H12   S    
C100  C107  A    
C112  H44   S    
Cu4   N3    S    
C13   C89   A    
C18   C22   A    
Cu2   O2    S    
C111  H43   S    
C52   C76   A    
C110  H42   S    
C8    C53   S    
C104  C111  A    
C5    O13   A    
C50   C66   A    
C26   C30   A    
C39   C44   A    
C48   H48   S    
C59   H35   S    
C25   H50   S    
C98   C101  A    
C83   C91   A    
C1    O1    A    
C108  H40   S    
C56   C80   A    
C7    O7    A    
C4    C49   S    
C61   C69   A    
C40   C43   A    
C4    O12   A    
C101  C110  A    
Cu3   O15   S    
C80   C88   A    
Cu2   O9    S    
C19   C35   A    
Cu1   N2    S    
C8    O8    A    
C66   H21   S    
C81   C97   A    
C8    O16   A    
C47   H47   S    
Cu1   O10   S    
C31   C35   A    
C21   C114  S    
C31   C39   A    
C36   C48   A    
C61   C93   A    
C64   C72   A    
C16   H8    S    
C114  O19   D    
C78   H17   S    
C55   C71   A    
C2    C51   S    
C42   H10   S    
C15   C91   A    
O18   H57   S    
C20   C36   A    
C25   N1    A    
Cu1   O4    S    
C60   C68   A    
C113  O17   D    
C62   H30   S    
C18   H54   S    
C29   C37   A    
C41   C45   A    
C12   C96   A    
C68   H23   S    
C2    O2    A    
C7    C54   S    
C35   C47   A    
C60   C92   A    
C3    O11   A    
C23   C116  S    
C9    H1    S    
C58   H34   S    
C46   H46   S    
C54   C78   A    
C24   N4    A    
