data_mof_unit_4931.cif
_audit_creation_date              2012-12-11T14:13:12-0500
_audit_creation_method            fapswitch 2.2
_symmetry_space_group_name_H-M    P1
_symmetry_Int_Tables_number       1
_space_group_crystal_system       triclinic
_cell_length_a                    8.188256
_cell_length_b                    15.30182
_cell_length_c                    17.356567
_cell_angle_alpha                 95.101905
_cell_angle_beta                  94.244749
_cell_angle_gamma                 100.211572
_cell_volume                      2122.80757328

loop_
_atom_site_label
_atom_site_type_symbol
_atom_type_description
_atom_site_fract_x
_atom_site_fract_y
_atom_site_fract_z
_atom_type_partial_charge
Ba1   Ba    Ba6+2 0.849890 0.543710 0.463630 1.664266
Ba2   Ba    Ba6+2 0.339940 0.456360 0.536380 1.666522
C1    C     C_3   0.698005 0.880491 0.269365 -0.368052
C2    C     C_3   0.655657 0.787189 0.294596 0.351591
C3    C     C_3   0.431800 0.337042 0.300385 0.316206
C4    C     C_3   0.404332 0.319174 0.212333 -0.407074
C5    C     C_3   0.054035 0.262204 0.743498 0.443106
C6    C     C_3   0.051639 0.234495 0.825433 -0.350053
C7    C     C_3   0.573689 0.226333 0.786449 0.402969
C8    C     C_3   0.494317 0.163854 0.843217 -0.371398
C9    C     C_R   0.301661 0.532682 0.276175 -0.294173
C10   C     C_R   0.140083 0.487871 0.253082 0.067487
C11   C     C_R   0.079748 0.482185 0.174079 -0.123748
C12   C     C_3   0.118151 0.736724 0.252182 0.352936
C13   C     C_R   0.179235 0.523265 0.118962 -0.056515
C14   C     C_R   0.345204 0.567630 0.143579 -0.095529
C15   C     C_R   0.406643 0.569419 0.222649 -0.032121
C16   C     C_R   0.110065 0.525806 0.828227 -0.150015
C17   C     C_R   0.054312 0.512267 0.748282 0.075310
C18   C     C_R   0.788021 0.430865 0.778907 -0.057556
C19   C     C_R   0.839214 0.447177 0.859601 0.348719
C20   C     C_R   0.005090 0.492466 0.884525 -0.067928
C21   C     C_1   0.066040 0.507041 0.967456 0.051622
C22   C     C_1   0.114931 0.514817 0.036533 0.042777
C23   C     C_3   0.103204 0.764228 0.170304 -0.356243
C24   C     C_R   0.897594 0.460994 0.724804 -0.357514
C25   C     C_R   0.760286 0.230639 0.523903 -0.246392
C26   C     C_R   0.858292 0.172071 0.550136 -0.002681
C27   C     C_R   0.798937 0.079400 0.536964 -0.091329
C28   C     C_R   0.646500 0.043385 0.491426 0.007307
C29   C     C_R   0.558913 0.106194 0.458598 -0.084636
C30   C     C_R   0.613044 0.198801 0.476933 0.080369
C31   C     C_R   0.417175 0.909119 0.441492 -0.151092
C32   C     C_R   0.343043 0.819236 0.439445 0.019468
C33   C     C_R   0.587191 0.787860 0.510890 0.054076
C34   C     C_3   0.209602 0.738975 0.645993 0.254323
C35   C     C_R   0.660181 0.879467 0.516108 -0.123406
C36   C     C_R   0.576614 0.942913 0.481400 -0.003729
C37   C     C_R   0.429945 0.758829 0.471689 -0.272498
C38   C     C_3   0.149147 0.817673 0.687311 0.256639
C39   C     C_3   0.942204 0.269476 0.367308 0.315272
C40   C     C_3   0.916134 0.168788 0.344819 0.259721
C41   C     C_3   0.740142 0.650913 0.697891 0.385836
C42   C     C_3   0.715194 0.664509 0.784061 0.291008
H1    H     H_    0.729332 0.785828 0.350662 0.086662
H2    H     H_    0.242911 0.851918 0.735413 0.018322
H3    H     H_    0.036129 0.791820 0.715537 0.129933
H4    H     H_    0.830216 0.287787 0.390624 -0.008334
H5    H     H_    0.048605 0.288399 0.412326 0.010992
H6    H     H_    0.929535 0.135283 0.398304 -0.013528
H7    H     H_    0.017613 0.152628 0.309547 -0.001008
H8    H     H_    0.868703 0.640561 0.690847 -0.090374
H9    H     H_    0.651416 0.589943 0.672748 0.004441
H10   H     H_    0.833263 0.897728 0.262412 0.146206
H11   H     H_    0.587432 0.678999 0.788897 0.048339
H12   H     H_    0.724192 0.601786 0.810084 -0.021651
H13   H     H_    0.520827 0.773181 0.302879 -0.067573
H14   H     H_    0.665757 0.929883 0.313797 0.098251
H15   H     H_    0.314816 0.350719 0.322957 0.001379
H16   H     H_    0.532445 0.396408 0.315356 0.063942
H17   H     H_    0.301206 0.261395 0.195380 0.110834
H18   H     H_    0.371828 0.378355 0.186787 0.063331
H19   H     H_    0.519970 0.304450 0.188695 0.121292
H20   H     H_    0.626334 0.883709 0.213148 0.109438
H21   H     H_    0.124089 0.709542 0.127908 0.111182
H22   H     H_    0.145256 0.325654 0.745215 0.067968
H23   H     H_    0.927528 0.273621 0.724503 -0.098833
H24   H     H_    0.012311 0.286806 0.864484 0.032226
H25   H     H_    0.963181 0.170624 0.826027 0.147756
H26   H     H_    0.177708 0.226107 0.847514 0.128720
H27   H     H_    0.696537 0.262640 0.813664 -0.136281
H28   H     H_    0.585727 0.124871 0.866437 0.086960
H29   H     H_    0.383477 0.116755 0.813822 0.117508
H30   H     H_    0.027500 0.673988 0.254284 0.096345
H31   H     H_    0.451493 0.202109 0.892594 0.095597
H32   H     H_    0.232702 0.564813 0.846733 0.114879
H33   H     H_    0.956385 0.444742 0.155744 0.081055
H34   H     H_    0.348980 0.535255 0.336350 0.072918
H35   H     H_    0.854807 0.451035 0.663632 0.081385
H36   H     H_    0.342867 0.951452 0.414784 0.066582
H37   H     H_    0.872493 0.036973 0.563084 0.067954
H38   H     H_    0.780333 0.899136 0.548551 0.118974
H39   H     H_    0.246389 0.724465 0.265143 -0.068987
H40   H     H_    0.447553 0.085833 0.419587 0.060486
H41   H     H_    0.371459 0.689368 0.469647 0.070250
H42   H     H_    0.804285 0.301925 0.535840 0.046417
H43   H     H_    0.976822 0.778623 0.156110 0.150101
H44   H     H_    0.197545 0.824882 0.165580 0.109075
H45   H     H_    0.328663 0.761881 0.621361 -0.044096
H46   H     H_    0.117544 0.706001 0.598134 0.079173
O1    O     O_2   0.849470 0.455720 0.314640 -0.459644
O2    O     O_3   0.713073 0.727400 0.663402 -0.622411
O3    O     O_3   0.082950 0.804865 0.304557 -0.604305
O4    O     O_2   0.340240 0.544310 0.685400 -0.450703
O5    O     O_3   0.079710 0.546180 0.591070 -0.507027
O6    O     O_3   0.542640 0.381210 0.637190 -0.444847
O7    O     O_3   0.241208 0.684608 0.703030 -0.660111
O8    O     O_3   0.602990 0.392320 0.460230 -0.481878
O9    O     O_3   0.114850 0.335810 0.598580 -0.485384
O10   O     O_2   0.204652 0.185120 0.555114 -0.460206
O11   O     O_3   0.101247 0.195144 0.693770 -0.559219
O12   O     O_3   0.110000 0.453900 0.408940 -0.499624
O13   O     O_3   0.586730 0.607760 0.539780 -0.492742
O14   O     O_2   0.329480 0.280220 0.460820 -0.465824
O15   O     O_3   0.476118 0.261550 0.330390 -0.624154
O16   O     O_2   0.463785 0.451936 0.771163 -0.468997
O17   O     O_3   0.463739 0.284394 0.768360 -0.571055
O18   O     O_3   0.647080 0.618870 0.362820 -0.501835
O19   O     O_2   0.745588 0.561229 0.228177 -0.460732
O20   O     O_3   0.972748 0.313101 0.301314 -0.661723
O21   O     O_3   0.695615 0.725391 0.237509 -0.579571
O22   O     O_2   0.860230 0.719810 0.539220 -0.454869
O23   O     O_3   0.074870 0.664270 0.401430 -0.491033
O24   O     O_2   0.002954 0.821149 0.447274 -0.482419
P1    P     P_3+3 0.017890 0.428700 0.326140 0.974634
P2    P     P_3+3 0.687140 0.705880 0.561850 1.013029
P3    P     P_3+3 0.126205 0.779130 0.399261 0.947453
P4    P     P_3+3 0.171830 0.571380 0.673870 0.982521
P5    P     P_3+3 0.067730 0.220404 0.598100 0.996057
P6    P     P_3+3 0.623299 0.617596 0.261797 0.989124
P7    P     P_3+3 0.506733 0.280956 0.431765 0.983919
P8    P     P_3+3 0.569377 0.385057 0.739649 1.022912
O25   O     O_3   0.104894 0.875689 0.634576 -0.645418
C43   C     C_3   0.247914 0.934741 0.618902 0.244950
H47   H     H_    0.333362 0.898863 0.587925 0.021101
H48   H     H_    0.316467 0.972917 0.672922 0.059760
C44   C     C_3   0.191515 0.000235 0.568375 -0.252047
H49   H     H_    0.097581 0.966794 0.520988 0.131799
H50   H     H_    0.297443 0.036833 0.541781 0.075134
H51   H     H_    0.135479 0.045807 0.606589 0.156088
O26   O     O_3   0.753014 0.136761 0.308802 -0.639181
C45   C     C_3   0.755294 0.118538 0.227804 0.299881
H52   H     H_    0.826845 0.064443 0.214487 0.020110
H53   H     H_    0.810969 0.179449 0.201577 0.062579
C46   C     C_3   0.577458 0.087414 0.191231 -0.337455
H54   H     H_    0.503868 0.140877 0.201560 0.145699
H55   H     H_    0.577754 0.070817 0.127656 0.051122
H56   H     H_    0.517467 0.027295 0.216957 0.121218
O27   O     O_3   0.838807 0.735101 0.821133 -0.646956
C47   C     C_3   0.805788 0.757018 0.898706 0.253610
H57   H     H_    0.670872 0.754558 0.905549 0.022143
H58   H     H_    0.868219 0.827203 0.916484 0.081833
C48   C     C_3   0.877839 0.698116 0.953697 -0.363731
H59   H     H_    0.010782 0.698171 0.944785 0.146000
H60   H     H_    0.869040 0.724111 0.014710 0.109426
H61   H     H_    0.806580 0.628753 0.943899 0.161160
C49   C     C_2   0.597903 0.169965 0.714944 0.775623
O28   O     O_2   0.698736 0.119856 0.717344 -0.656837
O29   O     O_R   0.498052 0.171351 0.647000 -0.712021
H62   H     H_    0.513577 0.123025 0.606680 0.290297
C50   C     C_2   0.450521 0.612860 0.087160 0.861610
O30   O     O_2   0.596349 0.605333 0.085788 -0.609511
O31   O     O_R   0.381825 0.663886 0.034886 -0.778266
H63   H     H_    0.464934 0.690706 0.999054 0.300771
O32   O     O_3   0.717662 0.437201 0.911435 -0.633865
C51   C     C_3   0.740190 0.372298 0.962413 0.264968
H64   H     H_    0.870014 0.360796 0.972039 -0.003458
H65   H     H_    0.663606 0.307776 0.938995 0.052598
C52   C     C_3   0.678585 0.398840 0.040038 -0.291544
H66   H     H_    0.543358 0.400692 0.032407 0.125134
H67   H     H_    0.699039 0.349699 0.081423 0.034076
H68   H     H_    0.746978 0.466005 0.064079 0.172204

loop_
_geom_bond_atom_site_label_1
_geom_bond_atom_site_label_2
_ccdc_geom_bond_type
C34   H45   S    
C38   H3    S    
C24   H35   S    
C46   H56   S    
C39   C40   S    
O18   P6    S    
C49   O28   D    
C47   C48   S    
Ba2   P4    S    
C46   H54   S    
C3    O15   S    
C1    H20   S    
C38   H2    S    
C6    H25   S    
C35   C36   A    
Ba1   O23   S    
C12   H30   S    
C4    H17   S    
Ba2   O5    S    
C33   C35   A    
C47   H58   S    
C16   C17   A    
Ba1   O22   S    
C28   C29   A    
C1    H10   S    
C41   H8    S    
Ba2   O12   S    
C13   C14   A    
C23   H43   S    
C28   C36   S    
C46   H55   S    
Ba1   Ba2   S    
O7    P4    S    
C17   C24   A    
C34   C38   S    
O12   P1    S    
C15   P6    S    
C41   H9    S    
C9    C15   A    
C52   H66   S    
C17   P4    S    
C14   C15   A    
C2    H13   S    
C21   C22   T    
C52   H67   S    
C40   O26   S    
Ba1   P2    S    
Ba2   O14   S    
C14   C50   S    
C7    C8    S    
Ba1   O13   S    
C12   O3    S    
C18   P8    S    
C40   H7    S    
C10   P1    S    
C32   P3    S    
C50   O30   D    
Ba1   O1    S    
C19   C20   A    
O3    P3    S    
C12   H39   S    
C39   H5    S    
C2    H1    S    
O5    P4    S    
O27   C47   S    
C11   H33   S    
C3    H15   S    
C32   C37   A    
O11   P5    S    
O25   C43   S    
C23   H21   S    
C47   H57   S    
C48   H61   S    
C45   H52   S    
O14   P7    D    
O9    P5    S    
C7    C49   S    
C23   H44   S    
C29   H40   S    
O21   P6    S    
C51   H64   S    
C4    H19   S    
C25   H42   S    
C33   C37   A    
C41   C42   S    
C44   H50   S    
C27   H37   S    
C27   C28   A    
C9    H34   S    
C8    H31   S    
C42   H12   S    
C29   C30   A    
Ba2   O4    S    
Ba1   O5    S    
O16   P8    D    
C31   C32   A    
C19   O32   S    
C52   H68   S    
O15   P7    S    
C33   P2    S    
O10   P5    D    
C10   C11   A    
O2    P2    S    
C34   O7    S    
C40   H6    S    
C43   C44   S    
O23   P3    S    
C13   C22   S    
C2    O21   S    
Ba2   O9    S    
C6    H24   S    
C42   O27   S    
C39   O20   S    
C11   C13   A    
C35   H38   S    
C37   H41   S    
C1    C2    S    
O22   P2    D    
C43   H48   S    
C34   H46   S    
C48   H60   S    
C38   O25   S    
C26   C27   A    
C16   H32   S    
C3    H16   S    
C49   O29   S    
C25   C30   A    
C16   C20   A    
C30   P7    S    
C51   C52   S    
C7    H27   S    
C26   P5    S    
Ba1   O8    S    
C9    C10   A    
C31   H36   S    
C44   H49   S    
C7    O17   S    
C6    H26   S    
C41   O2    S    
O6    P8    S    
C4    H18   S    
Ba2   O6    S    
O13   P2    S    
C44   H51   S    
O29   H62   S    
C5    H22   S    
O4    P4    D    
C42   H11   S    
C3    C4    S    
C18   C24   A    
Ba2   O13   S    
C45   C46   S    
O20   P1    S    
C51   H65   S    
C8    H29   S    
C39   H4    S    
O1    P1    D    
O8    P7    S    
C50   O31   S    
C12   C23   S    
O26   C45   S    
O24   P3    D    
C5    C6    S    
Ba1   O18   S    
C5    H23   S    
C1    H14   S    
C18   C19   A    
Ba2   O8    S    
C45   H53   S    
C5    O11   S    
O32   C51   S    
C20   C21   S    
C31   C36   A    
Ba1   P1    S    
O17   P8    S    
O31   H63   S    
Ba1   O12   S    
C48   H59   S    
O19   P6    D    
C43   H47   S    
C25   C26   A    
C8    H28   S    
