data_mof_unit_2357.cif
_audit_creation_date              2012-12-11T14:43:34-0500
_audit_creation_method            fapswitch 2.2
_symmetry_space_group_name_H-M    P1
_symmetry_Int_Tables_number       1
_space_group_crystal_system       triclinic
_cell_length_a                    20.159134
_cell_length_b                    7.183359
_cell_length_c                    18.014596
_cell_angle_alpha                 89.919616
_cell_angle_beta                  93.173175
_cell_angle_gamma                 89.899469
_cell_volume                      2604.69235711

loop_
_atom_site_label
_atom_site_type_symbol
_atom_type_description
_atom_site_fract_x
_atom_site_fract_y
_atom_site_fract_z
_atom_type_partial_charge
O1    O     O_R   0.564840 0.505290 0.579830 -0.540417
O2    O     O_R   0.435160 0.005290 0.420170 -0.539694
O3    O     O_R   0.556720 0.179930 0.409350 -0.527555
O4    O     O_R   0.443280 0.679930 0.590650 -0.528983
C1    C     C_R   0.564677 0.343436 0.378701 0.862909
C2    C     C_R   0.435092 0.843350 0.620998 0.861591
O5    O     O_R   0.572280 0.175810 0.578530 -0.524249
O6    O     O_R   0.427720 0.675810 0.421470 -0.524004
O7    O     O_R   0.450830 0.001920 0.590540 -0.539064
O8    O     O_R   0.549170 0.501920 0.409460 -0.539401
C3    C     C_R   0.589022 0.340668 0.605246 0.842334
C4    C     C_R   0.411022 0.840718 0.394765 0.843833
O9    O     O_3   0.460130 0.338030 0.503750 -0.390690
O10   O     O_3   0.539870 0.838030 0.496250 -0.391019
V1    V     V_3+5 0.507400 0.064560 0.499310 1.643530
V2    V     V_3+5 0.492600 0.564560 0.500690 1.640893
C5    C     C_R   0.140784 0.916514 0.166388 -0.195043
C6    C     C_R   0.858735 0.416666 0.834149 -0.196456
C7    C     C_R   0.358100 0.838091 0.331155 -0.215166
C8    C     C_R   0.642152 0.338668 0.668715 -0.213732
C9    C     C_R   0.326962 0.848798 0.198043 0.368900
C10   C     C_R   0.673552 0.351580 0.801603 0.368833
C11   C     C_R   0.375835 0.836928 0.257424 0.184265
C12   C     C_R   0.624545 0.339424 0.742502 0.183653
C13   C     C_R   0.288697 0.822463 0.348142 0.387033
C14   C     C_R   0.711683 0.326216 0.651612 0.381181
C15   C     C_R   0.239785 0.896035 0.286999 -0.122643
C16   C     C_R   0.760521 0.398631 0.712752 -0.119189
C17   C     C_R   0.257931 0.871007 0.211945 -0.120525
C18   C     C_R   0.742347 0.370837 0.787671 -0.120839
C19   C     C_R   0.206350 0.860883 0.153896 0.235025
C20   C     C_R   0.793537 0.355235 0.845952 0.233935
C21   C     C_R   0.123787 0.971318 0.237686 0.146680
C22   C     C_R   0.876159 0.474731 0.763021 0.156222
C23   C     C_R   0.172541 0.977575 0.299083 0.390103
C24   C     C_R   0.827703 0.480448 0.701248 0.380463
C25   C     C_R   0.388786 0.825527 0.825115 0.406567
C26   C     C_R   0.609515 0.327998 0.172996 0.417722
C27   C     C_R   0.394915 0.848025 0.690246 -0.261060
C28   C     C_R   0.604268 0.348202 0.308499 -0.254893
C29   C     C_R   0.070607 0.988675 0.743438 0.239802
C30   C     C_R   0.927479 0.493607 0.256420 0.239246
C31   C     C_R   0.106791 0.012021 0.680212 0.405490
C32   C     C_R   0.890108 0.526255 0.318547 0.401943
C33   C     C_R   0.176248 0.992640 0.684605 0.334960
C34   C     C_R   0.820656 0.501989 0.312994 0.331961
C35   C     C_R   0.212763 0.929004 0.747630 -0.028744
C36   C     C_R   0.785657 0.430970 0.250094 -0.000376
C37   C     C_R   0.175986 0.913826 0.812424 -0.116662
C38   C     C_R   0.823223 0.411340 0.186072 -0.122630
C39   C     C_R   0.284478 0.881434 0.748255 -0.025510
C40   C     C_R   0.714170 0.382505 0.249162 -0.017227
C41   C     C_R   0.317869 0.861674 0.820616 -0.157721
C42   C     C_R   0.680588 0.366723 0.176776 -0.169813
C43   C     C_R   0.278888 0.878796 0.884995 0.416524
C44   C     C_R   0.720301 0.386269 0.112560 0.420351
C45   C     C_R   0.210333 0.891799 0.879449 -0.125374
C46   C     C_R   0.789462 0.387551 0.118740 -0.128239
C47   C     C_R   0.325745 0.861387 0.682856 0.222942
C48   C     C_R   0.673404 0.361122 0.314778 0.222059
C49   C     C_R   0.425405 0.830058 0.761117 0.262149
C50   C     C_R   0.573391 0.330186 0.237697 0.255886
C51   C     C_R   0.105035 0.933192 0.810901 -0.164447
C52   C     C_R   0.894162 0.432088 0.188666 -0.159400
H1    H     H_    0.184949 0.897307 0.930008 0.151636
H2    H     H_    0.815393 0.387767 0.068170 0.150894
O11   O     O_R   0.950790 0.256670 0.090520 -0.517007
O12   O     O_R   0.049210 0.756670 0.909480 -0.515166
O13   O     O_R   0.927720 0.590370 0.921470 -0.531178
O14   O     O_R   0.072280 0.090370 0.078530 -0.532945
C53   C     C_R   0.908950 0.422193 0.897914 0.800374
C54   C     C_R   0.089912 0.922224 0.103068 0.807401
O15   O     O_R   0.943270 0.586180 0.090640 -0.556453
O16   O     O_R   0.056730 0.086180 0.909360 -0.554993
O17   O     O_R   0.064850 0.759970 0.079840 -0.531555
O18   O     O_R   0.935150 0.259970 0.920160 -0.530319
C55   C     C_R   0.932635 0.421261 0.119133 0.708651
C56   C     C_R   0.067407 0.921515 0.880957 0.712043
O19   O     O_3   0.039850 0.428050 0.996240 -0.377566
O20   O     O_3   0.960150 0.928050 0.003760 -0.377911
V3    V     V_3+5 0.992610 0.701540 0.000700 1.578796
V4    V     V_3+5 0.007390 0.201540 0.999300 1.577616
Br1   Br    Br    0.215046 0.705539 0.066260 -0.462671
Br2   Br    Br    0.785333 0.175639 0.930319 -0.453007
Br3   Br    Br    0.307869 0.817581 0.572409 -0.436997
Br4   Br    Br    0.692573 0.312296 0.424301 -0.458890
O21   O     O_3   0.002310 0.023791 0.737035 -0.615785
H3    H     H_    0.984337 0.028519 0.785784 0.323771
O22   O     O_3   0.995722 0.528517 0.263926 -0.615129
H4    H     H_    0.014161 0.538101 0.215426 0.322852
O23   O     O_3   0.206973 0.008340 0.618994 -0.556890
H5    H     H_    0.233836 0.137096 0.617107 0.318614
O24   O     O_3   0.790091 0.487034 0.377362 -0.594002
H6    H     H_    0.764258 0.584049 0.398543 0.355945
O25   O     O_3   0.075245 0.053692 0.611822 -0.575934
H7    H     H_    0.027132 0.032387 0.616054 0.362924
O26   O     O_3   0.920550 0.584612 0.387088 -0.571253
H8    H     H_    0.968756 0.544927 0.384272 0.359114
Br5   Br    Br    0.032309 0.048903 0.252963 -0.493129
Br6   Br    Br    0.967726 0.554110 0.748465 -0.496134
Br7   Br    Br    0.359925 0.868977 0.100398 -0.272965
Br8   Br    Br    0.642310 0.383312 0.899190 -0.274595
O27   O     O_3   0.163270 0.115594 0.355274 -0.582323
H9    H     H_    0.113697 0.115497 0.368242 0.352768
O28   O     O_3   0.836963 0.622359 0.645519 -0.582784
H10   H     H_    0.886565 0.619993 0.632568 0.351001
Br9   Br    Br    0.468153 0.809996 0.238053 -0.379066
Br10  Br    Br    0.532437 0.314932 0.762620 -0.375058
O29   O     O_3   0.275410 0.722502 0.413718 -0.593569
H11   H     H_    0.227374 0.713476 0.429866 0.353395
O30   O     O_3   0.725265 0.230981 0.585241 -0.594209
H12   H     H_    0.773444 0.223768 0.569531 0.352359
Br11  Br    Br    0.520454 0.806223 0.772223 -0.343959
Br12  Br    Br    0.478349 0.303458 0.227954 -0.346276
O31   O     O_3   0.305203 0.906978 0.955780 -0.592125
H13   H     H_    0.298516 0.045810 0.966151 0.326573
O32   O     O_3   0.694430 0.432161 0.041549 -0.591677
H14   H     H_    0.700755 0.572117 0.036053 0.324192
O33   O     O_3   0.425936 0.780877 0.891043 -0.559053
H15   H     H_    0.404941 0.811965 0.935017 0.400188
O34   O     O_3   0.569362 0.323098 0.104866 -0.554723
H16   H     H_    0.589059 0.367845 0.060738 0.397969

loop_
_geom_bond_atom_site_label_1
_geom_bond_atom_site_label_2
_ccdc_geom_bond_type
O21   H3    S    
O24   H6    S    
C28   C48   A    
C15   C17   A    
C38   C52   A    
C44   O32   S    
O25   H7    S    
O1    C3    A    
O2    C4    A    
C2    O7    A    
O26   H8    S    
C28   C50   A    
C35   C37   A    
O5    C3    A    
C5    C21   A    
C37   C51   A    
O12   V3    S    
C50   Br12  S    
C23   O27   S    
C53   O18   A    
O31   H13   S    
C19   Br1   S    
C52   C55   S    
C33   C35   A    
O13   C53   A    
C40   C48   A    
C46   H2    S    
C8    C12   A    
C40   C42   A    
C25   O33   S    
C22   Br6   S    
C12   Br10  S    
C13   O29   S    
C25   C41   A    
C36   C38   A    
C11   Br9   S    
O6    V2    S    
C29   C31   A    
C30   C32   A    
O16   V4    S    
C54   O17   A    
C20   Br2   S    
O15   V3    S    
C32   C34   A    
C34   C36   A    
C41   C43   A    
O12   C56   A    
C29   O21   S    
C42   C44   A    
C3    C8    S    
C38   C46   A    
O20   V4    S    
O18   V4    S    
O23   H5    S    
O19   V3    S    
C48   Br4   S    
O17   V3    S    
C35   C39   A    
O5    V1    S    
C15   C23   A    
C9    C17   A    
C21   Br5   S    
O4    V2    S    
C7    C11   A    
C47   Br3   S    
O11   C55   A    
O19   V4    S    
C6    C22   A    
C32   O26   S    
C31   O25   S    
C26   C42   A    
O6    C4    A    
C27   C47   A    
O1    V2    S    
O2    V1    S    
C31   C33   A    
O34   H16   S    
O11   V4    S    
O4    C2    A    
C43   C45   A    
C49   Br11  S    
C5    C19   A    
C10   C12   A    
C1    C28   S    
C6    C20   A    
C29   C51   A    
C30   C52   A    
C27   C49   A    
O3    V1    S    
O14   V4    S    
C6    C53   S    
C10   C18   A    
O30   H12   S    
C24   O28   S    
O10   V1    S    
C45   H1    S    
O20   V3    S    
O3    C1    A    
C37   C45   A    
C25   C49   A    
O33   H15   S    
C13   C15   A    
O28   H10   S    
C14   C16   A    
C10   Br8   S    
C30   O22   S    
C9    C11   A    
O7    V1    S    
C9    Br7   S    
C1    O8    A    
C17   C19   A    
O8    V2    S    
O29   H11   S    
C18   C20   A    
C43   O31   S    
C34   O24   S    
C8    C14   A    
C4    C7    S    
C16   C18   A    
C21   C23   A    
C44   C46   A    
C22   C24   A    
C33   O23   S    
C26   O34   S    
O13   V3    S    
C7    C13   A    
C36   C40   A    
C39   C47   A    
C16   C24   A    
C5    C54   S    
O16   C56   A    
O9    V2    S    
O27   H9    S    
O15   C55   A    
C2    C27   S    
O14   C54   A    
C39   C41   A    
O22   H4    S    
O32   H14   S    
C14   O30   S    
C26   C50   A    
C51   C56   S    
