data_mof_unit_4034.cif
_audit_creation_date              2012-12-11T15:20:41-0500
_audit_creation_method            fapswitch 2.2
_symmetry_space_group_name_H-M    P1
_symmetry_Int_Tables_number       1
_space_group_crystal_system       triclinic
_cell_length_a                    12.997944
_cell_length_b                    13.039647
_cell_length_c                    15.294593
_cell_angle_alpha                 116.847043
_cell_angle_beta                  63.311896
_cell_angle_gamma                 97.264845
_cell_volume                      2056.94602718

loop_
_atom_site_label
_atom_site_type_symbol
_atom_type_description
_atom_site_fract_x
_atom_site_fract_y
_atom_site_fract_z
_atom_type_partial_charge
C1    C     C_R   0.013502 0.835053 0.038505 -0.106137
C2    C     C_R   0.320885 0.534111 0.776980 -0.128681
C3    C     C_R   0.258958 0.421858 0.053626 -0.139641
C4    C     C_R   0.700827 0.403440 0.207478 -0.097474
C5    C     C_R   0.984968 0.301108 0.696825 -0.137292
C6    C     C_R   0.362275 0.444640 0.985788 0.149303
C7    C     C_R   0.924915 0.206412 0.696844 0.056645
C8    C     C_R   0.330184 0.457018 0.674343 0.095783
C9    C     C_R   0.037454 0.143079 0.013153 0.050820
C10   C     C_R   0.938892 0.044804 0.422265 -0.157655
C11   C     C_R   0.929219 0.140502 0.516500 -0.172839
C12   C     C_R   0.707968 0.421623 0.300708 0.043161
C13   C     C_R   0.888026 0.130363 0.613886 0.146534
C14   C     C_R   0.830912 0.034309 0.621748 -0.199189
C15   C     C_R   0.839571 0.938902 0.527443 -0.126097
C16   C     C_R   0.755855 0.519543 0.893067 -0.160034
C17   C     C_R   0.907281 0.939603 0.425915 0.166742
C18   C     C_R   0.639494 0.429108 0.482372 -0.239613
C19   C     C_R   0.543797 0.440099 0.577079 -0.152129
C20   C     C_R   0.437831 0.408852 0.574240 0.056245
C21   C     C_R   0.435544 0.341798 0.473439 -0.322406
C22   C     C_R   0.532050 0.328592 0.377967 0.754695
C23   C     C_R   0.663215 0.458846 0.926002 0.157704
C24   C     C_R   0.629757 0.385641 0.384392 -0.056808
C25   C     C_2   0.474643 0.399898 0.955400 -0.187992
C26   C     C_2   0.568510 0.437453 0.897672 -0.202861
C27   C     C_2   0.856300 0.963294 0.065290 -0.218692
C28   C     C_R   0.945231 0.720866 0.316466 0.708181
C29   C     C_2   0.842624 0.050209 0.161302 -0.082453
C30   C     C_R   0.676543 0.422095 0.991581 -0.113293
C31   C     C_R   0.032902 0.821252 0.222601 -0.243129
C32   C     C_R   0.804025 0.481413 0.300680 -0.031365
C33   C     C_R   0.907965 0.747965 0.948187 -0.132263
C34   C     C_R   0.956857 0.831820 0.326113 -0.128909
C35   C     C_R   0.927398 0.854457 0.015661 0.123840
C36   C     C_R   0.339423 0.528154 0.963814 -0.112237
C37   C     C_R   0.903876 0.200490 0.791495 -0.126779
C38   C     C_R   0.218927 0.441033 0.683479 -0.127986
C39   C     C_R   0.066427 0.249892 0.072573 -0.133970
C40   C     C_R   0.971492 0.166167 0.972183 -0.090037
F1    F     F_    0.524935 0.268061 0.282199 -0.736891
F2    F     F_    0.894013 0.688305 0.397609 -0.762425
H1    H     H_    0.055698 0.901460 0.080231 0.086573
H2    H     H_    0.966149 0.216814 0.509028 0.110672
H3    H     H_    0.789900 0.027511 0.697780 0.118342
H4    H     H_    0.645520 0.349579 0.173414 0.177500
H5    H     H_    0.801566 0.863204 0.535010 0.192576
H6    H     H_    0.716062 0.466166 0.489724 0.149910
H7    H     H_    0.551426 0.482799 0.652792 0.118357
H8    H     H_    0.357468 0.306988 0.467965 0.153621
H9    H     H_    0.476923 0.354876 0.999233 0.131296
H10   H     H_    0.566483 0.476951 0.849339 0.124443
H11   H     H_    0.806813 0.970378 0.026652 0.145887
H12   H     H_    0.847012 0.146052 0.824895 0.088010
H13   H     H_    0.886151 0.046813 0.206261 0.113128
H14   H     H_    0.778573 0.548033 0.830844 0.094767
H15   H     H_    0.630180 0.360110 0.020077 0.092149
H16   H     H_    0.074589 0.889426 0.202712 0.131908
H17   H     H_    0.845913 0.493052 0.351062 0.152020
H18   H     H_    0.846079 0.731008 0.915308 0.104046
H19   H     H_    0.399775 0.579445 0.929347 0.086119
H20   H     H_    0.193013 0.389514 0.619684 0.100666
H21   H     H_    0.106817 0.264547 0.124736 0.095948
H22   H     H_    0.928835 0.104196 0.926811 0.095645
H23   H     H_    0.389651 0.575995 0.796103 0.086064
H24   H     H_    0.248216 0.369330 0.094291 0.100481
H25   H     H_    0.001649 0.341609 0.644419 0.087689
H26   H     H_    0.981274 0.051612 0.346285 0.108143
N1    N     N_R   0.037310 0.720000 0.995790 -0.041723
N2    N     N_R   0.824890 0.517960 0.936420 -0.040255
N3    N     N_R   0.003210 0.648190 0.211380 -0.101736
N4    N     N_R   0.774330 0.457010 0.995840 -0.046724
N5    N     N_R   0.053760 0.709140 0.151960 -0.067588
N6    N     N_R   0.853860 0.498840 0.211410 -0.053274
N7    N     N_R   0.974240 0.667310 0.936390 -0.044550
N8    N     N_R   0.225670 0.542990 0.004160 -0.044986
N9    N     N_R   0.946240 0.290860 0.848040 -0.039999
N10   N     N_R   0.146140 0.501160 0.788590 -0.043143
N11   N     N_R   0.025760 0.332690 0.063610 -0.043718
N12   N     N_R   0.962690 0.280000 0.004210 -0.046037
N13   N     N_R   0.209210 0.553840 0.847990 -0.041298
N14   N     N_R   0.175110 0.482040 0.063580 -0.046078
N15   N     N_R   0.996790 0.351810 0.788620 -0.037717
N16   N     N_R   0.790790 0.446160 0.152010 -0.062755
Ni1   Ni    Ni4+2 0.130310 0.630310 0.999970 0.214115
Ni2   Ni    Ni4+2 0.869690 0.369690 0.000030 0.210208
Ni3   Ni    Ni4+2 0.985640 0.509470 0.863740 0.212344
Ni4   Ni    Ni4+2 0.014360 0.490530 0.136260 0.236581

loop_
_geom_bond_atom_site_label_1
_geom_bond_atom_site_label_2
_ccdc_geom_bond_type
N10   Ni3   S    
N15   Ni3   S    
C27   C29   D    
C29   H13   S    
C19   C20   A    
C15   H5    S    
C5    H25   S    
C2    H23   S    
C25   H9    S    
C4    H4    S    
C8    C20   S    
C18   C24   A    
C31   H16   S    
N16   Ni2   S    
C32   N6    A    
C5    N15   A    
C31   N5    A    
C22   F1    S    
N9    N15   A    
C10   C17   A    
C30   H15   S    
C9    C39   A    
C18   C19   A    
C23   C26   S    
C21   H8    S    
N12   Ni2   S    
C36   N8    A    
C33   N7    A    
C40   N12   A    
C4    C12   A    
C3    C6    A    
C28   C34   A    
C13   C14   A    
C12   C32   A    
C8    C38   A    
N2    Ni3   S    
N11   Ni4   S    
C1    H1    S    
C14   H3    S    
C23   C30   A    
C16   N2    A    
N8    N14   A    
N3    N5    A    
C38   N10   A    
C27   C35   S    
C25   C26   D    
C37   N9    A    
C9    C40   A    
C1    N1    A    
N3    Ni4   S    
C39   N11   A    
C16   H14   S    
C26   H10   S    
C19   H7    S    
C30   N4    A    
C4    N16   A    
C3    N14   A    
C7    C37   A    
C31   C34   A    
C11   H2    S    
N5    Ni1   S    
C37   H12   S    
N7    Ni3   S    
N9    Ni2   S    
C16   C23   A    
C22   C24   A    
C28   N3    A    
C17   C34   S    
C36   H19   S    
N1    Ni1   S    
C1    C35   A    
C5    C7    A    
C15   C17   A    
C2    C8    A    
N6    N16   A    
C18   H6    S    
N4    Ni2   S    
C27   H11   S    
C10   H26   S    
C33   H18   S    
C39   H21   S    
C12   C24   S    
C40   H22   S    
C6    C25   S    
C11   C13   A    
N10   N13   A    
N14   Ni4   S    
C28   F2    S    
C33   C35   A    
C6    C36   A    
N1    N7    A    
C10   C11   A    
N11   N12   A    
C3    H24   S    
C7    C13   S    
C20   C21   A    
C14   C15   A    
C2    N13   A    
N2    N4    A    
C32   H17   S    
N6    Ni4   S    
C21   C22   A    
N8    Ni1   S    
N13   Ni1   S    
C38   H20   S    
