data_mof_unit_2376.cif
_audit_creation_date              2012-12-11T14:33:49-0500
_audit_creation_method            fapswitch 2.2
_symmetry_space_group_name_H-M    P1
_symmetry_Int_Tables_number       1
_space_group_crystal_system       monoclinic
_cell_length_a                    14.108293
_cell_length_b                    14.108289
_cell_length_c                    27.202176
_cell_angle_alpha                 90.0
_cell_angle_beta                  90.0
_cell_angle_gamma                 119.999899
_cell_volume                      4689.03568361

loop_
_atom_site_label
_atom_site_type_symbol
_atom_type_description
_atom_site_fract_x
_atom_site_fract_y
_atom_site_fract_z
_atom_type_partial_charge
C1    C     C_R   0.235700 0.786449 0.569375 0.542498
C2    C     C_R   0.213551 0.449252 0.569375 0.542499
C3    C     C_R   0.550748 0.764299 0.569375 0.542499
C4    C     C_3   0.613388 0.710519 0.795626 0.698682
C5    C     C_3   0.289481 0.902869 0.795626 0.698682
C6    C     C_3   0.097131 0.386613 0.795626 0.698682
C7    C     C_3   0.605917 0.702503 0.738207 0.159749
C8    C     C_3   0.297497 0.903414 0.738207 0.159749
C9    C     C_3   0.096587 0.394083 0.738207 0.159749
C10   C     C_1   0.682692 0.847233 0.865050 0.142652
C11   C     C_1   0.152767 0.835459 0.865050 0.142653
C12   C     C_1   0.164541 0.317308 0.865050 0.142652
C13   C     C_1   0.614332 0.804674 0.661511 0.150716
C14   C     C_1   0.195326 0.809659 0.661511 0.150716
C15   C     C_1   0.190341 0.385667 0.661511 0.150716
C16   C     C_1   0.592492 0.791133 0.618382 0.127496
C17   C     C_1   0.208867 0.801359 0.618382 0.127496
C18   C     C_1   0.198641 0.407508 0.618382 0.127496
C19   C     C_R   0.107673 0.223810 0.087358 0.599208
C20   C     C_R   0.776190 0.883863 0.087358 0.599209
C21   C     C_R   0.116137 0.892327 0.087358 0.599208
C22   C     C_R   0.107908 0.222200 0.951893 0.576368
C23   C     C_R   0.777800 0.885708 0.951893 0.576368
C24   C     C_R   0.114292 0.892092 0.951893 0.576368
C25   C     C_R   0.645987 0.907337 0.364404 0.197639
C26   C     C_R   0.092663 0.738650 0.364404 0.197639
C27   C     C_R   0.261350 0.354013 0.364404 0.197639
C28   C     C_R   0.665518 0.919953 0.313194 0.003976
C29   C     C_R   0.080047 0.745565 0.313194 0.003975
C30   C     C_R   0.254436 0.334482 0.313194 0.003975
C31   C     C_R   0.691209 0.936406 0.209935 -0.040301
C32   C     C_R   0.063594 0.754803 0.209935 -0.040301
C33   C     C_R   0.245198 0.308792 0.209935 -0.040301
C34   C     C_R   0.232139 0.789098 0.432152 0.566900
C35   C     C_R   0.210902 0.443041 0.432152 0.566901
C36   C     C_R   0.556959 0.767861 0.432152 0.566901
C37   C     C_R   0.690800 0.020265 0.237232 -0.023096
C38   C     C_R   0.979736 0.670536 0.237232 -0.023097
C39   C     C_R   0.329464 0.309200 0.237232 -0.023096
C40   C     C_R   0.678084 0.012771 0.287766 0.441826
C41   C     C_R   0.987229 0.665313 0.287766 0.441825
C42   C     C_R   0.334687 0.321916 0.287766 0.441826
C43   C     C_R   0.712252 0.948521 0.159165 0.186229
C44   C     C_R   0.051480 0.763732 0.159165 0.186229
C45   C     C_R   0.236268 0.287748 0.159165 0.186229
C46   C     C_R   0.713272 0.863044 0.133070 0.015390
C47   C     C_R   0.136956 0.850228 0.133070 0.015390
C48   C     C_R   0.149772 0.286728 0.133070 0.015390
C49   C     C_R   0.648155 0.736457 0.361749 0.385332
C50   C     C_R   0.263542 0.911698 0.361749 0.385331
C51   C     C_R   0.088302 0.351844 0.361749 0.385331
C52   C     C_R   0.660392 0.742639 0.310545 -0.033024
C53   C     C_R   0.257361 0.917753 0.310545 -0.033024
C54   C     C_R   0.082247 0.339608 0.310545 -0.033024
C55   C     C_R   0.666948 0.834240 0.285999 -0.133059
C56   C     C_R   0.165760 0.832709 0.285999 -0.133059
C57   C     C_R   0.167292 0.333052 0.285999 -0.133059
C58   C     C_R   0.662078 0.657948 0.283200 0.277095
C59   C     C_R   0.342052 0.004130 0.283200 0.277094
C60   C     C_R   0.995869 0.337922 0.283200 0.277094
C61   C     C_R   0.665866 0.662359 0.231731 0.241737
C62   C     C_R   0.337641 0.003507 0.231731 0.241737
C63   C     C_R   0.996493 0.334134 0.231731 0.241737
C64   C     C_R   0.669464 0.752271 0.206765 -0.016751
C65   C     C_R   0.247729 0.917193 0.206765 -0.016751
C66   C     C_R   0.082807 0.330536 0.206765 -0.016751
C67   C     C_3   0.553584 0.850025 0.739490 0.618530
C68   C     C_3   0.149975 0.703560 0.739490 0.618529
C69   C     C_3   0.296441 0.446415 0.739490 0.618531
C70   C     C_R   0.676378 0.841028 0.234284 -0.071898
C71   C     C_R   0.158972 0.835350 0.234284 -0.071898
C72   C     C_R   0.164650 0.323622 0.234284 -0.071898
C73   C     C_R   0.672513 0.760227 0.155109 0.234959
C74   C     C_R   0.239773 0.912286 0.155109 0.234959
C75   C     C_R   0.087714 0.327487 0.155109 0.234959
C76   C     C_R   0.624095 0.808589 0.386964 -0.012508
C77   C     C_R   0.191411 0.815506 0.386964 -0.012507
C78   C     C_R   0.184494 0.375905 0.386964 -0.012507
C79   C     C_3   0.749915 0.903413 0.727541 0.288854
C80   C     C_3   0.096587 0.846502 0.727541 0.288855
C81   C     C_3   0.153498 0.250084 0.727541 0.288854
C82   C     C_3   0.766781 0.907011 0.783998 0.127481
C83   C     C_3   0.092989 0.859771 0.783998 0.127481
C84   C     C_3   0.140229 0.233218 0.783998 0.127482
C85   C     C_1   0.719818 0.864757 0.906158 0.124773
C86   C     C_1   0.135243 0.855062 0.906158 0.124774
C87   C     C_1   0.144938 0.280182 0.906158 0.124773
C88   C     C_3   0.631431 0.814654 0.715153 -0.113096
C89   C     C_3   0.185345 0.816776 0.715153 -0.113096
C90   C     C_3   0.183224 0.368569 0.715153 -0.113096
C91   C     C_3   0.573679 0.865513 0.796191 0.270422
C92   C     C_3   0.134487 0.708166 0.796191 0.270422
C93   C     C_3   0.291834 0.426320 0.796191 0.270422
C94   C     C_3   0.658409 0.831823 0.811778 -0.123725
C95   C     C_3   0.168177 0.826586 0.811778 -0.123725
C96   C     C_3   0.173414 0.341591 0.811778 -0.123725
Cr1   Cr    Cr6+3 0.164410 0.584450 0.499910 1.197779
Cr2   Cr    Cr6+3 0.415550 0.579960 0.499910 1.197779
Cr3   Cr    Cr6+3 0.420040 0.835590 0.499910 1.197779
Cr4   Cr    Cr6+3 0.155170 0.075460 0.019960 1.201272
Cr5   Cr    Cr6+3 0.924540 0.079710 0.019960 1.201272
Cr6   Cr    Cr6+3 0.920290 0.844830 0.019960 1.201272
H1    H     H_    0.495828 0.813519 0.816116 0.259014
H2    H     H_    0.186481 0.682309 0.816116 0.259014
H3    H     H_    0.317692 0.504172 0.816116 0.259014
H4    H     H_    0.700001 0.093277 0.219877 0.256217
H5    H     H_    0.906723 0.606724 0.219877 0.256217
H6    H     H_    0.393276 0.299999 0.219877 0.256217
H7    H     H_    0.763620 0.984591 0.715234 0.225242
H8    H     H_    0.015409 0.779030 0.715234 0.225242
H9    H     H_    0.220970 0.236379 0.715234 0.225242
H10   H     H_    0.796113 0.991998 0.796428 0.228653
H11   H     H_    0.008002 0.804115 0.796429 0.228653
H12   H     H_    0.195884 0.203886 0.796429 0.228653
H13   H     H_    0.521490 0.640134 0.727890 0.259027
H14   H     H_    0.359866 0.881356 0.727890 0.259027
H15   H     H_    0.118644 0.478511 0.727890 0.259027
O1    O     O_R   0.137150 0.468200 0.553200 -0.467330
O2    O     O_R   0.531800 0.668950 0.553200 -0.467331
O3    O     O_R   0.331050 0.862850 0.553200 -0.467331
O4    O     O_R   0.179100 0.982980 0.967000 -0.465640
O5    O     O_R   0.017020 0.196120 0.967000 -0.465640
O6    O     O_R   0.803880 0.820900 0.967000 -0.465640
O7    O     O_R   0.173970 0.688730 0.549930 -0.482982
O8    O     O_R   0.311270 0.485240 0.549930 -0.482982
O9    O     O_R   0.514760 0.826030 0.549930 -0.482982
O10   O     O_R   0.140110 0.470540 0.446010 -0.408393
O11   O     O_R   0.529460 0.669570 0.446010 -0.408394
O12   O     O_R   0.330430 0.859890 0.446010 -0.408393
O13   O     O_R   0.176710 0.690910 0.450560 -0.466955
O14   O     O_R   0.309090 0.485800 0.450560 -0.466955
O15   O     O_R   0.514200 0.823290 0.450560 -0.466955
O16   O     O_3   0.333333 0.666667 0.499990 -0.366641
O17   O     O_R   0.176750 0.985260 0.074180 -0.446411
O18   O     O_R   0.014740 0.191490 0.074180 -0.446412
O19   O     O_R   0.808510 0.823250 0.074180 -0.446411
O20   O     O_R   0.146100 0.172630 0.068980 -0.466546
O21   O     O_R   0.827370 0.973470 0.068980 -0.466547
O22   O     O_R   0.026530 0.853900 0.068980 -0.466547
O23   O     O_3   0.000000 0.000000 0.020040 -0.302692
O24   O     O_R   0.148270 0.170520 0.969620 -0.487431
O25   O     O_R   0.829480 0.977750 0.969620 -0.487431
O26   O     O_R   0.022250 0.851730 0.969620 -0.487431
F1    F     F_    0.609622 0.973245 0.809433 -0.500652
F2    F     F_    0.026756 0.636378 0.809433 -0.500652
F3    F     F_    0.363622 0.390376 0.809433 -0.500653
F4    F     F_    0.446302 0.770215 0.730960 -0.541765
F5    F     F_    0.229786 0.676088 0.730959 -0.541765
F6    F     F_    0.323913 0.553698 0.730960 -0.541765
F7    F     F_    0.677684 0.669726 0.813917 -0.436587
F8    F     F_    0.330274 0.007958 0.813917 -0.436587
F9    F     F_    0.992043 0.322317 0.813917 -0.436587
Cl1   Cl    Cl    0.736477 0.069538 0.128267 -0.411888
Cl2   Cl    Cl    0.930463 0.666940 0.128267 -0.411889
Cl3   Cl    Cl    0.333060 0.263523 0.128267 -0.411888
Cl4   Cl    Cl    0.653921 0.014904 0.401324 -0.291380
Cl5   Cl    Cl    0.985096 0.639018 0.401324 -0.291381
Cl6   Cl    Cl    0.360983 0.346079 0.401324 -0.291380
F10   F     F_    0.676917 0.097468 0.310662 -0.466374
F11   F     F_    0.902532 0.579449 0.310662 -0.466374
F12   F     F_    0.420552 0.323083 0.310661 -0.466374
Cl7   Cl    Cl    0.610294 0.644088 0.115982 -0.372723
Cl8   Cl    Cl    0.355912 0.966205 0.115982 -0.372724
Cl9   Cl    Cl    0.033794 0.389706 0.115982 -0.372724
Cl10  Cl    Cl    0.681202 0.560071 0.200787 -0.314427
Cl11  Cl    Cl    0.439929 0.121131 0.200787 -0.314428
Cl12  Cl    Cl    0.878869 0.318798 0.200787 -0.314427
Cl13  Cl    Cl    0.654957 0.541181 0.311695 -0.150121
Cl14  Cl    Cl    0.458818 0.113776 0.311695 -0.150122
Cl15  Cl    Cl    0.886224 0.345042 0.311695 -0.150121
F13   F     F_    0.569628 0.946614 0.718459 -0.513130
F14   F     F_    0.053386 0.623014 0.718459 -0.513129
F15   F     F_    0.376986 0.430371 0.718459 -0.513129
F16   F     F_    0.655015 0.657991 0.387761 -0.494136
F17   F     F_    0.342008 0.997023 0.387761 -0.494136
F18   F     F_    0.002977 0.344985 0.387761 -0.494136
F19   F     F_    0.825502 0.886233 0.702293 -0.467635
F20   F     F_    0.113767 0.939269 0.702293 -0.467635
F21   F     F_    0.060731 0.174498 0.702293 -0.467635
Cl16  Cl    Cl    0.867973 0.872186 0.800122 -0.347464
Cl17  Cl    Cl    0.127814 0.995787 0.800122 -0.347464
Cl18  Cl    Cl    0.004212 0.132027 0.800121 -0.347463
Cl19  Cl    Cl    0.689718 0.651662 0.712836 -0.237783
Cl20  Cl    Cl    0.348337 0.038055 0.712835 -0.237783
Cl21  Cl    Cl    0.961945 0.310283 0.712835 -0.237783
F22   F     F_    0.510080 0.646300 0.815388 -0.577393
F23   F     F_    0.353700 0.863780 0.815388 -0.577393
F24   F     F_    0.136221 0.489921 0.815388 -0.577393

loop_
_geom_bond_atom_site_label_1
_geom_bond_atom_site_label_2
_ccdc_geom_bond_type
C15   C18   T    
C10   C85   T    
C82   C94   S    
C2    C18   S    
C21   O22   A    
C9    H15   S    
C83   H11   S    
C40   F10   S    
C48   C75   A    
Cr1   O16   S    
Cr1   O10   S    
C27   C78   A    
C6    C9    S    
C2    O1    A    
C42   F12   S    
Cr2   O2    S    
C54   C60   A    
C25   C28   A    
Cr2   O16   S    
Cr3   O16   S    
C67   C88   S    
C33   C39   A    
C31   C43   A    
Cr3   O15   S    
C60   C63   A    
Cr1   O13   S    
C37   C40   A    
C69   C93   S    
Cr4   O24   S    
C36   O15   A    
C34   C77   S    
C74   Cl8   S    
C45   C48   A    
C28   C40   A    
C24   O26   A    
C19   O18   A    
C30   C57   A    
C6    F24   S    
C80   C89   S    
C33   C45   A    
C83   Cl17  S    
C26   Cl5   S    
Cr4   O4    S    
C84   C96   S    
C20   O21   A    
C38   H5    S    
C39   C42   A    
C49   F16   S    
C36   C76   S    
C33   C72   A    
C93   H3    S    
Cr3   O3    S    
C28   C55   A    
C31   C70   A    
C66   C72   A    
C81   H9    S    
C34   O12   A    
Cr2   O14   S    
C64   C73   A    
C79   F19   S    
C23   O25   A    
C45   Cl3   S    
C32   C38   A    
Cr3   O9    S    
Cr4   O23   S    
C68   F5    S    
C44   C47   A    
C6    F9    S    
C8    Cl20  S    
C58   C61   A    
C63   Cl12  S    
C63   C66   A    
C25   Cl4   S    
C14   C17   T    
C36   O11   A    
C69   F15   S    
C30   C42   A    
C80   C83   S    
C79   C88   S    
C5    C95   S    
Cr5   O23   S    
Cr4   O17   S    
C22   O5    A    
C32   C71   A    
Cr5   O18   S    
C53   C59   A    
C39   H6    S    
C3    O9    A    
C26   C77   A    
C79   H7    S    
C50   C53   A    
C3    O2    A    
C81   F21   S    
C38   C41   A    
C4    F22   S    
C22   O24   A    
Cr3   O12   S    
C19   C48   S    
C23   O6    A    
C67   F13   S    
C65   C71   A    
C92   C95   S    
C65   C74   A    
C31   C37   A    
C50   F17   S    
C27   Cl6   S    
C1    O3    A    
C82   H10   S    
C11   C86   T    
C61   C64   A    
C64   C70   A    
C14   C89   S    
C73   Cl7   S    
C5    C8    S    
C41   F11   S    
Cr5   O25   S    
C92   H2    S    
C7    C88   S    
C19   O20   A    
C49   C52   A    
C83   C95   S    
C67   C91   S    
C68   C89   S    
C32   C44   A    
C49   C76   A    
C93   F3    S    
Cr6   O23   S    
C22   C87   S    
C20   O19   A    
C35   O10   A    
Cr1   O1    S    
C52   C58   A    
C4    C94   S    
C81   C90   S    
C62   Cl11  S    
C93   C96   S    
C6    C96   S    
C67   F4    S    
Cr6   O26   S    
C5    F23   S    
C82   Cl16  S    
Cr6   O6    S    
C50   C77   A    
C35   O14   A    
C21   O17   A    
C81   C84   S    
C58   Cl13  S    
C60   Cl15  S    
C91   F1    S    
C53   C56   A    
C11   C95   S    
C4    C7    S    
C59   C62   A    
C84   H12   S    
C62   C65   A    
C29   C41   A    
C92   F2    S    
C1    C17   S    
C7    H13   S    
C12   C96   S    
C47   C74   A    
C91   H1    S    
C9    C90   S    
C79   C82   S    
Cr5   O21   S    
C52   C55   A    
C29   C56   A    
Cr1   O7    S    
C4    F7    S    
C35   C78   S    
C9    Cl21  S    
Cr5   O5    S    
C5    F8    S    
C7    Cl19  S    
C51   C54   A    
C69   F6    S    
C25   C76   A    
C84   Cl18  S    
C1    O7    A    
C44   Cl2   S    
C37   H4    S    
C12   C87   T    
C59   Cl14  S    
C91   C94   S    
C68   F14   S    
C66   C75   A    
C13   C88   S    
Cr2   O11   S    
C24   O4    A    
C68   C92   S    
C61   Cl10  S    
Cr6   O22   S    
C57   C72   A    
C51   F18   S    
C43   C46   A    
Cr6   O19   S    
C51   C78   A    
C55   C70   A    
Cr4   O20   S    
C8    H14   S    
C2    O8    A    
C34   O13   A    
C26   C29   A    
C23   C85   S    
C13   C16   T    
C80   H8    S    
C10   C94   S    
C27   C30   A    
C75   Cl9   S    
C8    C89   S    
Cr2   O8    S    
C21   C47   S    
C43   Cl1   S    
C24   C86   S    
C46   C73   A    
C20   C46   S    
C3    C16   S    
C69   C90   S    
C56   C71   A    
C80   F20   S    
C15   C90   S    
C54   C57   A    
