data_mof_unit_4751.cif
_audit_creation_date              2012-12-10T20:34:52-0500
_audit_creation_method            fapswitch 2.2
_symmetry_space_group_name_H-M    P1
_symmetry_Int_Tables_number       1
_space_group_crystal_system       triclinic
_cell_length_a                    10.639224
_cell_length_b                    10.752025
_cell_length_c                    9.869109
_cell_angle_alpha                 89.389689
_cell_angle_beta                  90.371452
_cell_angle_gamma                 90.361049
_cell_volume                      1128.84928472

loop_
_atom_site_label
_atom_site_type_symbol
_atom_type_description
_atom_site_fract_x
_atom_site_fract_y
_atom_site_fract_z
_atom_type_partial_charge
C1    C     C_R   0.498225 0.260395 0.500515 0.886549
C2    C     C_3   0.878605 0.501563 0.499538 0.192663
C3    C     C_3   0.928969 0.615222 0.578743 -0.408290
C4    C     C_3   0.927512 0.509857 0.351713 -0.389368
C5    C     C_R   0.502947 0.059995 0.618888 0.014321
C6    C     C_R   0.496153 0.128947 0.499659 -0.093026
C7    C     C_R   0.490980 0.065831 0.375123 -0.226411
C8    C     C_R   0.493406 0.936795 0.373766 -0.209678
C9    C     C_R   0.502821 0.870542 0.496840 -0.103842
C10   C     C_R   0.510993 0.935896 0.616190 -0.087354
C11   C     C_3   0.519260 0.922469 0.767212 0.247187
C12   C     C_R   0.257582 0.500702 0.499576 0.831851
C13   C     C_3   0.510306 0.065993 0.770704 0.235681
C14   C     C_R   0.411326 0.433964 0.071105 0.198288
C15   C     C_R   0.593941 0.556122 0.071944 -0.133179
C16   C     C_R   0.594006 0.555999 0.927990 -0.111765
C17   C     C_R   0.411134 0.434392 0.928602 0.259104
C18   C     C_3   0.273123 0.454683 0.921300 -0.498208
C19   C     C_3   0.273017 0.453520 0.074668 -0.529030
C20   C     C_R   0.501311 0.739422 0.499191 0.873345
C21   C     C_R   0.742299 0.501053 0.500069 0.820093
C22   C     C_3   0.071469 0.380244 0.567019 -0.390187
C23   C     C_3   0.927177 0.380136 0.566843 -0.409967
C24   C     C_3   0.073284 0.615590 0.577836 -0.398066
C25   C     C_3   0.070032 0.508463 0.351731 -0.400967
C26   C     C_3   0.121036 0.501366 0.499067 0.180568
H1    H     H_    0.106231 0.372717 0.673135 0.177962
H2    H     H_    0.894057 0.596946 0.301442 0.169489
H3    H     H_    0.108363 0.703117 0.529626 0.157771
H4    H     H_    0.893737 0.702948 0.531690 0.148906
H5    H     H_    0.485160 0.115260 0.279118 0.162142
H6    H     H_    0.487505 0.889932 0.277263 0.171760
H7    H     H_    0.435196 0.873739 0.808832 0.138217
H8    H     H_    0.595127 0.117189 0.807446 0.079638
H9    H     H_    0.668198 0.604017 0.126081 0.149439
H10   H     H_    0.105997 0.297541 0.511782 0.160608
H11   H     H_    0.668323 0.603614 0.873662 0.170427
H12   H     H_    0.248379 0.546744 0.876669 0.205949
H13   H     H_    0.222736 0.374115 0.876801 0.204484
H14   H     H_    0.247607 0.544790 0.118132 0.215836
H15   H     H_    0.223310 0.371369 0.117880 0.195124
H16   H     H_    0.891251 0.297838 0.510668 0.154351
H17   H     H_    0.892964 0.371931 0.672971 0.175642
H18   H     H_    0.108761 0.613473 0.684119 0.173771
H19   H     H_    0.895609 0.611529 0.685341 0.180308
H20   H     H_    0.105589 0.593843 0.299486 0.171764
H21   H     H_    0.101306 0.425861 0.294801 0.175226
H22   H     H_    0.891756 0.429891 0.291404 0.177959
N1    N     N_R   0.499150 0.499140 0.142800 -0.110682
N2    N     N_R   0.499150 0.499180 0.857150 -0.119666
O1    O     O_R   0.500020 0.316790 0.614690 -0.599050
O2    O     O_R   0.500000 0.316760 0.385350 -0.628856
O3    O     O_R   0.314800 0.500000 0.614670 -0.625614
O4    O     O_R   0.314790 0.499960 0.385330 -0.626606
O5    O     O_R   0.500000 0.683240 0.614650 -0.607659
O6    O     O_R   0.499980 0.683210 0.385310 -0.623313
O7    O     O_R   0.685210 0.500040 0.614670 -0.635496
O8    O     O_R   0.685200 0.500000 0.385330 -0.634154
Zn1   Zn    Zn3+2 0.500010 0.500020 0.653130 0.953932
Zn2   Zn    Zn3+2 0.499990 0.499980 0.346870 0.931112
O9    O     O_3   0.632544 0.875494 0.826137 -0.622402
C27   C     C_3   0.740123 0.889899 0.743676 0.130200
H23   H     H_    0.750214 0.986709 0.704194 0.120171
H24   H     H_    0.735159 0.824083 0.657742 0.146485
C28   C     C_3   0.856752 0.860090 0.827509 -0.871953
H25   H     H_    0.849799 0.764409 0.870357 0.245376
H26   H     H_    0.941572 0.866759 0.762755 0.212902
H27   H     H_    0.866377 0.927110 0.911860 0.256655
O10   O     O_3   0.395458 0.105616 0.825999 -0.598365
C29   C     C_3   0.403594 0.100999 0.969081 0.103750
H28   H     H_    0.453792 0.184806 0.006363 0.137083
H29   H     H_    0.454054 0.017172 0.008022 0.139000
C30   C     C_3   0.271756 0.096952 0.027731 -0.855208
H30   H     H_    0.224514 0.008370 0.999786 0.250447
H31   H     H_    0.276649 0.102970 0.139894 0.208345
H32   H     H_    0.215291 0.175542 0.987585 0.256481

loop_
_geom_bond_atom_site_label_1
_geom_bond_atom_site_label_2
_ccdc_geom_bond_type
O5    Zn1   S    
C30   H30   S    
C20   O6    A    
C4    C25   S    
O3    Zn1   S    
C7    C8    A    
O4    Zn2   S    
N1    Zn2   S    
N2    Zn1   S    
C16   N2    A    
C5    C10   A    
C5    C6    A    
O7    Zn1   S    
C14   N1    A    
O8    Zn2   S    
C15   C16   A    
C23   H17   S    
C18   C19   S    
C24   H3    S    
C27   H24   S    
O2    Zn2   S    
C8    C9    A    
C28   H26   S    
C29   H28   S    
C9    C10   A    
C25   H21   S    
C5    C13   S    
C12   O3    A    
C16   H11   S    
C30   H31   S    
C14   C17   A    
C3    C24   S    
O10   C29   S    
C2    C21   S    
C20   O5    A    
C15   H9    S    
C4    H2    S    
C7    H5    S    
C1    C6    S    
C8    H6    S    
C11   H7    S    
C19   H14   S    
C25   C26   S    
C3    H19   S    
O6    Zn2   S    
C12   C26   S    
C3    H4    S    
C2    C4    S    
C18   H13   S    
C21   O7    A    
C27   H23   S    
C9    C20   S    
C23   H16   S    
C28   H27   S    
C29   C30   S    
C17   C18   S    
C1    O1    A    
C22   H1    S    
C24   H18   S    
C30   H32   S    
O1    Zn1   S    
C4    H22   S    
C27   C28   S    
C14   C19   S    
C24   C26   S    
C11   O9    S    
C17   N2    A    
C6    C7    A    
C22   H10   S    
C2    C3    S    
C18   H12   S    
C13   H8    S    
C11   C13   S    
C13   O10   S    
C15   N1    A    
O9    C27   S    
C1    O2    A    
C10   C11   S    
C21   O8    A    
C28   H25   S    
C22   C26   S    
C2    C23   S    
C22   C23   S    
C29   H29   S    
C25   H20   S    
C12   O4    A    
C19   H15   S    
