data_mof_unit_2362.cif
_audit_creation_date              2012-12-10T20:53:01-0500
_audit_creation_method            fapswitch 2.2
_symmetry_space_group_name_H-M    P1
_symmetry_Int_Tables_number       1
_space_group_crystal_system       triclinic
_cell_length_a                    18.183513
_cell_length_b                    18.152731
_cell_length_c                    18.261709
_cell_angle_alpha                 60.504238
_cell_angle_beta                  60.710959
_cell_angle_gamma                 60.870655
_cell_volume                      4329.123496

loop_
_atom_site_label
_atom_site_type_symbol
_atom_type_description
_atom_site_fract_x
_atom_site_fract_y
_atom_site_fract_z
_atom_type_partial_charge
C1    C     C_R   0.388729 0.104288 0.115073 0.947538
C2    C     C_R   0.379441 0.810204 0.035509 -0.181211
C3    C     C_R   0.032557 0.567785 0.912148 -0.142365
C4    C     C_R   0.409104 0.035674 0.013573 -0.049705
C5    C     C_R   0.573940 0.912330 0.031965 -0.158940
C6    C     C_R   0.946931 0.944946 0.554980 -0.122076
C7    C     C_R   0.054529 0.053579 0.443923 -0.131142
C8    C     C_R   0.948689 0.556618 0.942936 -0.126876
C9    C     C_R   0.063451 0.440014 0.043072 -0.140402
C10   C     C_R   0.554833 0.939568 0.953260 -0.145491
C11   C     C_R   0.438629 0.032670 0.074498 -0.108374
C12   C     C_3   0.931375 0.790239 0.088548 0.069900
C13   C     C_R   0.186818 0.970469 0.633339 -0.195682
C14   C     C_3   0.857849 0.827527 0.163576 -0.348318
C15   C     C_3   0.811452 0.927764 0.126794 -0.900216
C16   C     C_3   0.102047 0.354438 0.850500 0.143770
C17   C     C_3   0.202959 0.335561 0.812157 -0.335500
C18   C     C_3   0.229669 0.389705 0.831782 -0.928672
C19   C     C_3   0.540858 0.235572 0.790130 0.098611
C20   C     C_3   0.486274 0.271248 0.730422 -0.385348
C21   C     C_3   0.544405 0.254020 0.642241 -0.801706
C22   C     C_3   0.490191 0.708553 0.242665 0.067414
C23   C     C_3   0.493685 0.670711 0.336909 -0.310373
C24   C     C_R   0.813079 0.030785 0.367502 -0.165867
C25   C     C_3   0.554152 0.702016 0.342526 -0.905605
C26   C     C_3   0.330096 0.709004 0.590001 0.100040
C27   C     C_3   0.306166 0.637807 0.592264 -0.343709
C28   C     C_3   0.353580 0.544041 0.644475 -0.957749
C29   C     C_3   0.728928 0.282790 0.387899 0.103500
C30   C     C_3   0.686113 0.366616 0.413776 -0.340309
C31   C     C_3   0.712987 0.445860 0.335452 -0.917063
C32   C     C_R   0.133133 0.611438 0.264617 0.471028
C33   C     C_R   0.876369 0.390484 0.747697 0.486646
C34   C     C_R   0.619632 0.258922 0.997758 0.483418
C35   C     C_R   0.405222 0.742754 0.002975 0.498489
C36   C     C_R   0.259041 0.996866 0.606997 0.506933
C37   C     C_R   0.742041 0.002734 0.393670 0.506300
C38   C     C_R   0.051371 0.592419 0.309344 -0.169350
C39   C     C_R   0.610495 0.889849 0.890585 0.944022
C40   C     C_R   0.958336 0.407829 0.689292 -0.149301
C41   C     C_R   0.554473 0.338555 0.964723 -0.186383
C42   C     C_R   0.450625 0.652970 0.046802 -0.224389
C43   C     C_R   0.343936 0.956292 0.552424 -0.193956
C44   C     C_R   0.656223 0.043523 0.446826 -0.207693
C45   C     C_R   0.995657 0.621189 0.259867 0.369692
C46   C     C_R   0.028058 0.374636 0.723653 0.335569
C47   C     C_R   0.511053 0.336864 0.918698 0.370947
C48   C     C_R   0.464443 0.633180 0.125881 0.362872
C49   C     C_R   0.354089 0.887972 0.527358 0.332752
C50   C     C_R   0.110836 0.109349 0.389316 1.057151
C51   C     C_R   0.643827 0.114192 0.469897 0.362112
C52   C     C_R   0.021207 0.669108 0.168240 0.551113
C53   C     C_R   0.014383 0.326986 0.815126 0.524536
C54   C     C_R   0.530596 0.256609 0.908999 0.515785
C55   C     C_R   0.432862 0.701558 0.159822 0.522571
C56   C     C_R   0.280801 0.859963 0.559172 0.533197
C57   C     C_R   0.715349 0.144388 0.438334 0.508115
C58   C     C_R   0.103719 0.683668 0.124745 -0.412015
C59   C     C_R   0.933493 0.310916 0.871444 -0.364350
C60   C     C_R   0.593202 0.178381 0.943918 -0.432479
C61   C     C_R   0.890384 0.889446 0.610569 0.992953
C62   C     C_R   0.391648 0.789951 0.113744 -0.443002
C63   C     C_R   0.197402 0.903051 0.609564 -0.408104
C64   C     C_R   0.800429 0.100266 0.389703 -0.480506
C65   C     C_R   0.970318 0.593329 0.462838 -0.239582
C66   C     C_R   0.025077 0.407048 0.536440 -0.221392
C67   C     C_R   0.579017 0.475787 0.932982 -0.265529
C68   C     C_R   0.420865 0.524215 0.067252 -0.220398
C69   C     C_R   0.476771 0.931003 0.578402 -0.226416
C70   C     C_R   0.524080 0.067698 0.420626 -0.222746
C71   C     C_R   0.944880 0.552045 0.555377 -0.078686
C72   C     C_R   0.110766 0.388996 0.108380 0.930942
C73   C     C_R   0.052103 0.448240 0.444081 -0.072110
C74   C     C_R   0.553517 0.554342 0.948704 -0.059772
C75   C     C_R   0.446304 0.445888 0.051570 -0.051607
C76   C     C_R   0.554655 0.947951 0.553051 -0.063330
C77   C     C_R   0.445891 0.051163 0.446313 -0.070743
C78   C     C_R   0.973252 0.457457 0.592628 -0.008903
C79   C     C_R   0.024526 0.542858 0.406662 -0.006982
C80   C     C_R   0.474457 0.578367 0.017539 -0.000060
C81   C     C_R   0.526406 0.420563 0.984463 -0.000481
C82   C     C_R   0.578716 0.017102 0.473407 0.000783
C83   C     C_R   0.890475 0.610812 0.889402 0.960701
C84   C     C_R   0.422222 0.981594 0.525504 -0.001779
C85   C     C_R   0.109518 0.390658 0.389479 0.820853
C86   C     C_R   0.890069 0.609386 0.610398 0.813065
C87   C     C_R   0.389958 0.389937 0.108802 0.826446
C88   C     C_R   0.610012 0.610109 0.891764 0.802573
C89   C     C_R   0.389873 0.108427 0.390059 0.819542
C90   C     C_R   0.610194 0.891421 0.609836 0.798575
C91   C     C_R   0.182224 0.924414 0.397498 0.487573
C92   C     C_R   0.820120 0.074259 0.602013 0.462354
C93   C     C_R   0.972466 0.335939 0.116905 0.464999
C94   C     C_R   0.158215 0.656103 0.172741 -0.186755
C95   C     C_R   0.063021 0.633023 0.829100 0.438138
C96   C     C_R   0.318190 0.064207 0.021663 0.480813
C97   C     C_R   0.645591 0.834344 0.056428 0.451525
C98   C     C_R   0.212758 0.836584 0.399243 -0.183118
C99   C     C_R   0.791888 0.158956 0.605258 -0.134206
C100  C     C_R   0.886126 0.332346 0.155131 -0.200368
C101  C     C_R   0.133138 0.656566 0.812464 -0.187334
C102  C     C_R   0.296727 0.089886 0.946474 -0.331883
C103  C     C_R   0.674069 0.823396 0.120263 -0.193287
C104  C     C_R   0.160224 0.782545 0.455380 -0.284210
C105  C     C_R   0.865122 0.342917 0.838183 -0.195275
C106  C     C_R   0.843974 0.213514 0.548750 -0.332629
C107  C     C_R   0.816546 0.407380 0.131898 -0.366884
C108  C     C_R   0.185325 0.605952 0.866790 -0.341504
C109  C     C_R   0.363717 0.084924 0.865909 -0.306629
C110  C     C_R   0.623627 0.877411 0.172761 -0.381506
C111  C     C_R   0.074304 0.814401 0.511168 0.473095
C112  C     C_R   0.927535 0.183592 0.488696 0.455414
C113  C     C_R   0.833434 0.485779 0.064422 0.502188
C114  C     C_R   0.168313 0.530010 0.939414 0.483269
C115  C     C_R   0.453272 0.042878 0.862033 0.483790
C116  C     C_R   0.637929 0.180155 0.986537 -0.160956
C117  C     C_R   0.542036 0.942533 0.163751 0.477894
C118  C     C_R   0.036719 0.907056 0.504786 -0.038397
C119  C     C_R   0.964884 0.091283 0.494027 -0.037632
C120  C     C_R   0.922541 0.488735 0.022664 0.008533
C121  C     C_R   0.087558 0.513326 0.966983 0.011660
C122  C     C_R   0.474144 0.007103 0.941239 -0.034863
C123  C     C_R   0.519018 0.965080 0.089147 -0.035270
C124  C     C_R   0.091413 0.962529 0.447764 -0.083145
C125  C     C_R   0.910202 0.035969 0.550671 -0.138525
C126  C     C_R   0.988165 0.419971 0.060564 -0.181146
H1    H     H_    0.817058 0.281364 0.548999 0.151148
H2    H     H_    0.360983 0.541087 0.121343 0.185379
H3    H     H_    0.459318 0.876805 0.638737 0.172435
H4    H     H_    0.541422 0.122018 0.360379 0.176540
H5    H     H_    0.279933 0.808078 0.359535 0.167255
H6    H     H_    0.725938 0.185037 0.648112 0.160698
H7    H     H_    0.873725 0.269433 0.199684 0.172567
H8    H     H_    0.152126 0.709952 0.752291 0.176689
H9    H     H_    0.227955 0.113700 0.950345 0.189504
H10   H     H_    0.731156 0.766731 0.135378 0.200358
H11   H     H_    0.125699 0.716707 0.053378 0.190036
H12   H     H_    0.188267 0.713700 0.457578 0.163068
H13   H     H_    0.923771 0.272920 0.941513 0.204783
H14   H     H_    0.606734 0.115807 0.938656 0.186401
H15   H     H_    0.365726 0.842691 0.140462 0.210382
H16   H     H_    0.140584 0.883307 0.631243 0.201734
H17   H     H_    0.857341 0.119141 0.369428 0.194324
H18   H     H_    0.220828 0.669724 0.138064 0.187406
H19   H     H_    0.802887 0.329732 0.883102 0.200452
H20   H     H_    0.686231 0.119024 0.012866 0.186739
H21   H     H_    0.345825 0.878721 0.001861 0.202569
H22   H     H_    0.121732 0.002154 0.673495 0.194012
H23   H     H_    0.244220 0.621417 0.847268 0.155790
H24   H     H_    0.879021 0.998495 0.328968 0.194982
H25   H     H_    0.301292 0.934588 0.319864 0.350851
H26   H     H_    0.749825 0.022288 0.603804 0.312185
H27   H     H_    0.088665 0.262177 0.064553 0.336944
H28   H     H_    0.027555 0.621036 0.753689 0.297926
H29   H     H_    0.194788 0.074457 0.098484 0.344996
H30   H     H_    0.634502 0.753791 0.026002 0.295810
H31   H     H_    0.064212 0.694025 0.568228 0.320937
H32   H     H_    0.935217 0.304982 0.429369 0.325236
H33   H     H_    0.706821 0.547010 0.077811 0.329411
H34   H     H_    0.749980 0.402846 0.163139 0.164864
H35   H     H_    0.281577 0.493678 0.954739 0.352735
H36   H     H_    0.493997 0.066756 0.734280 0.337425
H37   H     H_    0.508045 0.953655 0.278284 0.335925
H38   H     H_    0.166383 0.557533 0.371638 0.340944
H39   H     H_    0.821546 0.449758 0.654980 0.335710
H40   H     H_    0.646856 0.312397 0.048357 0.342772
H41   H     H_    0.398556 0.714359 0.916406 0.340568
H42   H     H_    0.298051 0.076471 0.613166 0.348732
H43   H     H_    0.705409 0.921226 0.387596 0.342118
H44   H     H_    0.905730 0.567913 0.361256 0.337554
H45   H     H_    0.643579 0.861920 0.227067 0.173743
H46   H     H_    0.109127 0.430725 0.611637 0.341703
H47   H     H_    0.449706 0.466048 0.881717 0.325479
H48   H     H_    0.538297 0.508274 0.137481 0.333281
H49   H     H_    0.478575 0.874828 0.450297 0.335799
H50   H     H_    0.519884 0.125207 0.547790 0.337147
H51   H     H_    0.901624 0.808030 0.039056 0.185550
H52   H     H_    0.983661 0.822878 0.052313 0.128330
H53   H     H_    0.807977 0.792076 0.200829 0.247132
H54   H     H_    0.887071 0.816049 0.210849 0.229588
H55   H     H_    0.859974 0.964520 0.091855 0.272722
H56   H     H_    0.345618 0.109974 0.807505 0.177907
H57   H     H_    0.758056 0.952374 0.182413 0.285311
H58   H     H_    0.780907 0.941618 0.079592 0.260207
H59   H     H_    0.077951 0.349687 0.920812 0.136801
H60   H     H_    0.069084 0.424850 0.813479 0.119037
H61   H     H_    0.237091 0.263692 0.841660 0.238385
H62   H     H_    0.225957 0.351833 0.738981 0.261699
H63   H     H_    0.195976 0.462252 0.803537 0.263241
H64   H     H_    0.302536 0.376313 0.801398 0.283440
H65   H     H_    0.212337 0.369666 0.904728 0.284329
H66   H     H_    0.572666 0.161883 0.805605 0.169741
H67   H     H_    0.949389 0.665663 0.433430 0.192943
H68   H     H_    0.593743 0.267944 0.752802 0.124462
H69   H     H_    0.433912 0.239113 0.765229 0.240555
H70   H     H_    0.453572 0.344574 0.716206 0.238028
H71   H     H_    0.593659 0.290091 0.604708 0.247158
H72   H     H_    0.502019 0.279092 0.601769 0.290218
H73   H     H_    0.580041 0.181373 0.653650 0.324041
H74   H     H_    0.466769 0.782956 0.220646 0.137996
H75   H     H_    0.558497 0.684187 0.197323 0.161648
H76   H     H_    0.425494 0.692586 0.382913 0.234200
H77   H     H_    0.518052 0.596401 0.358913 0.236890
H78   H     H_    0.046700 0.334714 0.565852 0.199134
H79   H     H_    0.622394 0.684084 0.294822 0.265295
H80   H     H_    0.558028 0.669242 0.410932 0.267853
H81   H     H_    0.526287 0.775435 0.328121 0.300342
H82   H     H_    0.308425 0.705619 0.660035 0.108520
H83   H     H_    0.403632 0.693856 0.560484 0.194587
H84   H     H_    0.232949 0.651235 0.623460 0.242740
H85   H     H_    0.325216 0.640849 0.523328 0.228259
H86   H     H_    0.427000 0.528650 0.613390 0.266986
H87   H     H_    0.335064 0.494298 0.644126 0.271683
H88   H     H_    0.333780 0.538332 0.714572 0.288277
H89   H     H_    0.639600 0.457827 0.879871 0.198270
H90   H     H_    0.708145 0.298461 0.332172 0.139783
H91   H     H_    0.802571 0.264822 0.365381 0.148873
H92   H     H_    0.612349 0.384744 0.438125 0.238243
H93   H     H_    0.706954 0.352583 0.468478 0.217575
H94   H     H_    0.786727 0.428087 0.306694 0.277856
H95   H     H_    0.686029 0.503038 0.358678 0.267898
H96   H     H_    0.685151 0.466996 0.283332 0.276977
O1    O     O_3   0.250000 0.250000 0.250000 -0.515234
O2    O     O_R   0.865800 0.694910 0.573470 -0.625829
O3    O     O_R   0.305090 0.426530 0.134200 -0.633202
O4    O     O_R   0.694910 0.573470 0.865800 -0.630637
O5    O     O_R   0.426530 0.134200 0.305090 -0.627942
O6    O     O_R   0.573470 0.865800 0.694910 -0.621564
O7    O     O_R   0.134190 0.426530 0.134200 -0.588315
O8    O     O_R   0.865810 0.573470 0.865800 -0.660913
O9    O     O_R   0.426530 0.134200 0.134190 -0.602208
O10   O     O_R   0.573470 0.865800 0.865810 -0.620796
O11   O     O_R   0.134200 0.134190 0.426530 -0.618577
O12   O     O_3   0.750000 0.750000 0.750000 -0.508774
O13   O     O_R   0.865800 0.865810 0.573470 -0.629608
O14   O     O_R   0.426530 0.305080 0.134210 -0.640454
O15   O     O_R   0.573470 0.694920 0.865790 -0.632062
O16   O     O_R   0.305080 0.134210 0.426530 -0.629959
O17   O     O_R   0.694920 0.865790 0.573470 -0.637602
O18   O     O_R   0.134210 0.426530 0.305080 -0.645726
O19   O     O_R   0.865790 0.573470 0.694920 -0.650783
O20   O     O_3   0.241915 0.971624 0.349029 -0.773870
O21   O     O_3   0.756339 0.032867 0.648340 -0.763846
O22   O     O_3   0.039231 0.254555 0.122057 -0.732102
O23   O     O_R   0.305080 0.134200 0.134200 -0.588106
O24   O     O_3   0.031240 0.670469 0.759653 -0.742299
O25   O     O_3   0.253668 0.053135 0.104863 -0.723091
O26   O     O_3   0.683351 0.762808 0.027353 -0.724794
O27   O     O_3   0.028143 0.754553 0.573220 -0.764583
O28   O     O_3   0.971289 0.244778 0.423544 -0.803620
O29   O     O_3   0.763549 0.560766 0.041837 -0.764353
O30   O     O_3   0.233960 0.468307 0.977509 -0.754424
O31   O     O_3   0.520571 0.039098 0.781804 -0.772328
O32   O     O_3   0.481238 0.976992 0.231915 -0.764202
O33   O     O_3   0.191198 0.586908 0.306933 -0.755136
O34   O     O_R   0.694920 0.865800 0.865800 -0.592468
O35   O     O_3   0.805684 0.418558 0.720037 -0.782645
O36   O     O_3   0.664985 0.253571 0.043688 -0.770761
O37   O     O_3   0.382988 0.767775 0.929722 -0.743282
O38   O     O_3   0.242912 0.062698 0.635648 -0.738116
O39   O     O_3   0.760172 0.935225 0.366200 -0.761232
O40   O     O_3   0.915678 0.604854 0.297690 -0.747942
O41   O     O_3   0.110884 0.385262 0.670649 -0.771697
O42   O     O_3   0.449372 0.411697 0.881836 -0.753193
O43   O     O_3   0.505818 0.547673 0.173972 -0.738629
O44   O     O_3   0.433359 0.846849 0.472514 -0.780928
O45   O     O_R   0.134200 0.134200 0.305080 -0.577267
O46   O     O_3   0.562729 0.157319 0.521262 -0.754503
O47   O     O_3   0.966797 0.695660 0.120909 -0.597371
O48   O     O_3   0.083048 0.288262 0.849086 -0.622654
O49   O     O_3   0.482922 0.255081 0.869797 -0.610337
O50   O     O_3   0.430485 0.678374 0.245123 -0.595832
O51   O     O_3   0.288302 0.793590 0.536736 -0.623543
O52   O     O_3   0.701297 0.212297 0.463317 -0.612292
O53   O     O_R   0.865800 0.865800 0.694920 -0.584365
O54   O     O_R   0.134200 0.305080 0.134200 -0.628845
O55   O     O_R   0.865800 0.694920 0.865800 -0.564041
O56   O     O_R   0.134200 0.305090 0.426530 -0.631722
Zn1   Zn    Zn3+2 0.206620 0.206630 0.380140 1.040232
Zn2   Zn    Zn3+2 0.793380 0.793370 0.619860 1.018944
Zn3   Zn    Zn3+2 0.206630 0.380140 0.206620 1.026155
Zn4   Zn    Zn3+2 0.793370 0.619860 0.793380 0.993517
Zn5   Zn    Zn3+2 0.380140 0.206620 0.206630 1.033413
Zn6   Zn    Zn3+2 0.619860 0.793380 0.793370 1.020982
Zn7   Zn    Zn3+2 0.206620 0.206620 0.206620 1.093982
Zn8   Zn    Zn3+2 0.793380 0.793380 0.793380 1.105197

loop_
_geom_bond_atom_site_label_1
_geom_bond_atom_site_label_2
_ccdc_geom_bond_type
C109  H56   S    
C68   C80   A    
C48   C55   A    
C32   C94   A    
C99   C106  A    
C18   H63   S    
C42   C80   S    
C65   C79   A    
C96   C102  A    
H37   O32   S    
C8    C83   S    
C67   H89   S    
C19   C20   S    
C1    C11   S    
C9    C72   S    
C21   H72   S    
C92   C125  A    
C97   O26   S    
C107  H34   S    
C53   C59   A    
C106  C112  A    
C49   O44   S    
C68   C75   A    
C40   C46   A    
C85   O56   A    
C34   C41   A    
C5    C123  A    
C77   C89   S    
C26   C27   S    
C59   C105  A    
H41   O37   S    
C90   O17   A    
C103  C110  A    
O13   Zn2   S    
H40   O36   S    
C6    C61   S    
O9    Zn5   S    
C67   C81   A    
C89   O5    A    
C44   C82   S    
C16   H59   S    
C86   O19   A    
C95   O24   S    
C30   C31   S    
C92   O21   S    
C120  C126  A    
O1    Zn1   S    
C38   C79   S    
C17   H62   S    
C34   C116  A    
C31   H96   S    
C55   C62   A    
C15   H55   S    
C70   H4    S    
C34   O36   S    
C69   C76   A    
C17   C18   S    
C44   C51   A    
C108  C114  A    
C35   C42   A    
O15   Zn6   S    
C93   C126  A    
C107  C113  A    
C38   C45   A    
C4    C96   A    
C114  C121  A    
O19   Zn4   S    
C88   O4    A    
O18   Zn3   S    
H28   O24   S    
H39   O35   S    
C16   C17   S    
O12   Zn4   S    
C15   H57   S    
C98   H5    S    
C9    C121  A    
C52   C58   A    
C51   C57   A    
C32   C38   A    
C7    C124  A    
C20   H69   S    
O1    Zn5   S    
C14   H53   S    
C19   H66   S    
C30   H92   S    
C66   H78   S    
C110  H45   S    
O6    Zn6   S    
C101  C108  A    
C29   H91   S    
C12   H51   S    
C118  C124  A    
C41   C81   S    
C24   C64   A    
C115  C122  A    
O1    Zn7   S    
C15   H58   S    
C70   C77   A    
C43   C84   S    
O14   Zn5   S    
C86   O2    A    
C21   H73   S    
H36   O31   S    
C25   H79   S    
H49   O44   S    
C27   H85   S    
C90   O6    A    
C24   C37   A    
C101  H8    S    
C65   H67   S    
O54   Zn7   S    
C22   C23   S    
C28   H88   S    
O11   Zn1   S    
C26   H82   S    
C18   H65   S    
C113  O29   S    
C33   C40   A    
O12   Zn2   S    
C72   O7    A    
C22   H74   S    
C23   H76   S    
C115  O31   S    
C114  O30   S    
C35   O37   S    
C33   C105  A    
C12   O47   S    
C7    C50   S    
C13   C36   A    
C20   H70   S    
O16   Zn1   S    
H30   O26   S    
C76   C82   A    
C2    C35   A    
C109  C115  A    
C43   C49   A    
C29   H90   S    
C19   O49   S    
C39   O34   A    
C45   C52   A    
C87   O3    A    
C2    H21   S    
C65   C71   A    
C66   C73   A    
O23   Zn7   S    
C106  H1    S    
C27   H84   S    
C57   O52   S    
C87   O14   A    
C23   H77   S    
C10   C39   S    
C46   O41   S    
C50   O11   A    
O5    Zn5   S    
C103  H10   S    
O4    Zn4   S    
C29   C30   S    
C7    C119  A    
C104  C111  A    
C71   C86   S    
C117  O32   S    
C1    O9    A    
C52   O47   S    
C14   C15   S    
C91   O20   S    
C59   H13   S    
C105  H19   S    
O17   Zn2   S    
C26   O51   S    
H43   O39   S    
C54   O49   S    
C41   C47   A    
C56   C63   A    
C4    C122  A    
C67   C74   A    
C42   C48   A    
O10   Zn6   S    
C4    C11   A    
C93   C100  A    
C73   C85   S    
C97   C103  A    
C24   H24   S    
C60   H14   S    
C47   C54   A    
C10   C122  A    
C99   H6    S    
C66   C78   A    
C75   C87   S    
C83   O8    A    
C37   O39   S    
C12   C14   S    
C3    C8    A    
O3    Zn3   S    
C91   C124  A    
C111  C118  A    
C31   H95   S    
C61   O13   A    
C40   C78   S    
C60   C116  A    
H38   O33   S    
C28   H86   S    
C62   H15   S    
C25   H80   S    
C49   C56   A    
C119  C125  A    
C56   O51   S    
C3    C95   A    
C100  H7    S    
C61   O53   A    
C57   C64   A    
C32   O33   S    
C31   H94   S    
C58   C94   A    
C22   O50   S    
C28   H87   S    
C8    C120  A    
C68   H2    S    
C50   O45   A    
C18   H64   S    
C100  C107  A    
C96   O25   S    
C22   H75   S    
H26   O21   S    
C72   O54   A    
H48   O43   S    
C89   O16   A    
C11   C123  A    
H32   O28   S    
C6    C125  A    
C21   H71   S    
C83   O55   A    
C93   O22   S    
H31   O27   S    
C112  C119  A    
C16   O48   S    
C112  O28   S    
C102  H9    S    
C64   H17   S    
C75   C81   A    
C47   O42   S    
C111  O27   S    
C73   C79   A    
O55   Zn8   S    
O8    Zn4   S    
O12   Zn6   S    
C9    C126  A    
C77   C84   A    
H44   O40   S    
C54   C60   A    
C85   O18   A    
C94   H18   S    
H46   O41   S    
C29   O52   S    
C117  C123  A    
H33   O29   S    
C5    C10   A    
C69   C84   A    
C16   H60   S    
H25   O20   S    
C116  H20   S    
H47   O42   S    
C45   O40   S    
C113  C120  A    
C48   O43   S    
C17   H61   S    
C51   O46   S    
C98   C104  A    
C88   O15   A    
O34   Zn8   S    
C46   C53   A    
O12   Zn8   S    
C63   H16   S    
C104  H12   S    
O7    Zn3   S    
C5    C97   A    
C26   H83   S    
C13   C63   A    
C36   O38   S    
C91   C98   A    
H42   O38   S    
C70   C82   A    
C58   H11   S    
C12   H52   S    
H29   O25   S    
C36   C43   A    
H50   O46   S    
C110  C117  A    
C108  H23   S    
C37   C44   A    
C3    C121  A    
C39   O10   A    
C23   C25   S    
C20   C21   S    
O45   Zn7   S    
C19   H68   S    
C69   H3    S    
C53   O48   S    
C74   C80   A    
H27   O22   S    
C33   O35   S    
C27   C28   S    
O56   Zn1   S    
C102  C109  A    
C1    O23   A    
C55   O50   S    
C13   H22   S    
C74   C88   S    
H35   O30   S    
C25   H81   S    
O53   Zn8   S    
C2    C62   A    
C6    C118  A    
C71   C78   A    
C14   H54   S    
C95   C101  A    
C92   C99   A    
C76   C90   S    
C30   H93   S    
O1    Zn3   S    
O2    Zn2   S    
