data_mof_unit_2349.cif
_audit_creation_date              2012-10-26T21:06:35-0400
_audit_creation_method            fapswitch 2.2
_symmetry_space_group_name_H-M    P1
_symmetry_Int_Tables_number       1
_space_group_crystal_system       triclinic
_cell_length_a                    15.877111
_cell_length_b                    10.86077
_cell_length_c                    9.564056
_cell_angle_alpha                 89.981832
_cell_angle_beta                  91.085921
_cell_angle_gamma                 91.008211
_cell_volume                      1648.65187315

loop_
_atom_site_label
_atom_site_type_symbol
_atom_type_description
_atom_site_fract_x
_atom_site_fract_y
_atom_site_fract_z
_atom_type_partial_charge
C1    C     C_R   0.506528 0.262790 0.500676 0.577241
C2    C     C_R   0.554085 0.574199 0.077387 0.044336
C3    C     C_R   0.339995 0.500868 0.498868 0.562111
C4    C     C_R   0.660201 0.499690 0.501150 0.530636
C5    C     C_3   0.974293 0.417797 0.583691 0.268191
C6    C     C_3   0.027707 0.596428 0.416276 0.266147
C7    C     C_3   0.026925 0.397562 0.452035 0.070870
C8    C     C_3   0.974453 0.617247 0.548147 0.046196
C9    C     C_1   0.250547 0.503890 0.496644 0.052039
C10   C     C_1   0.750054 0.501082 0.503462 0.026651
C11   C     C_3   0.031389 0.527013 0.631271 0.068583
C12   C     C_R   0.499122 0.737978 0.500412 0.568571
C13   C     C_3   0.970278 0.487541 0.369116 0.087834
C14   C     C_3   0.083695 0.507310 0.498511 -0.006383
C15   C     C_3   0.917531 0.506373 0.501819 -0.004259
C16   C     C_1   0.175190 0.506292 0.496568 0.060705
C17   C     C_1   0.825672 0.503081 0.503673 0.049371
C18   C     C_R   0.544195 0.064016 0.387512 0.079070
C19   C     C_R   0.479865 0.938689 0.621276 0.070977
C20   C     C_3   0.007801 0.264329 0.743565 0.040252
C21   C     C_3   0.993359 0.124867 0.740982 -0.255509
C22   C     C_3   0.069605 0.058215 0.802132 -0.450744
C23   C     C_R   0.542752 0.935636 0.390353 0.243907
C24   C     C_3   0.013489 0.782900 0.297717 0.037156
C25   C     C_3   0.018113 0.818723 0.143560 -0.241157
C26   C     C_3   0.968622 0.935319 0.113257 -0.476383
C27   C     C_3   0.662201 0.837878 0.328291 0.025180
C28   C     C_3   0.719794 0.833234 0.201922 -0.262830
C29   C     C_3   0.778015 0.723186 0.209232 -0.458184
C30   C     C_3   0.584679 0.147877 0.799553 0.043094
C31   C     C_3   0.633027 0.032643 0.844563 -0.266570
C32   C     C_3   0.724723 0.064145 0.883032 -0.458392
C33   C     C_R   0.498004 0.064021 0.628443 0.235018
C34   C     C_R   0.504439 0.872324 0.502373 -0.053139
C35   C     C_R   0.516228 0.129144 0.504378 -0.057718
C36   C     C_R   0.445477 0.424816 0.070233 0.215038
C37   C     C_R   0.555272 0.573808 0.929628 0.211587
C38   C     C_R   0.445697 0.425914 0.922418 0.036561
Cu1   Cu    Cu3+1 0.500000 0.500020 0.640660 1.028751
Cu2   Cu    Cu3+1 0.500000 0.499980 0.359340 1.045119
H1    H     H_    0.402569 0.366416 0.863841 0.163258
H2    H     H_    0.036335 0.861378 0.363599 0.190864
H3    H     H_    0.946385 0.764045 0.320866 0.137775
H4    H     H_    0.084873 0.834197 0.114168 0.211904
H5    H     H_    0.991372 0.742110 0.078723 0.221358
H6    H     H_    0.905442 0.929871 0.160331 0.154484
H7    H     H_    0.959894 0.946629 0.998820 0.166968
H8    H     H_    0.003146 0.017057 0.156126 0.197522
H9    H     H_    0.657578 0.745996 0.378608 0.158438
H10   H     H_    0.692166 0.902344 0.406527 0.128713
H11   H     H_    0.681778 0.827685 0.103786 0.215052
H12   H     H_    0.596752 0.633808 0.135863 0.148180
H13   H     H_    0.757920 0.919816 0.197341 0.159110
H14   H     H_    0.810026 0.719851 0.313037 0.155712
H15   H     H_    0.825532 0.730496 0.125907 0.187002
H16   H     H_    0.741558 0.636009 0.193940 0.185370
H17   H     H_    0.583339 0.212375 0.889475 0.187389
H18   H     H_    0.620000 0.196924 0.716144 0.133326
H19   H     H_    0.601701 0.988749 0.935199 0.233512
H20   H     H_    0.633206 0.965514 0.757219 0.178735
H21   H     H_    0.757856 0.101434 0.790470 0.171786
H22   H     H_    0.757239 0.979705 0.918599 0.171647
H23   H     H_    0.007314 0.296177 0.853941 0.199837
H24   H     H_    0.728503 0.133375 0.968275 0.191011
H25   H     H_    0.071800 0.284835 0.701982 0.151081
H26   H     H_    0.936524 0.100700 0.802012 0.176467
H27   H     H_    0.982296 0.093589 0.631474 0.223043
H28   H     H_    0.126208 0.077897 0.738763 0.188725
H29   H     H_    0.057427 0.957304 0.801125 0.197270
H30   H     H_    0.082320 0.088215 0.911668 0.169664
I1    I     I_    0.072156 0.226760 0.373413 -0.361697
I2    I     I_    0.924294 0.782596 0.634075 -0.451041
I3    I     I_    0.920366 0.456998 0.162381 -0.314169
I4    I     I_    0.085593 0.564487 0.834290 -0.295666
I5    I     I_    0.605179 0.151490 0.215645 -0.344685
I6    I     I_    0.414004 0.861884 0.795540 -0.200793
I7    I     I_    0.356804 0.299585 0.157370 -0.203453
I8    I     I_    0.648211 0.690745 0.841040 -0.371186
N1    N     N_R   0.500020 0.500030 0.852070 -0.242877
N2    N     N_R   0.499980 0.499970 0.147930 -0.239097
O1    O     O_R   0.500000 0.319660 0.618740 -0.485777
O2    O     O_3   0.065673 0.681372 0.323617 -0.523181
O3    O     O_3   0.580643 0.873304 0.283235 -0.523322
O4    O     O_3   0.499701 0.120075 0.758857 -0.513710
O5    O     O_R   0.500000 0.680340 0.381260 -0.467018
O6    O     O_R   0.499990 0.319630 0.381170 -0.454609
O7    O     O_R   0.500010 0.680370 0.618830 -0.464930
O8    O     O_R   0.379080 0.500000 0.618760 -0.496856
O9    O     O_R   0.620920 0.500000 0.381240 -0.518401
O10   O     O_R   0.379080 0.499970 0.381190 -0.470709
O11   O     O_R   0.620920 0.500030 0.618810 -0.477109
O12   O     O_3   0.941752 0.322424 0.668658 -0.534842

loop_
_geom_bond_atom_site_label_1
_geom_bond_atom_site_label_2
_ccdc_geom_bond_type
C31   H20   S    
C18   I5    S    
C6    O2    S    
C21   H26   S    
C24   H2    S    
Cu1   O7    S    
C37   N1    A    
C23   O3    S    
C12   O5    A    
C3    O10   A    
C28   C29   S    
C9    C16   T    
C32   H21   S    
C5    C11   S    
C36   I7    S    
C7    I1    S    
C30   C31   S    
C28   H11   S    
C38   N1    A    
C10   C17   T    
C1    O1    A    
C30   H17   S    
C31   H19   S    
C24   O2    S    
C7    C14   S    
Cu2   N2    S    
Cu2   O9    S    
C18   C35   A    
C22   H29   S    
C27   H10   S    
C26   H8    S    
C4    O11   A    
C21   C22   S    
C21   H27   S    
Cu1   O8    S    
C25   H4    S    
Cu1   O11   S    
C8    I2    S    
C18   C23   A    
C20   H25   S    
C24   C25   S    
Cu1   O1    S    
C38   H1    S    
C36   N2    A    
Cu2   O6    S    
Cu1   Cu2   S    
C5    C7    S    
C6    C8    S    
C29   H15   S    
C25   C26   S    
C11   I4    S    
Cu1   N1    S    
Cu2   O5    S    
C32   H24   S    
C3    C9    S    
C6    C14   S    
C20   O12   S    
C31   C32   S    
C23   C34   A    
C11   C14   S    
C22   H28   S    
C2    H12   S    
C26   H7    S    
C13   I3    S    
C8    C15   S    
C13   C15   S    
C19   C33   A    
C14   C16   S    
C12   C34   S    
C25   H5    S    
C1    C35   S    
C4    O9    A    
C1    O6    A    
C15   C17   S    
C19   I6    S    
C12   O7    A    
C3    O8    A    
C19   C34   A    
C28   H13   S    
C29   H16   S    
C37   I8    S    
C20   H23   S    
C36   C38   A    
C32   H22   S    
C6    C13   S    
C2    C37   A    
C8    C11   S    
C30   H18   S    
C27   O3    S    
C33   C35   A    
C30   O4    S    
C33   O4    S    
C5    C15   S    
C5    O12   S    
C2    N2    A    
C26   H6    S    
C7    C13   S    
C20   C21   S    
C29   H14   S    
C27   C28   S    
C24   H3    S    
Cu2   O10   S    
C4    C10   S    
C22   H30   S    
C27   H9    S    
