data_mof_unit_98.cif
_audit_creation_date              2012-12-10T18:41:21-0500
_audit_creation_method            fapswitch 2.2
_symmetry_space_group_name_H-M    P1
_symmetry_Int_Tables_number       1
_space_group_crystal_system       triclinic
_cell_length_a                    15.081138
_cell_length_b                    13.949186
_cell_length_c                    10.848296
_cell_angle_alpha                 89.999885
_cell_angle_beta                  91.89771
_cell_angle_gamma                 90.0
_cell_volume                      2280.90001168

loop_
_atom_site_label
_atom_site_type_symbol
_atom_type_description
_atom_site_fract_x
_atom_site_fract_y
_atom_site_fract_z
_atom_type_partial_charge
C1    C     C_R   0.330362 0.500072 0.500059 0.727891
C2    C     C_R   0.669638 0.500072 0.499941 0.727891
C3    C     C_R   0.184777 0.463684 0.397107 -0.010039
C4    C     C_R   0.815223 0.463684 0.602893 -0.010039
C5    C     C_R   0.092127 0.464718 0.398755 -0.104752
C6    C     C_R   0.907873 0.464718 0.601245 -0.104752
C7    C     C_R   0.048560 0.501919 0.499871 0.011656
C8    C     C_R   0.951440 0.501919 0.500129 0.011656
C9    C     C_R   0.545515 0.109196 0.594437 0.304619
C10   C     C_R   0.454485 0.109197 0.405564 0.304619
C11   C     C_R   0.546400 0.210267 0.589536 -0.033572
C12   C     C_R   0.453600 0.210268 0.410464 -0.033571
C13   C     C_R   0.500000 0.055818 0.500000 -0.062261
C14   C     C_R   0.426004 0.893374 0.458434 -0.221647
C15   C     C_R   0.573995 0.893374 0.541566 -0.221648
C16   C     C_R   0.429526 0.792473 0.448348 0.122910
C17   C     C_R   0.570474 0.792473 0.551652 0.122910
C18   C     C_R   0.500000 0.946500 0.500000 0.073371
C19   C     C_R   0.499233 0.499874 0.262738 0.784957
C20   C     C_R   0.500767 0.499874 0.737262 0.784957
C21   C     C_R   0.498754 0.582622 0.061930 0.045636
C22   C     C_R   0.501246 0.582622 0.938070 0.045636
C23   C     C_R   0.498815 0.498569 0.130071 -0.098347
C24   C     C_R   0.501184 0.498569 0.869929 -0.098347
C25   C     C_R   0.499507 0.411080 0.064605 -0.182845
C26   C     C_R   0.500493 0.411080 0.935395 -0.182846
C27   C     C_3   0.501545 0.689148 0.928713 0.205552
C28   C     C_3   0.498455 0.689148 0.071286 0.205551
C29   C     C_R   0.097249 0.538943 0.600807 -0.096935
C30   C     C_R   0.902751 0.538942 0.399193 -0.096935
C31   C     C_R   0.189980 0.538897 0.602548 -0.025728
C32   C     C_R   0.810020 0.538897 0.397452 -0.025728
C33   C     C_R   0.233843 0.500554 0.500097 -0.169424
C34   C     C_R   0.766157 0.500554 0.499903 -0.169424
Cu1   Cu    Cu3+1 0.500000 0.596430 0.500000 0.944278
Cu2   Cu    Cu3+1 0.500000 0.403570 0.500000 0.937353
H1    H     H_    0.499338 0.342906 0.112402 0.154234
H2    H     H_    0.500662 0.342906 0.887598 0.154234
H3    H     H_    0.365653 0.929839 0.429672 0.238811
H4    H     H_    0.634347 0.929839 0.570328 0.238811
H5    H     H_    0.564196 0.716349 0.889449 0.087064
H6    H     H_    0.435804 0.716349 0.110550 0.087064
H7    H     H_    0.062347 0.568101 0.678108 0.187037
H8    H     H_    0.937653 0.568101 0.321892 0.187037
H9    H     H_    0.053304 0.436190 0.321283 0.184182
H10   H     H_    0.946696 0.436191 0.678717 0.184182
H11   H     H_    0.584374 0.250323 0.658447 0.150994
H12   H     H_    0.415626 0.250324 0.341553 0.150994
N1    N     N_R   0.500000 0.258690 0.500000 -0.217990
N2    N     N_R   0.500000 0.741330 0.500000 -0.238680
O1    O     O_R   0.371460 0.581430 0.500010 -0.596089
O2    O     O_R   0.628540 0.581430 0.499990 -0.596090
O3    O     O_R   0.371470 0.418560 0.500010 -0.568993
O4    O     O_R   0.628530 0.418560 0.499990 -0.568993
O5    O     O_R   0.499990 0.581450 0.319660 -0.587976
O6    O     O_R   0.500010 0.581450 0.680340 -0.587976
O7    O     O_R   0.500010 0.418580 0.319660 -0.593198
O8    O     O_R   0.499990 0.418580 0.680340 -0.593198
C35   C     C_2   0.357928 0.745870 0.373756 0.387806
H13   H     H_    0.370785 0.682286 0.320610 0.105595
O9    O     O_2   0.283264 0.779844 0.367842 -0.541605
C36   C     C_2   0.642072 0.745869 0.626243 0.387807
H14   H     H_    0.629215 0.682285 0.679390 0.105595
O10   O     O_2   0.716736 0.779844 0.632157 -0.541605
O11   O     O_3   0.421594 0.721032 0.870956 -0.557344
C37   C     C_3   0.429291 0.818717 0.839963 0.040396
H15   H     H_    0.484855 0.830507 0.776774 0.142802
H16   H     H_    0.439980 0.862953 0.924289 0.125268
C38   C     C_3   0.344026 0.851405 0.774136 -0.662227
H17   H     H_    0.287397 0.843691 0.836266 0.265180
H18   H     H_    0.349957 0.927768 0.746709 0.180322
H19   H     H_    0.331165 0.807357 0.690132 0.259658
O12   O     O_3   0.578406 0.721032 0.129043 -0.557344
C39   C     C_3   0.570708 0.818717 0.160036 0.040395
H20   H     H_    0.515144 0.830506 0.223225 0.142802
H21   H     H_    0.560019 0.862953 0.075710 0.125268
C40   C     C_3   0.655974 0.851404 0.225863 -0.662226
H22   H     H_    0.712602 0.843692 0.163733 0.265179
H23   H     H_    0.650042 0.927768 0.253291 0.180322
H24   H     H_    0.668835 0.807357 0.309867 0.259658
C41   C     C_2   0.239796 0.577055 0.712871 0.414293
H25   H     H_    0.311372 0.571206 0.721191 0.102079
O13   O     O_2   0.201203 0.615542 0.796834 -0.508375
C42   C     C_2   0.760203 0.577055 0.287129 0.414294
H26   H     H_    0.688628 0.571206 0.278808 0.102078
O14   O     O_2   0.798797 0.615542 0.203166 -0.508374
C43   C     C_2   0.229064 0.426422 0.286100 0.392382
H27   H     H_    0.300397 0.431203 0.278290 0.058115
O15   O     O_2   0.186079 0.390117 0.200879 -0.518970
C44   C     C_2   0.770936 0.426422 0.713901 0.392381
H28   H     H_    0.699603 0.431203 0.721710 0.058114
O16   O     O_2   0.813921 0.390118 0.799122 -0.518970
O17   O     O_3   0.595246 0.063494 0.686133 -0.577067
C45   C     C_3   0.552461 0.071237 0.799281 0.059744
H29   H     H_    0.485489 0.037597 0.792857 0.132914
H30   H     H_    0.546159 0.147455 0.828195 0.135331
C46   C     C_3   0.608048 0.019015 0.897705 -0.762487
H31   H     H_    0.676315 0.048944 0.902506 0.276678
H32   H     H_    0.578405 0.028006 0.989109 0.177349
H33   H     H_    0.611524 0.941433 0.875289 0.238127
O18   O     O_3   0.404754 0.063494 0.313867 -0.577067
C47   C     C_3   0.447539 0.071238 0.200719 0.059744
H34   H     H_    0.514511 0.037599 0.207143 0.132914
H35   H     H_    0.453841 0.147456 0.171804 0.135331
C48   C     C_3   0.391952 0.019016 0.102296 -0.762487
H36   H     H_    0.323686 0.048944 0.097494 0.276678
H37   H     H_    0.421596 0.028007 0.010892 0.177349
H38   H     H_    0.388476 0.941433 0.124712 0.238127

loop_
_geom_bond_atom_site_label_1
_geom_bond_atom_site_label_2
_ccdc_geom_bond_type
C15   C18   A    
C37   H16   S    
C43   H27   S    
O17   C45   S    
C7    C29   A    
O12   C39   S    
C14   C18   A    
C11   H11   S    
Cu1   Cu2   S    
C12   H12   S    
C12   N1    A    
C1    C33   S    
C7    C8    S    
C40   H22   S    
C19   O7    A    
C48   H37   S    
O18   C47   S    
C39   H21   S    
C13   C18   S    
C27   O11   S    
C16   N2    A    
Cu2   O8    S    
C38   H17   S    
C37   C38   S    
C3    C33   A    
C47   C48   S    
C38   H18   S    
C9    C13   A    
C36   O10   D    
Cu2   O3    S    
C46   H32   S    
C14   H3    S    
C20   C24   S    
C39   C40   S    
C31   C33   A    
C20   O6    A    
C45   H30   S    
C25   H1    S    
C2    C34   S    
C37   H15   S    
C35   H13   S    
C21   C22   A    
C29   H7    S    
C1    O3    A    
C30   H8    S    
C47   H34   S    
C28   O12   S    
C10   C12   A    
C41   O13   D    
C46   H31   S    
C4    C44   S    
C40   H23   S    
C32   C42   S    
C48   H38   S    
C4    C34   A    
C35   O9    D    
C39   H20   S    
C3    C43   S    
C42   H26   S    
C4    C6    A    
Cu2   O7    S    
C2    O4    A    
C5    C7    A    
C26   H2    S    
C6    C8    A    
C45   C46   S    
C25   C26   A    
C5    H9    S    
Cu1   O5    S    
C41   H25   S    
C16   C35   S    
C32   C34   A    
C38   H19   S    
C19   C23   S    
C36   H14   S    
C11   N1    A    
C17   C36   S    
C9    C11   A    
C27   H5    S    
C44   O16   D    
Cu1   N2    S    
C47   H35   S    
C1    O1    A    
C2    O2    A    
C21   C28   S    
C22   C27   S    
C43   O15   D    
Cu1   O1    S    
C22   C24   A    
C20   O8    A    
C9    O17   S    
C27   C28   S    
C46   H33   S    
C40   H24   S    
C19   O5    A    
C15   C17   A    
C6    H10   S    
Cu1   O6    S    
C10   O18   S    
C24   C26   A    
C3    C5    A    
C10   C13   A    
C17   N2    A    
C48   H36   S    
C31   C41   S    
C8    C30   A    
C21   C23   A    
C29   C31   A    
C30   C32   A    
C44   H28   S    
C28   H6    S    
C14   C16   A    
C23   C25   A    
C45   H29   S    
C15   H4    S    
Cu2   O4    S    
O11   C37   S    
Cu1   O2    S    
C42   O14   D    
Cu2   N1    S    
