data_mof_unit_3879.cif
_audit_creation_date              2012-12-11T14:29:46-0500
_audit_creation_method            fapswitch 2.2
_symmetry_space_group_name_H-M    P1
_symmetry_Int_Tables_number       1
_space_group_crystal_system       triclinic
_cell_length_a                    6.938103
_cell_length_b                    14.659268
_cell_length_c                    16.325319
_cell_angle_alpha                 90.404202
_cell_angle_beta                  89.763021
_cell_angle_gamma                 89.748474
_cell_volume                      1660.33583363

loop_
_atom_site_label
_atom_site_type_symbol
_atom_type_description
_atom_site_fract_x
_atom_site_fract_y
_atom_site_fract_z
_atom_type_partial_charge
O1    O     O_R   0.494400 0.416610 0.413880 -0.541277
O2    O     O_R   0.823920 0.406790 0.585520 -0.542886
O3    O     O_R   0.994250 0.583390 0.586120 -0.541596
C1    C     C_R   0.654720 0.385083 0.613561 0.755560
O4    O     O_R   0.824110 0.405730 0.414490 -0.540282
O5    O     O_R   0.994440 0.582310 0.413870 -0.539961
C2    C     C_R   0.655263 0.383643 0.386341 0.752158
O6    O     O_R   0.494210 0.417690 0.586130 -0.537283
O7    O     O_3   0.660810 0.557940 0.500000 -0.374128
V1    V     V_3+5 0.935650 0.489250 0.500000 1.439242
O8    O     O_R   0.324160 0.593210 0.414480 -0.547880
C3    C     C_R   0.155468 0.615054 0.386392 0.730994
O9    O     O_R   0.323970 0.594270 0.585510 -0.538132
C4    C     C_R   0.153823 0.617256 0.612840 0.691305
V2    V     V_3+5 0.435660 0.510750 0.500000 1.437760
O10   O     O_3   0.160630 0.442060 0.500000 -0.366517
H1    H     H_    0.260793 0.929373 0.514827 0.142192
C5    C     C_R   0.039294 0.561610 0.775116 -0.150321
C6    C     C_R   0.012673 0.529065 0.854068 -0.153117
C7    C     C_R   0.060846 0.583520 0.920636 -0.094661
C8    C     C_R   0.123138 0.672986 0.908875 0.116404
C9    C     C_R   0.113636 0.713194 0.830073 0.040911
C10   C     C_R   0.094834 0.653118 0.761557 0.054305
C11   C     C_R   0.129399 0.809037 0.816971 -0.156950
C12   C     C_R   0.159877 0.841068 0.735929 0.035151
C13   C     C_R   0.171916 0.778237 0.668931 0.071931
C14   C     C_R   0.139359 0.684075 0.681790 -0.157334
C15   C     C_R   0.181650 0.935319 0.720116 -0.164728
C16   C     C_R   0.218024 0.966618 0.641130 0.213475
C17   C     C_R   0.232686 0.905028 0.576152 -0.123663
C18   C     C_R   0.209390 0.811918 0.589529 -0.180265
H2    H     H_    0.016170 0.514038 0.725278 0.118954
H3    H     H_    0.969763 0.458964 0.863428 0.125273
H4    H     H_    0.065519 0.553361 0.980955 0.138936
H5    H     H_    0.171622 0.985815 0.768584 0.122943
H6    H     H_    0.218905 0.766849 0.536861 0.107727
C19   C     C_2   0.985040 0.711060 0.284144 -0.121437
C20   C     C_2   0.150343 0.682724 0.319449 -0.304705
H7    H     H_    0.849001 0.683626 0.305749 0.138541
H8    H     H_    0.288338 0.708543 0.299223 0.131855
C21   C     C_2   0.972451 0.777994 0.215720 -0.122571
C22   C     C_2   0.125048 0.819283 0.180905 -0.275701
H9    H     H_    0.828891 0.793156 0.193135 0.143177
H10   H     H_    0.269712 0.805464 0.202204 0.138794
C23   C     C_2   0.779613 0.208216 0.781577 -0.106866
C24   C     C_2   0.614219 0.179692 0.816653 -0.290994
H11   H     H_    0.915842 0.180355 0.802660 0.145127
H12   H     H_    0.476088 0.206051 0.797084 0.143910
C25   C     C_2   0.791738 0.276784 0.714669 -0.112786
C26   C     C_2   0.638361 0.317545 0.679949 -0.280978
H13   H     H_    0.935532 0.293852 0.693334 0.152088
H14   H     H_    0.493367 0.301826 0.699840 0.148135
C27   C     C_2   0.778634 0.208742 0.213583 -0.124397
C28   C     C_2   0.613237 0.181794 0.177526 -0.304424
H15   H     H_    0.914472 0.179937 0.192241 0.135790
H16   H     H_    0.475606 0.209856 0.196717 0.127915
C29   C     C_2   0.791884 0.277115 0.281522 -0.126418
C30   C     C_2   0.638903 0.315401 0.319611 -0.292198
H17   H     H_    0.936005 0.295882 0.300928 0.137300
H18   H     H_    0.493751 0.297229 0.301972 0.131052
O11   O     O_R   0.770210 0.079270 0.910680 -0.542331
O12   O     O_R   0.440150 0.091160 0.082270 -0.549799
O13   O     O_R   0.269970 0.914530 0.082860 -0.531032
C31   C     C_R   0.608403 0.113268 0.110533 0.730696
O14   O     O_R   0.440480 0.090100 0.911240 -0.546440
O15   O     O_R   0.270310 0.913460 0.910610 -0.524426
C32   C     C_R   0.609157 0.111764 0.883113 0.745114
O16   O     O_R   0.769870 0.080340 0.082930 -0.544228
O17   O     O_3   0.603660 0.938980 0.996790 -0.352086
V3    V     V_3+5 0.328750 0.007610 0.996740 1.445092
O18   O     O_R   0.940600 0.902510 0.911180 -0.533533
C33   C     C_R   0.111611 0.876567 0.885983 0.744946
O19   O     O_R   0.940270 0.903570 0.082200 -0.540147
C34   C     C_R   0.108859 0.884466 0.112320 0.772620
V4    V     V_3+5 0.828770 0.986010 0.996670 1.463312
O20   O     O_3   0.103730 0.054750 0.996710 -0.383545
I1    I     I_    0.320667 0.716353 0.999031 -0.427078
I2    I     I_    0.251235 0.107698 0.620390 -0.481583

loop_
_geom_bond_atom_site_label_1
_geom_bond_atom_site_label_2
_ccdc_geom_bond_type
C20   H8    S    
O19   V4    S    
O19   C34   A    
C6    C7    A    
C1    O6    A    
C27   C28   D    
O11   V4    S    
O16   V4    S    
C13   C14   A    
C16   C17   A    
C31   O16   A    
C15   C16   A    
O5    C3    A    
C17   C18   A    
C29   H17   S    
C30   H18   S    
V2    O10   S    
O12   V3    S    
C5    C6    A    
C21   C22   D    
O12   C31   A    
O8    V2    S    
O15   C33   A    
C16   I2    S    
C15   H5    S    
O14   C32   A    
C26   H14   S    
O1    V2    S    
C10   C14   A    
C4    C14   S    
O7    V1    S    
C2    C30   S    
C7    H4    S    
C23   H11   S    
C13   C18   A    
O9    C4    A    
C3    C20   S    
H1    C17   S    
C21   H9    S    
C22   H10   S    
C24   H12   S    
C27   H15   S    
C28   H16   S    
C22   C34   S    
C5    C10   A    
C11   C12   A    
C6    H3    S    
O4    C2    A    
C27   C29   S    
C25   H13   S    
C12   C13   A    
C23   C24   D    
C1    C26   S    
C12   C15   A    
O2    C1    A    
V4    O20   S    
C19   C20   D    
O11   C32   A    
O13   V3    S    
C23   C25   S    
O3    C4    A    
O6    V2    S    
O9    V2    S    
V3    O20   S    
C9    C11   A    
C5    H2    S    
O2    V1    S    
C11   C33   S    
O1    C2    A    
C9    C10   A    
O5    V1    S    
O8    C3    A    
O13   C34   A    
O7    V2    S    
O4    V1    S    
C19   H7    S    
O3    V1    S    
V1    O10   S    
O18   V4    S    
C29   C30   D    
O15   V3    S    
C28   C31   S    
O17   V4    S    
C19   C21   S    
O17   V3    S    
C24   C32   S    
O18   C33   A    
C7    C8    A    
C25   C26   D    
C8    I1    S    
C18   H6    S    
C8    C9    A    
O14   V3    S    
