data_mof_unit_3091.cif
_audit_creation_date              2012-12-10T17:31:23-0500
_audit_creation_method            fapswitch 2.2
_symmetry_space_group_name_H-M    P1
_symmetry_Int_Tables_number       1
_space_group_crystal_system       triclinic
_cell_length_a                    19.009734
_cell_length_b                    18.365519
_cell_length_c                    12.369449
_cell_angle_alpha                 89.996804
_cell_angle_beta                  128.969761
_cell_angle_gamma                 90.003239
_cell_volume                      3357.51299473

loop_
_atom_site_label
_atom_site_type_symbol
_atom_type_description
_atom_site_fract_x
_atom_site_fract_y
_atom_site_fract_z
_atom_type_partial_charge
C1    C     C_R   0.610945 0.897098 0.650948 0.834703
C2    C     C_R   0.611066 0.102818 0.651095 0.835265
C3    C     C_R   0.110952 0.397101 0.650955 0.834711
C4    C     C_R   0.111072 0.602812 0.651104 0.835271
C5    C     C_R   0.242529 0.777130 0.035555 0.029972
C6    C     C_R   0.242399 0.222849 0.035503 0.030019
C7    C     C_R   0.742523 0.277132 0.035552 0.029969
C8    C     C_R   0.742386 0.722847 0.035500 0.030024
C9    C     C_R   0.663411 0.272016 0.024209 0.001066
C10   C     C_R   0.663672 0.728562 0.025109 0.001310
C11   C     C_R   0.163397 0.772049 0.024160 0.001049
C12   C     C_R   0.163666 0.228538 0.025068 0.001292
C13   C     C_R   0.584318 0.243679 0.902758 -0.196428
C14   C     C_R   0.584552 0.757130 0.904022 -0.196846
C15   C     C_R   0.084305 0.743723 0.902690 -0.196379
C16   C     C_R   0.084545 0.257091 0.903960 -0.196819
C17   C     C_R   0.583820 0.216161 0.797815 0.350441
C18   C     C_R   0.583708 0.784279 0.798528 0.350755
C19   C     C_R   0.083825 0.716183 0.797778 0.350452
C20   C     C_R   0.083720 0.284255 0.798490 0.350718
C21   C     C_R   0.317700 0.813840 0.150602 -0.208375
C22   C     C_R   0.317534 0.185955 0.150228 -0.208566
C23   C     C_R   0.817691 0.313853 0.150581 -0.208443
C24   C     C_R   0.817522 0.685947 0.150210 -0.208512
C25   C     C_R   0.238612 0.838149 0.241092 -0.132779
C26   C     C_R   0.239151 0.162526 0.242160 -0.131828
C27   C     C_R   0.738641 0.338110 0.241151 -0.132759
C28   C     C_R   0.739170 0.662546 0.242200 -0.131768
C29   C     C_R   0.673631 0.163407 0.733190 -0.081083
C30   C     C_R   0.673163 0.836246 0.732617 -0.081415
C31   C     C_R   0.173656 0.663385 0.733224 -0.081058
C32   C     C_R   0.173192 0.336263 0.732645 -0.081390
C33   C     C_R   0.685925 0.999930 0.288264 0.177399
C34   C     C_R   0.185908 0.500166 0.288238 0.177385
C35   C     C_R   0.343292 0.000035 0.631309 0.581152
C36   C     C_R   0.843292 0.499997 0.631307 0.581113
C37   C     C_R   0.311203 0.000042 0.706056 -0.234597
C38   C     C_R   0.811201 0.499943 0.706053 -0.234627
C39   C     C_R   0.385088 0.099768 0.343718 0.883892
C40   C     C_R   0.385067 0.900252 0.343694 0.883219
C41   C     C_R   0.885089 0.599768 0.343718 0.883927
C42   C     C_R   0.885068 0.400251 0.343694 0.883259
C43   C     C_R   0.370587 0.000022 0.849956 -0.266721
C44   C     C_R   0.870583 0.499912 0.849953 -0.266761
C45   C     C_R   0.464452 0.999997 0.923451 0.018411
C46   C     C_R   0.964448 0.499949 0.923448 0.018413
C47   C     C_R   0.495451 0.999986 0.843091 0.238301
C48   C     C_R   0.995449 0.499987 0.843091 0.238288
C49   C     C_R   0.528253 0.999987 0.073618 -0.036603
C50   C     C_R   0.028244 0.499976 0.073611 -0.036631
C51   C     C_R   0.622232 0.999954 0.141333 0.096715
C52   C     C_R   0.122219 0.500091 0.141319 0.096722
C53   C     C_R   0.650932 0.999956 0.061383 -0.211898
C54   C     C_R   0.150928 0.500128 0.061381 -0.211901
C55   C     C_R   0.589481 0.999974 0.916979 -0.173065
C56   C     C_R   0.089482 0.500039 0.916982 -0.173063
C57   C     C_R   0.502820 0.000012 0.160330 0.020012
C58   C     C_R   0.002816 0.499923 0.160330 0.019966
C59   C     C_R   0.655836 0.999962 0.365981 0.056527
C60   C     C_R   0.155831 0.500119 0.365965 0.056529
C61   C     C_R   0.663535 0.300028 0.130772 0.392344
C62   C     C_R   0.664165 0.700895 0.132232 0.392412
C63   C     C_R   0.163501 0.800081 0.130693 0.392378
C64   C     C_R   0.164142 0.200861 0.132170 0.392390
C65   C     C_R   0.313936 0.848047 0.247330 -0.111011
C66   C     C_R   0.314055 0.152076 0.247500 -0.110974
C67   C     C_R   0.813941 0.348040 0.247338 -0.111009
C68   C     C_R   0.814058 0.652078 0.247505 -0.110976
C69   C     C_R   0.749254 0.170730 0.738583 -0.167916
C70   C     C_R   0.748326 0.828275 0.736988 -0.167085
C71   C     C_R   0.249305 0.670672 0.738676 -0.167966
C72   C     C_R   0.248384 0.328331 0.737074 -0.167144
C73   C     C_R   0.319678 0.716602 0.834771 -0.068866
C74   C     C_R   0.318477 0.282036 0.832597 -0.068575
C75   C     C_R   0.819615 0.216677 0.834652 -0.068870
C76   C     C_R   0.818398 0.781954 0.832471 -0.068533
C77   C     C_R   0.318664 0.752265 0.932724 -0.112274
C78   C     C_R   0.317723 0.246684 0.931060 -0.111880
C79   C     C_R   0.818618 0.252319 0.932638 -0.112275
C80   C     C_R   0.817657 0.746620 0.930960 -0.111841
C81   C     C_R   0.743593 0.245975 0.931192 0.046945
C82   C     C_R   0.743125 0.753645 0.930578 0.047276
C83   C     C_R   0.243616 0.745954 0.931224 0.046932
C84   C     C_R   0.243157 0.253664 0.930612 0.047257
C85   C     C_R   0.665989 0.207701 0.819515 0.000065
C86   C     C_R   0.665644 0.792216 0.819367 -0.000065
C87   C     C_R   0.166006 0.707695 0.819525 0.000061
C88   C     C_R   0.165668 0.292217 0.819372 -0.000056
Cu1   Cu    Cu3+1 0.526340 1.000000 0.421010 0.972955
Cu2   Cu    Cu3+1 0.026340 0.500000 0.421010 0.972950
Cu3   Cu    Cu3+1 0.473640 1.000000 0.578990 1.045128
Cu4   Cu    Cu3+1 0.973640 0.500000 0.578990 1.045106
H1    H     H_    0.236344 0.862479 0.318481 0.232381
H2    H     H_    0.237143 0.138485 0.320016 0.232105
H3    H     H_    0.736387 0.362422 0.318566 0.232361
H4    H     H_    0.737171 0.638511 0.320069 0.232092
H5    H     H_    0.722087 0.999957 0.109752 0.206076
H6    H     H_    0.222084 0.500226 0.109757 0.206089
H7    H     H_    0.433060 0.000040 0.117728 0.130927
H8    H     H_    0.933059 0.499829 0.117737 0.130932
H9    H     H_    0.340692 0.000029 0.900469 0.161186
H10   H     H_    0.840692 0.499884 0.900469 0.161183
H11   H     H_    0.239057 0.000067 0.651811 0.202561
H12   H     H_    0.739056 0.499934 0.651806 0.202559
H13   H     H_    0.619478 0.999991 0.867723 0.196931
H14   H     H_    0.119483 0.500030 0.867734 0.196916
H15   H     H_    0.520745 0.246740 0.884356 0.205456
H16   H     H_    0.521185 0.754505 0.886314 0.205289
H17   H     H_    0.020722 0.746810 0.884251 0.205468
H18   H     H_    0.021167 0.254448 0.886219 0.205296
H19   H     H_    0.379860 0.818726 0.166184 0.172386
H20   H     H_    0.379445 0.180725 0.165163 0.172345
H21   H     H_    0.879835 0.318761 0.166124 0.172379
H22   H     H_    0.879424 0.680708 0.165121 0.172357
H23   H     H_    0.755665 0.138975 0.671370 0.174209
H24   H     H_    0.754597 0.859756 0.669358 0.174545
H25   H     H_    0.255724 0.638900 0.671489 0.174181
H26   H     H_    0.254663 0.359829 0.669469 0.174527
H27   H     H_    0.377316 0.785023 0.006351 0.161094
H28   H     H_    0.376152 0.213597 0.004188 0.159704
H29   H     H_    0.877264 0.285088 0.006248 0.161029
H30   H     H_    0.876062 0.713505 0.004048 0.159619
H31   H     H_    0.377403 0.722028 0.837387 0.179753
H32   H     H_    0.375818 0.276067 0.834370 0.179197
H33   H     H_    0.877321 0.222131 0.837224 0.179716
H34   H     H_    0.875709 0.775945 0.834182 0.179168
H35   H     H_    0.704220 0.999946 0.478400 0.149443
H36   H     H_    0.204215 0.500183 0.478377 0.149426
N1    N     N_R   0.566260 0.000000 0.302220 -0.204803
N2    N     N_R   0.066260 0.500000 0.302220 -0.204805
N3    N     N_R   0.434410 1.000000 0.697680 -0.221201
N4    N     N_R   0.934410 0.500000 0.697680 -0.221217
O1    O     O_R   0.608610 0.924520 0.551740 -0.588098
O2    O     O_R   0.608610 0.075480 0.551740 -0.587884
O3    O     O_R   0.108610 0.424520 0.551740 -0.588045
O4    O     O_R   0.108610 0.575480 0.551740 -0.587921
O5    O     O_R   0.564110 0.924510 0.685150 -0.578369
O6    O     O_R   0.564110 0.075490 0.685150 -0.578532
O7    O     O_R   0.064110 0.424510 0.685150 -0.578358
O8    O     O_R   0.064110 0.575490 0.685150 -0.578550
O9    O     O_R   0.435880 0.075470 0.314850 -0.603398
O10   O     O_R   0.435880 0.924530 0.314850 -0.603275
O11   O     O_R   0.935880 0.575470 0.314850 -0.603362
O12   O     O_R   0.935880 0.424530 0.314850 -0.603319
O13   O     O_R   0.391380 0.075460 0.448260 -0.510371
O14   O     O_R   0.391380 0.924540 0.448260 -0.510021
O15   O     O_R   0.891380 0.575460 0.448260 -0.510376
O16   O     O_R   0.891380 0.424540 0.448260 -0.510040
Br1   Br    Br    0.814607 0.999841 0.389787 -0.452400
Br2   Br    Br    0.314580 0.500342 0.389724 -0.452493
Cl1   Cl    Cl    0.260708 0.000097 0.449694 -0.602286
Cl2   Cl    Cl    0.760708 0.500087 0.449691 -0.602304
Cl3   Cl    Cl    0.570124 0.291299 0.128317 -0.632948
Cl4   Cl    Cl    0.571359 0.710457 0.131076 -0.634511
Cl5   Cl    Cl    0.070062 0.791394 0.128175 -0.632781
Cl6   Cl    Cl    0.071309 0.210392 0.130957 -0.634435
Cl7   Cl    Cl    0.476722 0.210641 0.631982 -0.597761
Cl8   Cl    Cl    0.476366 0.789824 0.633063 -0.597018
Cl9   Cl    Cl    0.976742 0.710666 0.631924 -0.597673
Cl10  Cl    Cl    0.976386 0.289797 0.633007 -0.597142

loop_
_geom_bond_atom_site_label_1
_geom_bond_atom_site_label_2
_ccdc_geom_bond_type
C26   H2    S    
C74   H32   S    
C4    O8    A    
C24   H22   S    
C40   O10   A    
Cu4   O16   S    
C76   H34   S    
C14   C18   A    
C27   H3    S    
C13   H15   S    
C42   O16   A    
C34   Br2   S    
C16   H18   S    
C32   C72   A    
C80   H30   S    
C78   H28   S    
C25   H1    S    
C79   H29   S    
C18   C86   A    
C20   Cl10  S    
C55   H13   S    
C2    C29   S    
C9    C61   A    
C57   N1    A    
C28   C68   A    
C5    C11   A    
C19   C87   A    
C36   N4    A    
C6    C12   A    
C12   C64   A    
Cu1   O9    S    
Cu3   N3    S    
C77   C83   A    
C59   H35   S    
Cu1   O10   S    
C32   C88   A    
C49   C57   A    
C48   C56   A    
C25   C63   A    
C23   C67   A    
C29   C69   A    
C9    C13   A    
C22   C66   A    
C38   H12   S    
C27   C61   A    
C6    C84   A    
C21   H19   S    
Cu3   O5    S    
C11   C15   A    
C59   N1    A    
C39   O9    A    
C44   C46   A    
C49   C51   A    
C50   C52   A    
C30   C86   A    
C17   Cl7   S    
C29   C85   A    
Cu2   O11   S    
C4    O4    A    
C21   C65   A    
C6    C22   A    
C45   C47   A    
C33   C59   A    
Cu4   O15   S    
C34   C60   A    
C10   C62   A    
C35   Cl1   S    
C1    O1    A    
C30   C70   A    
C52   C54   A    
C41   C68   S    
C46   C48   A    
C53   C55   A    
C54   C56   A    
C14   H16   S    
Cu1   O1    S    
C71   H25   S    
C2    O6    A    
C12   C16   A    
C60   H36   S    
C58   H8    S    
C72   C74   A    
C10   C14   A    
C60   N2    A    
C71   C73   A    
C44   H10   S    
C36   Cl2   S    
C53   H5    S    
C82   C86   A    
C62   Cl4   S    
C47   N3    A    
C75   H33   S    
C26   C66   A    
C37   C43   A    
C15   C19   A    
C43   H9    S    
C38   C44   A    
C18   Cl8   S    
C23   H21   S    
Cu3   O6    S    
Cu2   O4    S    
Cu2   Cu4   S    
C41   O15   A    
C45   C49   A    
C16   C20   A    
C39   O13   A    
C50   C58   A    
C25   C65   A    
C2    O2    A    
C43   C45   A    
C56   H14   S    
C80   C82   A    
C7    C81   A    
C22   H20   S    
C40   C65   S    
C70   C76   A    
C42   C67   S    
C39   C66   S    
C17   C85   A    
C31   C87   A    
C3    O7    A    
C72   H26   S    
Cu4   O8    S    
C35   N3    A    
Cu3   O13   S    
C1    O5    A    
C47   C55   A    
C7    C9    A    
C46   C50   A    
C69   H23   S    
Cu1   O2    S    
C35   C37   A    
C34   C52   A    
C48   N4    A    
C76   C80   A    
C77   H27   S    
C61   Cl3   S    
C83   C87   A    
C37   H11   S    
C79   C81   A    
C5    C83   A    
C41   O11   A    
C40   O14   A    
C26   C64   A    
C33   C51   A    
Cu4   N4    S    
C64   Cl6   S    
C11   C63   A    
C13   C17   A    
C28   H4    S    
C19   Cl9   S    
C36   C38   A    
C63   Cl5   S    
C73   H31   S    
C33   Br1   S    
C42   O12   A    
Cu2   O3    S    
Cu4   O7    S    
C15   H17   S    
C84   C88   A    
C58   N2    A    
C7    C23   A    
C20   C88   A    
C31   C71   A    
C1    C30   S    
C8    C24   A    
C69   C75   A    
C3    O3    A    
C3    C32   S    
C81   C85   A    
C4    C31   S    
C27   C67   A    
C24   C68   A    
Cu2   N2    S    
C78   C84   A    
C8    C82   A    
C5    C21   A    
C8    C10   A    
Cu1   Cu3   S    
C74   C78   A    
C70   H24   S    
C73   C77   A    
C54   H6    S    
C51   C53   A    
Cu1   N1    S    
C75   C79   A    
Cu3   O14   S    
Cu2   O12   S    
C28   C62   A    
C57   H7    S    
