data_mof_unit_4698.cif
_audit_creation_date              2012-10-26T20:32:27-0400
_audit_creation_method            fapswitch 2.2
_symmetry_space_group_name_H-M    P1
_symmetry_Int_Tables_number       1
_space_group_crystal_system       triclinic
_cell_length_a                    19.27197
_cell_length_b                    10.870795
_cell_length_c                    9.616578
_cell_angle_alpha                 90.692143
_cell_angle_beta                  91.790018
_cell_angle_gamma                 90.191001
_cell_volume                      2013.54487362

loop_
_atom_site_label
_atom_site_type_symbol
_atom_type_description
_atom_site_fract_x
_atom_site_fract_y
_atom_site_fract_z
_atom_type_partial_charge
C1    C     C_R   0.500637 0.261987 0.499597 0.552573
C2    C     C_R   0.855653 0.541710 0.499988 0.013192
C3    C     C_R   0.498849 0.061372 0.621925 0.040025
C4    C     C_R   0.367854 0.505468 0.498353 0.527508
C5    C     C_R   0.494311 0.127875 0.498430 0.013153
C6    C     C_R   0.470405 0.065625 0.377137 -0.153738
C7    C     C_R   0.461261 0.936900 0.374634 -0.004593
C8    C     C_R   0.478396 0.869833 0.497847 0.009172
C9    C     C_R   0.485865 0.936524 0.622256 -0.057594
C10   C     C_3   0.534227 0.914483 0.741259 -0.212697
C11   C     C_3   0.555740 0.049830 0.733046 0.291477
C12   C     C_R   0.292692 0.526056 0.493985 -0.018921
C13   C     C_R   0.525063 0.597719 0.078007 0.122263
C14   C     C_R   0.460847 0.416707 0.067522 0.119839
C15   C     C_R   0.464517 0.414194 0.919726 -0.005080
C16   C     C_R   0.492824 0.736858 0.499291 0.529138
C17   C     C_R   0.525460 0.599272 0.932274 0.147060
C18   C     C_3   0.595217 0.667065 0.945964 -0.166311
C19   C     C_3   0.591998 0.659082 0.103043 -0.245033
C20   C     C_R   0.632906 0.503265 0.501712 0.550046
C21   C     C_R   0.262220 0.624843 0.567967 0.007685
C22   C     C_R   0.189680 0.642546 0.555383 0.289366
C23   C     C_R   0.931069 0.555787 0.489078 0.325529
C24   C     C_R   0.147888 0.557953 0.476881 0.021876
C25   C     C_R   0.179577 0.462950 0.402489 -0.176383
C26   C     C_R   0.251112 0.447877 0.410326 -0.174204
C27   C     C_3   0.305746 0.714268 0.657141 -0.242096
C28   C     C_3   0.305999 0.678656 0.810280 -0.396436
C29   C     C_3   0.432531 0.878058 0.240738 -0.260369
C30   C     C_3   0.362223 0.816820 0.261748 -0.417520
C31   C     C_3   0.541154 0.130295 0.862495 -0.231733
C32   C     C_3   0.582471 0.093493 0.993558 -0.449865
C33   C     C_3   0.674542 0.991788 0.722716 -0.149465
C34   C     C_R   0.071317 0.563277 0.477480 0.338902
C35   C     C_3   0.407751 0.329550 0.125155 -0.259808
C36   C     C_3   0.333994 0.363301 0.075900 -0.462227
C37   C     C_3   0.659346 0.604989 0.888919 -0.228824
C38   C     C_3   0.727209 0.661085 0.948113 -0.452223
C39   C     C_3   0.148493 0.836506 0.528322 -0.115875
C40   C     C_3   0.869454 0.437734 0.737918 -0.260109
C41   C     C_3   0.913238 0.326008 0.699089 -0.428006
C42   C     C_3   0.711362 0.289887 0.696346 -0.094770
C43   C     C_R   0.825334 0.484349 0.615187 0.031559
C44   C     C_R   0.752280 0.468856 0.614609 0.250910
C45   C     C_R   0.709957 0.513939 0.503903 -0.002576
C46   C     C_R   0.741749 0.571666 0.393021 -0.187867
C47   C     C_R   0.813432 0.583474 0.389813 -0.154485
Cu1   Cu    Cu3+1 0.500000 0.499980 0.640670 0.918835
Cu2   Cu    Cu3+1 0.500000 0.500020 0.359330 0.906423
H1    H     H_    0.504686 0.891464 0.835061 0.091436
H2    H     H_    0.836100 0.628059 0.301724 0.132978
H3    H     H_    0.459797 0.116990 0.283410 0.112247
H4    H     H_    0.326239 0.583979 0.824302 0.168383
H5    H     H_    0.339772 0.743293 0.872107 0.120422
H6    H     H_    0.252634 0.683359 0.850325 0.181380
H7    H     H_    0.359808 0.719434 0.622109 0.148260
H8    H     H_    0.285694 0.809382 0.646800 0.155840
H9    H     H_    0.366452 0.743167 0.340131 0.171278
H10   H     H_    0.324122 0.886110 0.296940 0.134611
H11   H     H_    0.342707 0.775292 0.161893 0.132712
H12   H     H_    0.573921 0.846350 0.712675 0.138247
H13   H     H_    0.424763 0.948295 0.158614 0.118096
H14   H     H_    0.469583 0.811898 0.197106 0.168948
H15   H     H_    0.575253 0.994414 0.015903 0.130354
H16   H     H_    0.638442 0.114088 0.982687 0.152484
H17   H     H_    0.563992 0.147789 0.083644 0.147278
H18   H     H_    0.554244 0.227240 0.839727 0.183322
H19   H     H_    0.484985 0.125640 0.885428 0.095507
H20   H     H_    0.678878 0.913001 0.648976 0.131382
H21   H     H_    0.667021 0.957332 0.829430 0.107307
H22   H     H_    0.725196 0.039935 0.723831 0.113891
H23   H     H_    0.436709 0.344542 0.858802 0.121159
H24   H     H_    0.321413 0.458343 0.110448 0.168176
H25   H     H_    0.327744 0.356824 0.960940 0.139907
H26   H     H_    0.296350 0.298481 0.120762 0.131541
H27   H     H_    0.419225 0.234424 0.089349 0.093945
H28   H     H_    0.406938 0.327930 0.238103 0.216197
H29   H     H_    0.726741 0.762703 0.937221 0.133640
H30   H     H_    0.735758 0.637781 0.059204 0.142129
H31   H     H_    0.771537 0.623974 0.889947 0.168380
H32   H     H_    0.657587 0.505053 0.911137 0.217701
H33   H     H_    0.659348 0.622994 0.776512 0.205745
H34   H     H_    0.592028 0.764242 0.916010 0.109070
H35   H     H_    0.108119 0.810707 0.448025 0.133395
H36   H     H_    0.197177 0.863809 0.477208 0.086930
H37   H     H_    0.129434 0.918267 0.585497 0.147704
H38   H     H_    0.880583 0.253878 0.646853 0.142982
H39   H     H_    0.955488 0.351656 0.629374 0.182170
H40   H     H_    0.937485 0.286796 0.794921 0.142141
H41   H     H_    0.903261 0.512398 0.781271 0.165569
H42   H     H_    0.836824 0.410536 0.825562 0.183170
H43   H     H_    0.760574 0.242400 0.672320 0.105540
H44   H     H_    0.672795 0.277037 0.608944 0.181871
H45   H     H_    0.629452 0.594307 0.150742 0.159535
H46   H     H_    0.690501 0.247549 0.790598 0.171665
H47   H     H_    0.587361 0.749806 0.156293 0.112846
H48   H     H_    0.148780 0.397497 0.341026 0.144299
H49   H     H_    0.274046 0.372088 0.354310 0.119418
H50   H     H_    0.711152 0.610874 0.309471 0.118835
N1    N     N_R   0.032362 0.511434 0.372087 -0.250953
N2    N     N_R   0.963470 0.508108 0.377556 -0.232781
N3    N     N_R   0.969719 0.609992 0.592966 -0.244046
N4    N     N_R   0.038560 0.613325 0.587438 -0.169000
N5    N     N_R   0.500440 0.500930 0.147930 -0.226311
N6    N     N_R   0.500440 0.500890 0.852020 -0.247003
O1    O     O_R   0.500000 0.319640 0.618810 -0.510054
O2    O     O_3   0.159913 0.740733 0.624173 -0.554639
O3    O     O_3   0.722328 0.414817 0.726625 -0.619510
O4    O     O_R   0.500010 0.319680 0.381230 -0.524134
O5    O     O_R   0.400140 0.499970 0.618830 -0.502412
O6    O     O_R   0.400150 0.500010 0.381250 -0.519436
O7    O     O_R   0.499990 0.680320 0.618770 -0.513548
O8    O     O_R   0.500000 0.680360 0.381190 -0.505950
O9    O     O_R   0.599850 0.499990 0.618750 -0.471829
O10   O     O_R   0.599860 0.500030 0.381170 -0.504441
O11   O     O_3   0.621522 0.072445 0.674466 -0.583700

loop_
_geom_bond_atom_site_label_1
_geom_bond_atom_site_label_2
_ccdc_geom_bond_type
Cu2   O8    S    
C46   H50   S    
C29   H14   S    
C7    C29   S    
C42   H44   S    
C41   H40   S    
C35   C36   S    
C16   O8    A    
Cu2   N5    S    
C7    C8    A    
C45   C46   A    
C39   O2    S    
C15   H23   S    
C29   C30   S    
C1    C5    S    
C32   H17   S    
C18   C37   S    
C39   H35   S    
C5    C6    A    
C23   N3    A    
C38   H30   S    
C22   O2    S    
C18   C19   S    
C1    O4    A    
C29   H13   S    
C40   C43   S    
Cu1   O1    S    
C31   C32   S    
C8    C9    A    
C30   H11   S    
C34   N1    A    
C4    C12   S    
C9    C10   S    
C20   C45   S    
C33   H20   S    
C1    O1    A    
Cu2   O6    S    
C21   C27   S    
C11   C31   S    
C8    C16   S    
C21   C22   A    
C37   H32   S    
C28   H6    S    
C18   H34   S    
C44   O3    S    
C31   H19   S    
C41   H38   S    
C35   H27   S    
C13   C19   S    
C42   H46   S    
C24   C25   A    
C32   H15   S    
C27   H8    S    
C14   C35   S    
C28   H5    S    
C27   H7    S    
C47   H2    S    
C38   H29   S    
C25   C26   A    
C12   C21   A    
C35   H28   S    
C24   C34   S    
C12   C26   A    
C31   H18   S    
C43   C44   A    
C37   C38   S    
C3    C9    A    
C36   H26   S    
C17   N6    A    
C14   N5    A    
Cu1   N6    S    
C2    C43   A    
C30   H10   S    
C17   C18   S    
C13   N5    A    
C11   O11   S    
C19   H45   S    
C36   H25   S    
C33   H21   S    
C26   H49   S    
C25   H48   S    
Cu1   Cu2   S    
Cu2   O10   S    
C4    O6    A    
C22   C24   A    
C37   H33   S    
C10   H12   S    
C39   H36   S    
C10   H1    S    
C2    C23   S    
C44   C45   A    
C16   O7    A    
Cu1   O9    S    
C41   H39   S    
C4    O5    A    
C46   C47   A    
C40   C41   S    
C33   O11   S    
Cu1   O7    S    
C3    C5    A    
C20   O10   A    
C28   H4    S    
C6    C7    A    
C2    C47   A    
C34   N4    A    
C13   C17   A    
C6    H3    S    
C15   N6    A    
Cu2   O4    S    
C20   O9    A    
C23   N2    A    
C38   H31   S    
C30   H9    S    
N1    N2    A    
C42   H43   S    
C40   H42   S    
N3    N4    A    
C3    C11   S    
C10   C11   S    
C33   H22   S    
C27   C28   S    
C14   C15   A    
C39   H37   S    
C40   H41   S    
Cu1   O5    S    
C42   O3    S    
C36   H24   S    
C19   H47   S    
C32   H16   S    
