data_mof_unit_3077.cif
_audit_creation_date              2012-12-10T16:56:31-0500
_audit_creation_method            fapswitch 2.2
_symmetry_space_group_name_H-M    P1
_symmetry_Int_Tables_number       1
_space_group_crystal_system       triclinic
_cell_length_a                    7.769017
_cell_length_b                    8.569315
_cell_length_c                    15.705792
_cell_angle_alpha                 90.800415
_cell_angle_beta                  85.91645
_cell_angle_gamma                 93.661102
_cell_volume                      1040.78587916

loop_
_atom_site_label
_atom_site_type_symbol
_atom_type_description
_atom_site_fract_x
_atom_site_fract_y
_atom_site_fract_z
_atom_type_partial_charge
C1    C     C_R   0.545799 0.794739 0.497802 0.961614
C2    C     C_R   0.454201 0.205261 0.502198 0.961614
C3    C     C_R   0.502204 0.499879 0.661953 0.903084
C4    C     C_R   0.497796 0.500120 0.338047 0.903083
C5    C     C_2   0.569906 0.958246 0.496549 -0.380306
C6    C     C_2   0.430094 0.041753 0.503451 -0.380306
C7    C     C_3   0.422870 0.625770 0.029704 0.236377
C8    C     C_3   0.577130 0.374230 0.970296 0.236376
C9    C     C_3   0.589528 0.630502 0.969973 -0.212188
C10   C     C_3   0.410472 0.369498 0.030026 -0.212189
C11   C     C_1   0.506546 0.499029 0.750699 -0.180976
C12   C     C_1   0.493454 0.500971 0.249301 -0.180976
C13   C     C_3   0.336717 0.495626 0.975374 -0.210629
C14   C     C_3   0.663283 0.504373 0.024626 -0.210628
C15   C     C_3   0.504260 0.498935 0.916960 0.117209
C16   C     C_3   0.495740 0.501065 0.083040 0.117209
C17   C     C_1   0.507113 0.498677 0.825993 -0.075265
C18   C     C_1   0.492887 0.501323 0.174007 -0.075265
H1    H     H_    0.661682 0.737045 0.943529 0.143415
H2    H     H_    0.338318 0.262955 0.056471 0.143415
H3    H     H_    0.796166 0.507111 0.046616 0.143286
H4    H     H_    0.203834 0.492889 0.953384 0.143287
H5    H     H_    0.701933 0.009356 0.489968 0.180766
H6    H     H_    0.298067 0.990644 0.510032 0.180766
H7    H     H_    0.013412 0.382050 0.436438 0.192613
H8    H     H_    0.986588 0.617950 0.563562 0.192613
N1    N     N_2   0.950320 0.457950 0.477300 -0.173233
N2    N     N_2   0.049680 0.542050 0.522700 -0.173233
O1    O     O_R   0.389250 0.738570 0.505570 -0.613054
O2    O     O_R   0.610750 0.261430 0.494430 -0.613054
O3    O     O_R   0.678390 0.711630 0.491020 -0.631010
O4    O     O_R   0.321610 0.288370 0.508980 -0.631010
O5    O     O_R   0.355460 0.513480 0.630490 -0.611620
O6    O     O_R   0.644540 0.486520 0.369510 -0.611620
O7    O     O_R   0.644600 0.486540 0.615950 -0.622845
O8    O     O_R   0.355400 0.513460 0.384050 -0.622844
Zn1   Zn    Zn3+2 0.306940 0.517990 0.509710 0.945077
Zn2   Zn    Zn3+2 0.693060 0.482010 0.490290 0.945077
C19   C     C_3   0.335122 0.768696 0.066793 -0.418296
C20   C     C_3   0.276153 0.869804 0.996563 -0.881495
H9    H     H_    0.388317 0.911255 0.953155 0.265267
H10   H     H_    0.180350 0.802244 0.959077 0.259378
H11   H     H_    0.214557 0.973135 0.025587 0.248157
H12   H     H_    0.221393 0.729071 0.109724 0.209517
H13   H     H_    0.427503 0.839164 0.104895 0.205156
C21   C     C_3   0.664877 0.231303 0.933207 -0.418296
C22   C     C_3   0.723852 0.130197 0.003437 -0.881488
H14   H     H_    0.819657 0.197759 0.040921 0.259377
H15   H     H_    0.611689 0.088747 0.046846 0.265267
H16   H     H_    0.785446 0.026866 0.974412 0.248156
H17   H     H_    0.572494 0.160834 0.895106 0.205155
H18   H     H_    0.778605 0.270929 0.890274 0.209517

loop_
_geom_bond_atom_site_label_1
_geom_bond_atom_site_label_2
_ccdc_geom_bond_type
C9    C14   S    
C4    O8    A    
C19   H12   S    
C4    C12   S    
H8    N2    S    
C22   H14   S    
C5    H5    S    
O3    Zn2   S    
C3    O7    A    
C22   H16   S    
C19   H13   S    
C6    H6    S    
C7    C9    S    
C20   H11   S    
C20   H10   S    
C9    C15   S    
C22   H15   S    
C16   C18   S    
C10   C16   S    
O4    Zn1   S    
O5    Zn1   S    
C2    C6    S    
N2    Zn1   S    
C1    C5    S    
C14   H3    S    
C1    O1    A    
O8    Zn1   S    
C13   H4    S    
C8    C15   S    
C14   C16   S    
C13   C15   S    
C1    O3    A    
C5    C6    D    
C4    O6    A    
H7    N1    S    
C2    O2    A    
C3    O5    A    
N1    Zn2   S    
C12   C18   T    
C21   H18   S    
C7    C13   S    
O7    Zn2   S    
C3    C11   S    
O2    Zn2   S    
C2    O4    A    
O1    Zn1   S    
C19   C20   S    
C15   C17   S    
C7    C19   S    
C21   C22   S    
C20   H9    S    
C8    C14   S    
C8    C21   S    
O6    Zn2   S    
C21   H17   S    
C9    H1    S    
C8    C10   S    
C7    C16   S    
C10   H2    S    
N1    N2    D    
C10   C13   S    
C11   C17   T    
