data_mof_unit_345.cif
_audit_creation_date              2012-12-11T15:52:37-0500
_audit_creation_method            fapswitch 2.2
_symmetry_space_group_name_H-M    P1
_symmetry_Int_Tables_number       1
_space_group_crystal_system       triclinic
_cell_length_a                    6.927187
_cell_length_b                    14.56146
_cell_length_c                    16.024477
_cell_angle_alpha                 90.329656
_cell_angle_beta                  89.917687
_cell_angle_gamma                 90.069574
_cell_volume                      1616.35869882

loop_
_atom_site_label
_atom_site_type_symbol
_atom_type_description
_atom_site_fract_x
_atom_site_fract_y
_atom_site_fract_z
_atom_type_partial_charge
O1    O     O_R   0.494400 0.415640 0.412830 -0.542598
O2    O     O_R   0.823920 0.405510 0.586560 -0.540256
O3    O     O_R   0.994250 0.584360 0.587170 -0.539341
C1    C     C_R   0.653740 0.382629 0.615072 0.709662
O4    O     O_R   0.824110 0.404610 0.413450 -0.544934
O5    O     O_R   0.994440 0.583460 0.412820 -0.541021
C2    C     C_R   0.655062 0.382178 0.384342 0.678652
O6    O     O_R   0.494210 0.416540 0.587180 -0.528922
O7    O     O_3   0.660810 0.558680 0.500000 -0.372193
V1    V     V_3+5 0.935650 0.489110 0.500000 1.402031
O8    O     O_R   0.324150 0.594490 0.413440 -0.544500
C3    C     C_R   0.155190 0.616664 0.384335 0.680212
O9    O     O_R   0.323970 0.595390 0.586550 -0.541454
C4    C     C_R   0.155132 0.617699 0.615587 0.676525
V2    V     V_3+5 0.435660 0.510890 0.500000 1.403561
O10   O     O_3   0.160630 0.441320 0.500000 -0.369591
C5    C     C_3   0.046721 0.645167 0.764485 -0.309744
H1    H     H_    0.898778 0.620990 0.748486 0.139874
H2    H     H_    0.130044 0.584201 0.785362 0.143711
C6    C     C_3   0.034084 0.716359 0.836977 -0.328411
H3    H     H_    0.111345 0.689480 0.892537 0.127106
H4    H     H_    0.880231 0.725937 0.855104 0.140572
H5    H     H_    0.876975 0.751774 0.641781 0.140736
H6    H     H_    0.858489 0.856424 0.748590 0.136608
C7    C     C_3   0.025418 0.773051 0.660121 -0.323446
C8    C     C_3   0.349053 0.721328 0.712447 -0.317668
C9    C     C_3   0.144612 0.687668 0.686354 0.105927
H7    H     H_    0.423308 0.753280 0.658207 0.134498
H8    H     H_    0.438501 0.662002 0.732601 0.140757
C10   C     C_3   0.123142 0.809716 0.810736 0.116098
C11   C     C_3   0.012815 0.844176 0.732660 -0.321145
C12   C     C_3   0.336666 0.792029 0.784490 -0.306434
H9    H     H_    0.420480 0.766162 0.838707 0.139238
H10   H     H_    0.405271 0.857447 0.764338 0.132121
H11   H     H_    0.093161 0.805678 0.604685 0.122068
H12   H     H_    0.074472 0.910871 0.711927 0.120871
C13   C     C_R   0.953208 0.773691 0.216090 -0.158559
H13   H     H_    0.812343 0.791909 0.192178 0.116059
C14   C     C_R   0.964365 0.710577 0.281633 -0.152597
H14   H     H_    0.831490 0.682006 0.305968 0.118246
C15   C     C_R   0.144084 0.684633 0.315127 -0.047420
C16   C     C_R   0.312317 0.723658 0.281090 -0.158793
H15   H     H_    0.453182 0.705439 0.305001 0.115620
C17   C     C_R   0.301160 0.786775 0.215549 -0.152825
H16   H     H_    0.434035 0.815348 0.191215 0.118343
C18   C     C_R   0.121441 0.812718 0.182054 -0.048570
C19   C     C_R   0.804095 0.263942 0.707338 -0.192581
H17   H     H_    0.940083 0.274377 0.675795 0.157247
C20   C     C_R   0.795918 0.199997 0.772068 -0.151345
H18   H     H_    0.926295 0.163396 0.788577 0.130917
C21   C     C_R   0.621620 0.182972 0.814255 -0.117475
C22   C     C_R   0.456234 0.231457 0.790358 -0.174228
H19   H     H_    0.319800 0.219735 0.821725 0.140819
C23   C     C_R   0.462045 0.294493 0.724952 0.338000
C24   C     C_R   0.638909 0.312829 0.682818 -0.134301
C25   C     C_R   0.812179 0.274162 0.281246 -0.158278
H20   H     H_    0.953023 0.292714 0.305266 0.115768
C26   C     C_R   0.801086 0.210296 0.215700 -0.151187
H21   H     H_    0.933949 0.181480 0.191440 0.119017
C27   C     C_R   0.621390 0.183944 0.182112 -0.046883
C28   C     C_R   0.453098 0.223264 0.216016 -0.156747
H22   H     H_    0.312260 0.204707 0.191994 0.117068
C29   C     C_R   0.464192 0.287132 0.281566 -0.153409
H23   H     H_    0.331336 0.315950 0.305831 0.118223
C30   C     C_R   0.643894 0.313486 0.315148 -0.045594
O11   O     O_R   0.771300 0.080930 0.910090 -0.539348
O12   O     O_R   0.441270 0.092800 0.083770 -0.542856
O13   O     O_R   0.271080 0.913920 0.084380 -0.540114
C31   C     C_R   0.610281 0.115257 0.112910 0.689297
O14   O     O_R   0.441580 0.091910 0.910670 -0.545176
O15   O     O_R   0.271390 0.913020 0.910040 -0.541720
C32   C     C_R   0.610870 0.114238 0.882102 0.706275
O16   O     O_R   0.770990 0.081830 0.084440 -0.539817
O17   O     O_3   0.604750 0.938760 0.997250 -0.370857
V3    V     V_3+5 0.329850 0.008280 0.997210 1.392090
O18   O     O_R   0.941680 0.901940 0.910610 -0.544180
C33   C     C_R   0.110976 0.879659 0.881564 0.652416
O19   O     O_R   0.941370 0.902830 0.083720 -0.543264
C34   C     C_R   0.110332 0.880688 0.112847 0.684840
V4    V     V_3+5 0.829860 0.986420 0.997150 1.390472
O20   O     O_3   0.104830 0.056030 0.997180 -0.366322
O21   O     O_3   0.292541 0.337658 0.704714 -0.650049
H24   H     H_    0.262704 0.318461 0.646706 0.284606

loop_
_geom_bond_atom_site_label_1
_geom_bond_atom_site_label_2
_ccdc_geom_bond_type
C7    C11   S    
O15   V3    S    
C29   C30   A    
C8    C12   S    
C15   C16   A    
C23   O21   S    
C1    O6    A    
C19   C20   A    
C6    C10   S    
C17   H16   S    
O13   V3    S    
C8    C9    S    
C3    C15   S    
O5    C3    A    
C18   C34   S    
O19   V4    S    
C26   C27   A    
C25   C30   A    
C5    C6    S    
C25   H20   S    
C28   C29   A    
C10   C33   S    
O8    V2    S    
O11   C32   A    
C17   C18   A    
C20   C21   A    
C31   O16   A    
O1    V2    S    
C4    C9    S    
O7    V1    S    
O13   C34   A    
O17   V4    S    
O9    C4    A    
C16   C17   A    
C22   C23   A    
O17   V3    S    
C21   C22   A    
C5    C9    S    
O18   C33   A    
C14   C15   A    
C14   H14   S    
O4    C2    A    
O19   C34   A    
V3    O20   S    
C26   H21   S    
C27   C28   A    
O12   C31   A    
C12   H10   S    
O2    C1    A    
C13   H13   S    
C2    C30   S    
C19   H17   S    
C5    H1    S    
O3    C4    A    
C7    H11   S    
C6    H4    S    
O21   H24   S    
O6    V2    S    
O9    V2    S    
C1    C24   S    
O12   V3    S    
C21   C32   S    
O2    V1    S    
O15   C33   A    
C22   H19   S    
C19   C24   A    
C23   C24   A    
O1    C2    A    
O18   V4    S    
V4    O20   S    
O5    V1    S    
O8    C3    A    
C7    C9    S    
O11   V4    S    
C8    H7    S    
C12   H9    S    
O7    V2    S    
H6    C11   S    
O4    V1    S    
C13   C14   A    
O3    V1    S    
V1    O10   S    
C10   C12   S    
C10   C11   S    
C27   C31   S    
C5    H2    S    
O16   V4    S    
C25   C26   A    
H5    C7    S    
C28   H22   S    
C29   H23   S    
C6    H3    S    
C8    H8    S    
C20   H18   S    
C16   H15   S    
O14   V3    S    
C11   H12   S    
O14   C32   A    
C13   C18   A    
V2    O10   S    
