data_mof_unit_4716.cif
_audit_creation_date              2012-12-10T20:35:49-0500
_audit_creation_method            fapswitch 2.2
_symmetry_space_group_name_H-M    P1
_symmetry_Int_Tables_number       1
_space_group_crystal_system       triclinic
_cell_length_a                    15.735047
_cell_length_b                    10.677024
_cell_length_c                    9.870672
_cell_angle_alpha                 89.888157
_cell_angle_beta                  90.107679
_cell_angle_gamma                 89.804753
_cell_volume                      1658.29145404

loop_
_atom_site_label
_atom_site_type_symbol
_atom_type_description
_atom_site_fract_x
_atom_site_fract_y
_atom_site_fract_z
_atom_type_partial_charge
C1    C     C_R   0.502119 0.259995 0.500171 0.878196
C2    C     C_R   0.514081 0.128414 0.501279 -0.106319
C3    C     C_R   0.534277 0.064767 0.381341 -0.228863
C4    C     C_R   0.338392 0.500655 0.499916 0.906834
C5    C     C_R   0.534040 0.935291 0.381141 -0.235267
C6    C     C_R   0.513765 0.871394 0.500942 -0.100861
C7    C     C_R   0.508597 0.935791 0.623125 0.138577
C8    C     C_3   0.443029 0.928718 0.732372 -0.488725
C9    C     C_3   0.443132 0.070728 0.732498 -0.478277
C10   C     C_R   0.426680 0.478665 0.070459 0.142907
C11   C     C_R   0.573707 0.510590 0.072055 -0.139747
C12   C     C_3   0.951357 0.406696 0.626185 0.020400
C13   C     C_R   0.573665 0.511189 0.928335 -0.134972
C14   C     C_R   0.427132 0.475246 0.928170 0.176559
C15   C     C_3   0.345994 0.546563 0.917076 -0.499402
C16   C     C_R   0.501932 0.739971 0.499938 0.870998
C17   C     C_3   0.346044 0.554847 0.071362 -0.093003
C18   C     C_R   0.661694 0.499969 0.500108 0.912250
C19   C     C_3   0.051254 0.405368 0.624019 0.015795
C20   C     C_3   0.047129 0.443147 0.361676 0.024029
C21   C     C_3   0.948917 0.435588 0.371001 -0.468089
C22   C     C_1   0.750540 0.497670 0.500991 -0.204558
C23   C     C_3   0.917388 0.491551 0.507318 0.254256
C24   C     C_3   0.083090 0.487377 0.501875 0.197323
C25   C     C_3   0.910640 0.431626 0.768786 -0.382008
C26   C     C_3   0.954431 0.526390 0.862085 -0.906183
C27   C     C_3   0.088343 0.269909 0.629203 -0.445951
C28   C     C_3   0.092625 0.218482 0.773750 -0.903959
C29   C     C_3   0.356475 0.689720 0.123984 -0.297980
C30   C     C_3   0.274737 0.765342 0.105670 -0.924214
C31   C     C_3   0.086583 0.321181 0.302937 -0.402854
C32   C     C_3   0.073221 0.312058 0.149749 -0.928344
C33   C     C_3   0.951995 0.626309 0.519079 -0.397906
C34   C     C_3   0.049819 0.623190 0.525277 -0.489026
C35   C     C_1   0.825822 0.494966 0.503527 -0.112964
C36   C     C_1   0.174576 0.493943 0.500077 -0.128358
C37   C     C_1   0.249732 0.498078 0.499661 -0.202911
C38   C     C_R   0.508728 0.063464 0.623296 0.133217
H1    H     H_    0.928821 0.310847 0.600377 0.109558
H2    H     H_    0.354284 0.637189 0.862888 0.216113
H3    H     H_    0.293669 0.487492 0.876915 0.182234
H4    H     H_    0.926573 0.337125 0.361943 0.173592
H5    H     H_    0.071670 0.659208 0.625139 0.180859
H6    H     H_    0.075654 0.688039 0.447076 0.180168
H7    H     H_    0.925341 0.674953 0.608740 0.185579
H8    H     H_    0.076785 0.453067 0.714862 0.187960
H9    H     H_    0.011240 0.483848 0.910758 0.253336
H10   H     H_    0.973165 0.612559 0.808035 0.257184
H11   H     H_    0.910188 0.553109 0.944752 0.246012
H12   H     H_    0.931691 0.682055 0.429102 0.172845
H13   H     H_    0.843281 0.460722 0.757524 0.212792
H14   H     H_    0.908059 0.341518 0.825076 0.195338
H15   H     H_    0.468983 0.111356 0.827592 0.206199
H16   H     H_    0.132715 0.279517 0.838504 0.259291
H17   H     H_    0.028132 0.211597 0.818030 0.265520
H18   H     H_    0.121275 0.123296 0.772589 0.253135
H19   H     H_    0.049623 0.204367 0.568155 0.202399
H20   H     H_    0.153877 0.267282 0.587971 0.222177
H21   H     H_    0.258188 0.773923 0.996640 0.265336
H22   H     H_    0.221508 0.719534 0.160293 0.257854
H23   H     H_    0.544843 0.114044 0.286845 0.173081
H24   H     H_    0.283620 0.860835 0.147640 0.252013
H25   H     H_    0.371537 0.687533 0.233369 0.247790
H26   H     H_    0.409521 0.737947 0.071043 0.199974
H27   H     H_    0.292584 0.503035 0.119036 0.169896
H28   H     H_    0.062551 0.518956 0.287802 0.168639
H29   H     H_    0.004445 0.314791 0.124401 0.270553
H30   H     H_    0.105976 0.390400 0.097447 0.252100
H31   H     H_    0.100251 0.222461 0.112127 0.260099
H32   H     H_    0.156071 0.317539 0.321981 0.217420
H33   H     H_    0.058057 0.237033 0.349776 0.207145
H34   H     H_    0.544392 0.886308 0.286536 0.170254
H35   H     H_    0.920609 0.487786 0.283972 0.172746
H36   H     H_    0.382048 0.887794 0.696735 0.196976
H37   H     H_    0.468821 0.887202 0.827380 0.205113
H38   H     H_    0.382213 0.112609 0.696874 0.200259
H39   H     H_    0.633008 0.522552 0.125805 0.154940
H40   H     H_    0.632902 0.523914 0.874884 0.151830
N1    N     N_R   0.499430 0.499140 0.142800 -0.111546
N2    N     N_R   0.499430 0.499180 0.857150 -0.100965
O1    O     O_R   0.500010 0.316790 0.614690 -0.612842
O2    O     O_R   0.500000 0.316760 0.385350 -0.619197
O3    O     O_R   0.377150 0.500020 0.614720 -0.614731
O4    O     O_R   0.377140 0.499990 0.385380 -0.630574
O5    O     O_R   0.500000 0.683240 0.614650 -0.613644
O6    O     O_R   0.499990 0.683210 0.385310 -0.640802
O7    O     O_R   0.622860 0.500010 0.614620 -0.625540
O8    O     O_R   0.622850 0.499980 0.385280 -0.621606
Zn1   Zn    Zn3+2 0.500010 0.500020 0.653130 0.938466
Zn2   Zn    Zn3+2 0.499990 0.499980 0.346870 0.926073

loop_
_geom_bond_atom_site_label_1
_geom_bond_atom_site_label_2
_ccdc_geom_bond_type
C29   H25   S    
C33   H7    S    
C28   H18   S    
C19   H8    S    
C7    C8    S    
C22   C35   T    
C12   C23   S    
C24   C36   S    
C20   H28   S    
C36   C37   T    
C5    H34   S    
C5    C6    A    
C10   C17   S    
C1    O1    A    
C21   H35   S    
C17   C29   S    
C1    C2    S    
N2    Zn1   S    
N1    Zn2   S    
C11   H39   S    
C31   H32   S    
C20   C24   S    
C8    C9    S    
C23   C33   S    
C30   H22   S    
C9    H38   S    
C14   N2    A    
C19   C27   S    
C26   H10   S    
C32   H30   S    
O1    Zn1   S    
C31   H33   S    
C13   N2    A    
C16   O6    A    
O4    Zn2   S    
C25   C26   S    
C28   H17   S    
C3    H23   S    
O3    Zn1   S    
C34   H6    S    
C15   H3    S    
O6    Zn2   S    
C26   H11   S    
C28   H16   S    
C1    O2    A    
C8    H37   S    
C24   C34   S    
C25   H13   S    
C29   C30   S    
C2    C38   A    
C31   C32   S    
C4    O4    A    
C30   H21   S    
C8    H36   S    
C33   C34   S    
C4    C37   S    
C32   H31   S    
C11   N1    A    
C26   H9    S    
C32   H29   S    
O8    Zn2   S    
C23   C35   S    
C30   H24   S    
C27   H19   S    
C16   O5    A    
C9    H15   S    
C15   C17   S    
C13   H40   S    
O5    Zn1   S    
C18   C22   S    
C34   H5    S    
C3    C5    A    
C27   H20   S    
C10   N1    A    
C6    C7    A    
C17   H27   S    
C18   O7    A    
O2    Zn2   S    
C12   C25   S    
C12   H1    S    
C21   C23   S    
C2    C3    A    
C33   H12   S    
C25   H14   S    
C11   C13   A    
C4    O3    A    
C12   C19   S    
C9    C38   S    
C7    C38   A    
C19   C24   S    
C18   O8    A    
C15   H2    S    
C29   H26   S    
C6    C16   S    
C21   H4    S    
C20   C21   S    
C27   C28   S    
O7    Zn1   S    
C14   C15   S    
C10   C14   A    
C20   C31   S    
