data_mof_unit_4385.cif
_audit_creation_date              2012-12-10T19:15:22-0500
_audit_creation_method            fapswitch 2.2
_symmetry_space_group_name_H-M    P1
_symmetry_Int_Tables_number       1
_space_group_crystal_system       triclinic
_cell_length_a                    10.632634
_cell_length_b                    9.82639
_cell_length_c                    23.412283
_cell_angle_alpha                 88.9663
_cell_angle_beta                  87.458413
_cell_angle_gamma                 88.836304
_cell_volume                      2442.85485994

loop_
_atom_site_label
_atom_site_type_symbol
_atom_type_description
_atom_site_fract_x
_atom_site_fract_y
_atom_site_fract_z
_atom_type_partial_charge
C1    C     C_R   0.258378 0.500541 0.504795 0.826342
C2    C     C_R   0.601256 0.501932 0.117598 0.512060
C3    C     C_R   0.531133 0.623487 0.237537 -0.094486
C4    C     C_R   0.496196 0.501020 0.389529 0.905117
C5    C     C_R   0.531979 0.618892 0.296677 -0.321008
C6    C     C_R   0.488763 0.503792 0.327355 -0.135021
C7    C     C_R   0.436588 0.394859 0.298291 0.444689
C8    C     C_R   0.441504 0.398703 0.238308 -0.237591
C9    C     C_R   0.487435 0.512728 0.208453 0.276624
C10   C     C_R   0.512409 0.372469 0.762307 -0.100715
C11   C     C_R   0.514629 0.373644 0.702945 -0.228299
C12   C     C_R   0.261568 0.528830 0.974078 -0.159881
C13   C     C_R   0.496596 0.496822 0.672802 -0.040370
C14   C     C_R   0.475327 0.618342 0.702661 -0.228020
C15   C     C_R   0.472778 0.616691 0.761935 -0.105259
C16   C     C_R   0.742098 0.499213 0.501724 0.850123
C17   C     C_R   0.491612 0.493987 0.791642 0.326055
C18   C     C_3   0.062884 0.618233 0.546272 0.000300
C19   C     C_3   0.070400 0.356269 0.527892 0.014503
C20   C     C_3   0.918566 0.601299 0.550433 -0.404307
C21   C     C_3   0.928139 0.355473 0.520993 -0.411020
C22   C     C_3   0.080149 0.528827 0.446088 -0.470141
C23   C     C_R   0.261218 0.534062 0.033456 -0.159676
C24   C     C_3   0.121487 0.500592 0.508329 0.053960
C25   C     C_3   0.878572 0.499244 0.504587 0.117847
C26   C     C_3   0.936401 0.540915 0.445269 -0.445363
C27   C     C_3   0.370902 0.083219 0.496137 -0.331030
C28   C     C_3   0.370013 0.922114 0.502007 -0.310017
C29   C     C_3   0.575977 0.081711 0.448221 0.125350
C30   C     C_3   0.561765 0.919892 0.444341 0.079402
C31   C     C_3   0.550303 0.076281 0.551969 -0.266734
C32   C     C_3   0.565721 0.916645 0.547936 -0.246957
C33   C     C_R   0.499331 0.498938 0.610524 0.848331
C34   C     C_R   0.374794 0.523742 0.061736 -0.016740
C35   C     C_R   0.602837 0.482612 0.878685 0.501905
C36   C     C_R   0.378331 0.508141 0.882420 0.501145
C37   C     C_R   0.375506 0.513244 0.942027 -0.014064
C38   C     C_R   0.490037 0.502923 0.970017 -0.021281
C39   C     C_R   0.604901 0.487141 0.938220 -0.014578
C40   C     C_3   0.119067 0.637318 0.605835 -0.419756
C41   C     C_3   0.090573 0.779796 0.628743 -0.884560
C42   C     C_3   0.104481 0.305545 0.588630 -0.389307
C43   C     C_3   0.078958 0.153577 0.598312 -0.928299
C44   C     C_3   0.716604 0.128452 0.446267 -0.314555
C45   C     C_R   0.489692 0.508375 0.029945 -0.022665
C46   C     C_3   0.754571 0.217907 0.393982 -0.849258
C47   C     C_3   0.684413 0.841294 0.422241 -0.358437
C48   C     C_3   0.734801 0.885779 0.362130 -0.970017
C49   C     C_3   0.263368 0.257774 0.311138 0.121545
C50   C     C_3   0.195623 0.167000 0.355309 -0.883098
C51   C     C_R   0.604200 0.498038 0.057949 -0.018879
C52   C     C_R   0.718160 0.482693 0.025882 -0.160398
C53   C     C_R   0.718504 0.477250 0.966498 -0.157539
C54   C     C_R   0.376744 0.527431 0.121273 0.507814
H1    H     H_    0.172478 0.537002 0.953437 0.191489
H2    H     H_    0.911193 0.284590 0.486125 0.169616
H3    H     H_    0.121617 0.624519 0.428114 0.183158
H4    H     H_    0.114020 0.445325 0.417523 0.183932
H5    H     H_    0.908463 0.647674 0.434487 0.186330
H6    H     H_    0.902071 0.475043 0.411341 0.174423
H7    H     H_    0.329310 0.115714 0.455473 0.171186
H8    H     H_    0.313248 0.880015 0.467926 0.157857
H9    H     H_    0.171838 0.545879 0.057064 0.193489
H10   H     H_    0.310094 0.127921 0.530782 0.189363
H11   H     H_    0.321908 0.892010 0.543292 0.169804
H12   H     H_    0.531224 0.278734 0.680764 0.150767
H13   H     H_    0.533796 0.124902 0.409006 0.179997
H14   H     H_    0.495854 0.903622 0.409386 0.123362
H15   H     H_    0.640213 0.121945 0.563000 0.133858
H16   H     H_    0.667366 0.888011 0.544572 0.137962
H17   H     H_    0.485469 0.100761 0.589221 0.155936
H18   H     H_    0.527967 0.869779 0.588494 0.163973
H19   H     H_    0.807250 0.474546 0.046523 0.190878
H20   H     H_    0.807869 0.465303 0.942891 0.193841
H21   H     H_    0.565418 0.712418 0.214211 0.153049
H22   H     H_    0.567196 0.705192 0.318419 0.191153
H23   H     H_    0.460228 0.714401 0.680351 0.151834
H24   H     H_    0.409964 0.313659 0.214361 0.137850
H25   H     H_    0.526906 0.277609 0.785576 0.137142
H26   H     H_    0.131599 0.857868 0.599128 0.245313
H27   H     H_    0.987340 0.798196 0.633959 0.266928
H28   H     H_    0.132589 0.789970 0.671009 0.267039
H29   H     H_    0.080519 0.564784 0.638239 0.220425
H30   H     H_    0.222784 0.622244 0.603529 0.216684
H31   H     H_    0.976817 0.136739 0.606647 0.260184
H32   H     H_    0.110401 0.092795 0.560729 0.241941
H33   H     H_    0.129234 0.115417 0.636154 0.265199
H34   H     H_    0.456754 0.710585 0.784906 0.135957
H35   H     H_    0.205235 0.323496 0.595849 0.215438
H36   H     H_    0.046708 0.359567 0.621747 0.219198
H37   H     H_    0.718325 0.176869 0.354205 0.261892
H38   H     H_    0.719537 0.323629 0.398549 0.275045
H39   H     H_    0.858836 0.221081 0.388847 0.220387
H40   H     H_    0.739883 0.173221 0.486091 0.208545
H41   H     H_    0.787810 0.047209 0.448399 0.175556
H42   H     H_    0.660351 0.937489 0.337431 0.268813
H43   H     H_    0.817011 0.952540 0.364115 0.279102
H44   H     H_    0.769785 0.795744 0.337610 0.255182
H45   H     H_    0.081428 0.714938 0.521894 0.174095
H46   H     H_    0.759423 0.840178 0.453622 0.181854
H47   H     H_    0.668435 0.734611 0.416784 0.272565
H48   H     H_    0.268602 0.202282 0.270143 0.155894
H49   H     H_    0.205858 0.353213 0.306282 0.148414
H50   H     H_    0.184259 0.219947 0.396660 0.239100
H51   H     H_    0.100746 0.142968 0.340707 0.218471
H52   H     H_    0.249908 0.070358 0.361183 0.250667
H53   H     H_    0.112222 0.280220 0.497386 0.161988
H54   H     H_    0.886459 0.563248 0.593607 0.171857
H55   H     H_    0.876294 0.317980 0.560336 0.177465
H56   H     H_    0.873235 0.703238 0.544122 0.164173
N1    N     N_R   0.490791 0.493515 0.852369 -0.360662
N2    N     N_R   0.488692 0.515691 0.147667 -0.347448
N3    N     N_3   0.499750 0.138610 0.498760 -0.063606
N4    N     N_3   0.499750 0.861390 0.498760 -0.061272
O1    O     O_R   0.314910 0.616040 0.499990 -0.626493
O2    O     O_2   0.269972 0.517604 0.854540 -0.553121
O3    O     O_2   0.267983 0.542489 0.152715 -0.563192
O4    O     O_2   0.709463 0.490350 0.145504 -0.554271
O5    O     O_3   0.385841 0.284850 0.328977 -0.617338
O6    O     O_R   0.314910 0.383960 0.499990 -0.629932
O7    O     O_R   0.500080 0.616070 0.416130 -0.651094
O8    O     O_R   0.500080 0.383930 0.416130 -0.565423
O9    O     O_R   0.685320 0.616040 0.499970 -0.654869
O10   O     O_R   0.685320 0.383960 0.499970 -0.634332
O11   O     O_R   0.500150 0.616010 0.583820 -0.629012
O12   O     O_R   0.500150 0.383990 0.583820 -0.630201
O13   O     O_2   0.711624 0.468817 0.847171 -0.552620
Zn1   Zn    Zn3+2 0.500150 0.654960 0.499970 0.892869
Zn2   Zn    Zn3+2 0.500150 0.345040 0.499970 0.920611

loop_
_geom_bond_atom_site_label_1
_geom_bond_atom_site_label_2
_ccdc_geom_bond_type
C50   H50   S    
C47   H47   S    
C40   H30   S    
C53   H20   S    
C22   H3    S    
C2    O4    S    
C7    C8    A    
C32   H18   S    
C39   C53   A    
C48   H43   S    
C12   C23   A    
C2    N2    A    
C29   C30   S    
N3    Zn2   S    
C18   C24   S    
C36   C37   A    
C19   C21   S    
C16   O9    A    
C5    C6    A    
C46   H38   S    
C20   C25   S    
C45   C51   A    
C10   C17   A    
C14   H23   S    
C12   C37   A    
C18   C40   S    
C38   C45   A    
C29   N3    S    
C27   H7    S    
C29   H13   S    
C27   H10   S    
C31   C32   S    
C8    C9    A    
O10   Zn2   S    
C50   H51   S    
C3    H21   S    
C26   H5    S    
O8    Zn2   S    
C19   C42   S    
C9    N2    S    
C23   H9    S    
C13   C14   A    
C8    H24   S    
C40   H29   S    
C41   H26   S    
C17   N1    S    
C44   C46   S    
C38   C39   A    
C4    O8    A    
C51   C52   A    
C43   H31   S    
C7    O5    S    
C30   C47   S    
O7    Zn1   S    
C4    C6    S    
C52   H19   S    
C10   C11   A    
C49   H48   S    
C32   H16   S    
C46   H37   S    
O12   Zn2   S    
C25   C26   S    
C47   H46   S    
O6    Zn2   S    
C42   H36   S    
C1    O6    A    
C35   C39   A    
C13   C33   S    
C37   C38   A    
C3    C9    A    
O11   Zn1   S    
N4    Zn1   S    
C47   C48   S    
C23   C34   A    
C41   H27   S    
C36   N1    A    
C33   O11   A    
C54   N2    A    
C34   C45   A    
C35   O13   S    
C22   H4    S    
C28   N4    S    
C20   H56   S    
C27   N3    S    
C40   C41   S    
C34   C54   A    
C29   C44   S    
C22   C26   S    
C22   C24   S    
C42   C43   S    
C36   O2    S    
C35   N1    A    
C52   C53   A    
C30   N4    S    
C16   C25   S    
C15   C17   A    
C21   C25   S    
C48   H42   S    
C43   H32   S    
C3    C5    A    
C49   H49   S    
C21   H2    S    
C21   H55   S    
C10   H25   S    
C11   H12   S    
C6    C7    A    
C48   H44   S    
C42   H35   S    
C43   H33   S    
C5    H22   S    
C28   H11   S    
C16   O10   A    
C44   H41   S    
C11   C13   A    
O9    Zn1   S    
C49   O5    S    
C46   H39   S    
C41   H28   S    
C31   H17   S    
C33   O12   A    
C4    O7    A    
C19   C24   S    
C18   C20   S    
C12   H1    S    
C44   H40   S    
C2    C51   A    
O1    Zn1   S    
C31   H15   S    
C1    C24   S    
C49   C50   S    
C18   H45   S    
C54   O3    S    
C27   C28   S    
C50   H52   S    
C14   C15   A    
C1    O1    A    
C32   N4    S    
C26   H6    S    
C31   N3    S    
C30   H14   S    
C28   H8    S    
C15   H34   S    
C20   H54   S    
C19   H53   S    
