data_mof_unit_3403.cif
_audit_creation_date              2012-12-10T18:22:28-0500
_audit_creation_method            fapswitch 2.2
_symmetry_space_group_name_H-M    P1
_symmetry_Int_Tables_number       1
_space_group_crystal_system       triclinic
_cell_length_a                    23.527319
_cell_length_b                    10.624319
_cell_length_c                    9.426609
_cell_angle_alpha                 90.644402
_cell_angle_beta                  90.086896
_cell_angle_gamma                 90.643167
_cell_volume                      2355.99095654

loop_
_atom_site_label
_atom_site_type_symbol
_atom_type_description
_atom_site_fract_x
_atom_site_fract_y
_atom_site_fract_z
_atom_type_partial_charge
C1    C     C_R   0.500608 0.259621 0.499304 0.842596
C2    C     C_R   0.499086 0.740264 0.500703 0.874812
C3    C     C_R   0.236072 0.548739 0.608452 0.300832
C4    C     C_R   0.766667 0.497944 0.615649 0.355052
C5    C     C_R   0.296223 0.562482 0.608704 -0.138890
C6    C     C_R   0.706383 0.493291 0.625063 -0.117476
C7    C     C_R   0.328388 0.504577 0.498823 -0.077269
C8    C     C_R   0.672671 0.499927 0.499437 -0.136019
C9    C     C_R   0.300369 0.443096 0.386239 -0.221970
C10   C     C_R   0.700041 0.508510 0.367582 -0.200695
C11   C     C_R   0.241612 0.437190 0.381228 -0.101312
C12   C     C_R   0.758765 0.508110 0.358049 -0.120253
C13   C     C_R   0.209216 0.489149 0.490452 0.232850
C14   C     C_R   0.792243 0.501782 0.479811 0.211270
C15   C     C_3   0.544459 0.040881 0.573395 0.032660
C16   C     C_3   0.454784 0.958619 0.426626 0.023683
C17   C     C_3   0.547538 0.955470 0.440675 -0.250991
C18   C     C_3   0.451701 0.044166 0.559373 -0.221881
C19   C     C_3   0.498365 0.876769 0.501622 -0.019394
C20   C     C_3   0.500926 0.122907 0.498418 -0.025850
C21   C     C_3   0.495801 0.960626 0.635402 -0.163687
C22   C     C_3   0.503451 0.038964 0.364656 -0.188118
C23   C     C_R   0.391092 0.502879 0.499971 0.880580
C24   C     C_R   0.609300 0.499455 0.500350 0.833740
C25   C     C_3   0.475347 0.599636 0.052241 -0.009692
C26   C     C_3   0.524594 0.400303 0.947763 -0.021948
C27   C     C_3   0.448515 0.502039 0.949045 -0.112048
C28   C     C_3   0.551498 0.498152 0.050869 -0.096509
C29   C     C_3   0.526532 0.596649 0.952338 0.114794
C30   C     C_3   0.473375 0.403541 0.047600 0.109175
C31   C     C_R   0.882513 0.601495 0.430327 0.638814
C32   C     C_R   0.118942 0.379828 0.500185 0.645665
C33   C     C_R   0.879043 0.382111 0.481296 0.678655
C34   C     C_R   0.122337 0.594931 0.430165 0.636377
C35   C     C_R   0.939263 0.375157 0.483090 -0.127389
C36   C     C_R   0.062180 0.599991 0.421330 -0.114380
C37   C     C_R   0.970637 0.487224 0.452463 -0.044692
C38   C     C_R   0.030829 0.488350 0.453977 -0.029524
C39   C     C_R   0.941853 0.599280 0.422285 -0.061752
C40   C     C_R   0.059612 0.377622 0.489768 -0.073353
C41   C     C_R   0.969600 0.263383 0.516285 0.427354
C42   C     C_R   0.031822 0.710773 0.384349 0.324909
C43   C     C_R   0.028998 0.267172 0.518173 -0.153072
C44   C     C_R   0.972451 0.708201 0.387544 -0.142120
Cu1   Cu    Cu3+1 0.500010 0.499990 0.643150 0.986796
Cu2   Cu    Cu3+1 0.499990 0.500010 0.356850 0.975088
H1    H     H_    0.405183 0.502234 0.902474 0.139254
H2    H     H_    0.594839 0.497458 0.097255 0.154798
H3    H     H_    0.454863 0.683372 0.100594 0.185256
H4    H     H_    0.545074 0.316569 0.899388 0.174393
H5    H     H_    0.051871 0.182746 0.544410 0.241146
H6    H     H_    0.949576 0.793008 0.362907 0.246766
H7    H     H_    0.324058 0.399049 0.301133 0.155996
H8    H     H_    0.676020 0.514137 0.269899 0.183145
H9    H     H_    0.220841 0.391976 0.291245 0.184633
H10   H     H_    0.778639 0.511678 0.254551 0.198009
H11   H     H_    0.586868 0.916878 0.392860 0.169214
H12   H     H_    0.412364 0.082708 0.607197 0.168289
H13   H     H_    0.492163 0.927558 0.746167 0.211908
H14   H     H_    0.507307 0.071698 0.253871 0.214246
N1    N     N_R   0.852773 0.494957 0.462981 -0.460272
N2    N     N_R   0.148576 0.487968 0.474166 -0.454940
N3    N     N_3   0.500040 0.499970 0.858290 -0.206942
N4    N     N_3   0.499960 0.500030 0.141710 -0.211196
O1    O     O_R   0.500030 0.316850 0.620870 -0.554992
O2    O     O_R   0.499970 0.683150 0.379130 -0.556046
O3    O     O_R   0.500000 0.316860 0.379090 -0.604369
O4    O     O_R   0.500000 0.683140 0.620910 -0.594866
O5    O     O_R   0.417890 0.499960 0.620920 -0.575033
O6    O     O_R   0.582110 0.500040 0.379080 -0.588735
O7    O     O_R   0.417870 0.499970 0.379140 -0.587592
O8    O     O_R   0.582130 0.500030 0.620860 -0.587417
O9    O     O_2   0.854554 0.709819 0.408051 -0.479745
O10   O     O_2   0.146994 0.275255 0.538203 -0.483708
O11   O     O_2   0.846298 0.278798 0.498105 -0.430723
O12   O     O_2   0.155060 0.695096 0.397708 -0.438688
S1    S     S_3+6 0.937063 0.117595 0.564149 0.104784
O13   O     O_2   0.903644 0.065711 0.440171 -0.203978
O14   O     O_2   0.980920 0.022933 0.605642 -0.280255
O15   O     O_3   0.893487 0.140739 0.703114 -0.420603
H15   H     H_    0.873143 0.059433 0.715130 0.395361
S2    S     S_3+6 0.064230 0.856377 0.334780 0.123191
O16   O     O_2   0.100725 0.835352 0.206120 -0.144626
O17   O     O_2   0.020313 0.952855 0.299314 -0.228933
O18   O     O_3   0.104882 0.913450 0.468257 -0.439464
H16   H     H_    0.082385 0.898800 0.555344 0.364960
C45   C     C_2   0.557291 0.709657 0.896651 0.411558
H17   H     H_    0.587340 0.700007 0.810476 0.125577
O19   O     O_2   0.548721 0.813499 0.948310 -0.572921
C46   C     C_2   0.440593 0.293379 0.103054 0.379118
H18   H     H_    0.407005 0.307675 0.179819 0.066081
O20   O     O_2   0.450897 0.187268 0.060411 -0.567929
S3    S     S_3+6 0.195320 0.608227 0.753841 0.051327
O21   O     O_2   0.132853 0.579672 0.740430 -0.255890
O22   O     O_2   0.216268 0.550097 0.888515 -0.254760
O23   O     O_3   0.204852 0.765051 0.765915 -0.466437
H19   H     H_    0.191627 0.797551 0.673633 0.380016
S4    S     S_3+6 0.809904 0.492658 0.772162 0.074116
O24   O     O_2   0.869539 0.538032 0.744787 -0.234928
O25   O     O_2   0.785810 0.573600 0.888589 -0.229971
O26   O     O_3   0.812467 0.343067 0.827947 -0.447193
H20   H     H_    0.773781 0.323894 0.863484 0.337029
C47   C     C_2   0.324522 0.644616 0.717163 0.456179
H21   H     H_    0.310979 0.643611 0.826824 0.135663
O27   O     O_2   0.362308 0.718134 0.683542 -0.519727
C48   C     C_2   0.679258 0.474046 0.764542 0.425959
H22   H     H_    0.662748 0.381938 0.792193 0.107344
O28   O     O_2   0.673902 0.561847 0.847682 -0.541165
C49   C     C_2   0.595940 0.082311 0.655631 0.376522
H23   H     H_    0.621217 0.012882 0.709827 0.101848
O29   O     O_2   0.609946 0.193065 0.661489 -0.578530
C50   C     C_2   0.403361 0.916678 0.344174 0.429393
H24   H     H_    0.377510 0.986197 0.291844 0.089469
O30   O     O_2   0.390089 0.805521 0.335793 -0.515393

loop_
_geom_bond_atom_site_label_1
_geom_bond_atom_site_label_2
_ccdc_geom_bond_type
C38   C40   A    
C45   H17   S    
C29   N3    S    
S3    O21   D    
C8    C24   S    
C4    S4    S    
C18   C21   S    
C15   C49   S    
C36   C42   A    
C42   S2    S    
C30   C46   S    
C5    C47   S    
C24   O6    A    
Cu1   Cu2   S    
C16   C50   S    
O26   H20   S    
C28   C29   S    
C35   C37   A    
Cu2   O2    S    
C30   N4    S    
C26   H4    S    
C41   S1    S    
C33   C35   A    
C31   O9    S    
C48   H22   S    
C34   N2    A    
C15   C17   S    
C31   N1    A    
C17   C19   S    
C2    O4    A    
C33   O11   S    
C40   C43   A    
C13   N2    S    
C1    O1    A    
C18   C20   S    
C3    C13   A    
S1    O13   D    
C44   H6    S    
S3    O22   D    
C27   C30   S    
C41   C43   A    
C42   C44   A    
C35   C41   A    
C50   O30   D    
C50   H24   S    
C18   H12   S    
S1    O14   D    
C25   C29   S    
C15   C20   S    
C29   C45   S    
Cu1   O5    S    
C23   O7    A    
C4    C6    A    
C5    C7    A    
C6    C8    A    
C3    C5    A    
O18   H16   S    
C14   N1    S    
C23   O5    A    
Cu1   N3    S    
Cu2   N4    S    
C25   N4    S    
C26   N3    S    
C37   C38   A    
C46   O20   D    
O23   H19   S    
Cu1   O4    S    
C6    C48   S    
C47   O27   D    
C9    C11   A    
Cu2   O7    S    
C12   H10   S    
C10   C12   A    
C28   N4    S    
C33   N1    A    
C12   C14   A    
S4    O24   D    
S3    O23   S    
S4    O25   D    
C45   O19   D    
Cu1   O1    S    
C9    H7    S    
S2    O18   S    
C11   H9    S    
C24   O8    A    
S1    O15   S    
C27   H1    S    
C7    C9    A    
C28   H2    S    
C1    C20   S    
C16   C22   S    
C3    S3    S    
C19   C21   S    
C2    C19   S    
C26   C28   S    
C8    C10   A    
C20   C22   S    
O15   H15   S    
C2    O2    A    
C21   H13   S    
C39   C44   A    
C25   C27   S    
S4    O26   S    
S2    O17   D    
C17   C22   S    
C49   O29   D    
C32   N2    A    
Cu2   O3    S    
C37   C39   A    
C49   H23   S    
C22   H14   S    
C11   C13   A    
C43   H5    S    
C46   H18   S    
C48   O28   D    
C16   C19   S    
C7    C23   S    
C36   C38   A    
C1    O3    A    
C31   C39   A    
C34   C36   A    
C32   C40   A    
C4    C14   A    
C10   H8    S    
C25   H3    S    
Cu2   O6    S    
C15   C21   S    
C16   C18   S    
S2    O16   D    
C17   H11   S    
C47   H21   S    
C32   O10   S    
C27   N3    S    
C34   O12   S    
Cu1   O8    S    
C26   C30   S    
