data_mof_unit_2345.cif
_audit_creation_date              2012-12-10T21:12:26-0500
_audit_creation_method            fapswitch 2.2
_symmetry_space_group_name_H-M    P1
_symmetry_Int_Tables_number       1
_space_group_crystal_system       triclinic
_cell_length_a                    13.13154
_cell_length_b                    16.864238
_cell_length_c                    17.426461
_cell_angle_alpha                 90.105385
_cell_angle_beta                  93.62821
_cell_angle_gamma                 70.353088
_cell_volume                      3626.41886776

loop_
_atom_site_label
_atom_site_type_symbol
_atom_type_description
_atom_site_fract_x
_atom_site_fract_y
_atom_site_fract_z
_atom_type_partial_charge
C1    C     C_R   0.489827 0.502478 0.646933 1.033960
C2    C     C_R   0.824957 0.423033 0.491594 -0.184218
C3    C     C_R   0.489564 0.405162 0.159737 0.298031
C4    C     C_R   0.705825 0.452918 0.499866 0.969788
C5    C     C_R   0.534063 0.411119 0.234545 -0.188822
C6    C     C_R   0.512504 0.491705 0.267956 -0.079802
C7    C     C_R   0.480607 0.563656 0.219134 -0.011936
C8    C     C_R   0.445364 0.556706 0.143256 -0.279502
C9    C     C_R   0.446831 0.479193 0.114209 0.003504
C10   C     C_1   0.427779 0.476465 0.032894 0.085880
C11   C     C_1   0.420030 0.480336 0.964146 0.135641
C12   C     C_R   0.961456 0.483143 0.459097 0.027538
C13   C     C_R   0.416950 0.429354 0.831599 0.374804
C14   C     C_R   0.410785 0.447228 0.752922 0.287527
C15   C     C_R   0.455252 0.508086 0.727629 -0.383105
C16   C     C_R   0.506454 0.497935 0.352716 0.932848
C17   C     C_R   0.459484 0.572522 0.779972 0.340291
C18   C     C_R   0.426081 0.569163 0.855105 -0.203057
C19   C     C_R   0.419801 0.492700 0.882886 -0.209341
C20   C     C_R   0.549785 0.155019 0.565912 -0.199351
C21   C     C_R   0.551501 0.239103 0.561350 0.127325
C22   C     C_R   0.452496 0.261532 0.439735 0.025119
C23   C     C_R   0.879064 0.480775 0.506324 0.042946
C24   C     C_R   0.456863 0.175724 0.439352 -0.177950
C25   C     C_R   0.502297 0.122680 0.504373 0.045370
C26   C     C_1   0.500433 0.035323 0.508451 0.091049
C27   C     C_1   0.497982 0.963343 0.511309 0.194394
C28   C     C_R   0.294707 0.547313 0.499168 1.026580
C29   C     C_R   0.556764 0.814414 0.564829 0.350421
C30   C     C_R   0.560090 0.730103 0.556837 0.011482
C31   C     C_R   0.434529 0.767858 0.448321 0.010719
C32   C     C_R   0.426116 0.854152 0.455122 0.207174
C33   C     C_R   0.493154 0.877016 0.511098 -0.157459
C34   C     C_R   0.011964 0.544073 0.476319 0.032685
C35   C     C_R   0.001348 0.680098 0.529278 0.297052
C36   C     C_R   0.175438 0.580439 0.497346 -0.168570
C37   C     C_R   0.876572 0.350627 0.449645 0.410645
C38   C     C_R   0.954041 0.354048 0.397838 -0.167891
C39   C     C_R   0.990243 0.424798 0.398226 -0.174687
C40   C     C_2   0.617403 0.336257 0.272850 0.526526
C41   C     C_2   0.495817 0.643870 0.240649 0.435769
C42   C     C_2   0.396970 0.644193 0.904898 0.611377
C43   C     C_2   0.598166 0.099524 0.634707 0.480460
C44   C     C_2   0.604125 0.269010 0.627022 0.637549
C45   C     C_R   0.957767 0.615356 0.518670 0.035580
C46   C     C_2   0.400402 0.315148 0.371820 0.428705
C47   C     C_2   0.412737 0.142690 0.370469 0.549996
C48   C     C_2   0.375332 0.745101 0.381681 0.630705
C49   C     C_2   0.044678 0.445301 0.331811 0.461496
C50   C     C_2   0.992519 0.286079 0.341647 0.693036
C51   C     C_2   0.823920 0.512652 0.642738 0.481784
C52   C     C_R   0.876631 0.611248 0.564700 -0.187735
C53   C     C_R   0.852103 0.537384 0.567686 -0.045286
C54   C     C_R   0.121395 0.527817 0.466198 -0.304476
C55   C     C_R   0.114700 0.659792 0.528324 0.274297
H1    H     H_    0.421396 0.611683 0.105215 0.153319
H2    H     H_    0.675744 0.554906 0.759136 0.355044
H3    H     H_    0.417638 0.637717 0.966278 0.015853
H4    H     H_    0.559166 0.056817 0.654889 0.131561
H5    H     H_    0.582221 0.261938 0.684961 0.099403
H6    H     H_    0.424263 0.293673 0.315125 0.080760
H7    H     H_    0.340917 0.182482 0.337473 0.076702
H8    H     H_    0.733476 0.776010 0.741529 0.417354
H9    H     H_    0.373720 0.774366 0.326130 0.060663
H10   H     H_    0.251970 0.019942 0.486107 0.377946
H11   H     H_    0.753996 0.854354 0.483730 0.397685
H12   H     H_    0.848561 0.657729 0.608448 0.217055
H13   H     H_    0.960256 0.119705 0.471308 0.414676
H14   H     H_    0.043005 0.509420 0.323038 0.108176
H15   H     H_    0.077751 0.260553 0.330844 0.096961
H16   H     H_    0.826071 0.551642 0.691926 0.117724
H17   H     H_    0.319559 0.347913 0.085135 0.365777
H18   H     H_    0.609562 0.682433 0.597371 0.221303
H19   H     H_    0.168050 0.468022 0.443607 0.227752
H20   H     H_    0.249748 0.654767 0.684646 0.379759
H21   H     H_    0.623171 0.272689 0.258462 0.149263
H22   H     H_    0.445116 0.702094 0.211900 0.077188
H23   H     H_    0.438252 0.207705 0.814655 0.403507
H24   H     H_    0.297413 0.343555 0.600995 0.383961
N1    N     N_R   0.499970 0.292770 0.499970 -0.100525
N2    N     N_R   0.499980 0.707230 0.499990 -0.139871
O1    O     O_R   0.500000 0.433430 0.610870 -0.603710
O2    O     O_2   0.105599 0.787579 0.629201 -0.176755
O3    O     O_3   0.282789 0.662670 0.636954 -0.512855
O4    O     O_2   0.686443 0.345370 0.318808 -0.525014
O5    O     O_2   0.570247 0.645202 0.285748 -0.544219
O6    O     O_2   0.513505 0.294750 0.923481 -0.194994
O7    O     O_2   0.316067 0.337322 0.899672 -0.191287
O8    O     O_3   0.437803 0.261281 0.791199 -0.519506
O9    O     O_2   0.231946 0.401054 0.744846 -0.190826
O10   O     O_2   0.242176 0.502003 0.649327 -0.364164
O11   O     O_3   0.359600 0.345287 0.635471 -0.553421
O12   O     O_R   0.500010 0.566520 0.610900 -0.531927
O13   O     O_2   0.446528 0.713402 0.700874 -0.157023
O14   O     O_2   0.543733 0.694205 0.827416 -0.219327
O15   O     O_3   0.636810 0.599216 0.720165 -0.578604
O16   O     O_2   0.344701 0.713830 0.877865 -0.451524
O17   O     O_2   0.683228 0.098868 0.667812 -0.473112
O18   O     O_2   0.675931 0.297867 0.618010 -0.465567
O19   O     O_2   0.325986 0.380907 0.377717 -0.565181
O20   O     O_2   0.458969 0.071846 0.348081 -0.448931
O21   O     O_2   0.681122 0.898711 0.627581 -0.267249
O22   O     O_2   0.533710 0.887481 0.700815 -0.223989
O23   O     O_R   0.653610 0.400420 0.499960 -0.523549
O24   O     O_3   0.705562 0.755055 0.694444 -0.515742
O25   O     O_2   0.321143 0.699806 0.387926 -0.536487
O26   O     O_2   0.369518 0.941377 0.321580 -0.198299
O27   O     O_2   0.224958 0.909703 0.382518 -0.235775
O28   O     O_3   0.287373 0.027892 0.439585 -0.523589
O29   O     O_2   0.895871 0.802156 0.622906 -0.179843
O30   O     O_2   0.954847 0.846475 0.504049 -0.195920
O31   O     O_3   0.790529 0.793200 0.493630 -0.554530
O32   O     O_2   0.872725 0.248991 0.565439 -0.192298
O33   O     O_2   0.763036 0.242998 0.447923 -0.229964
O34   O     O_R   0.653620 0.533500 0.499990 -0.635061
O35   O     O_3   0.971561 0.170445 0.450320 -0.519061
O36   O     O_2   0.091173 0.392654 0.286189 -0.557110
O37   O     O_2   0.928891 0.258135 0.306682 -0.455863
O38   O     O_2   0.806643 0.446746 0.652503 -0.526154
O39   O     O_2   0.593920 0.266325 0.084008 -0.173122
O40   O     O_2   0.479804 0.248134 0.183307 -0.326608
O41   O     O_3   0.384998 0.321732 0.056468 -0.427911
O42   O     O_R   0.499990 0.433480 0.389100 -0.608371
O43   O     O_R   0.500000 0.566570 0.389130 -0.581377
O44   O     O_R   0.346380 0.466500 0.500010 -0.572377
O45   O     O_R   0.346390 0.599580 0.500040 -0.524632
O46   O     O_2   0.222146 0.770373 0.522991 -0.194711
S1    S     S_3+6 0.179549 0.724020 0.579234 0.146940
S2    S     S_3+6 0.420553 0.328828 0.864288 0.136902
S3    S     S_3+6 0.307310 0.424566 0.695190 0.075535
S4    S     S_3+6 0.519316 0.649340 0.757756 0.112995
S5    S     S_3+6 0.620128 0.841696 0.648381 0.092415
S6    S     S_3+6 0.324844 0.933590 0.397362 0.084883
S7    S     S_3+6 0.910926 0.784244 0.539130 0.120078
S8    S     S_3+6 0.867692 0.252148 0.479134 0.125135
S9    S     S_3+6 0.489709 0.306849 0.121772 0.078029
Zn1   Zn    Zn3+2 0.500000 0.411140 0.499980 1.094782
Zn2   Zn    Zn3+2 0.500000 0.588860 0.500020 1.103980

loop_
_geom_bond_atom_site_label_1
_geom_bond_atom_site_label_2
_ccdc_geom_bond_type
O3    S1    S    
C51   C53   S    
C47   O20   D    
C17   S4    S    
C4    O34   A    
C2    C4    S    
C43   O17   D    
O2    S1    D    
C42   H3    S    
C47   H7    S    
C7    C8    A    
O10   S3    D    
C27   C33   S    
C41   O5    D    
C12   C23   A    
C11   C19   S    
C26   C27   T    
C37   C38   A    
O43   Zn2   S    
C16   O42   A    
O21   S5    D    
C18   C19   A    
O1    Zn1   S    
C18   C42   S    
C41   H22   S    
C32   S6    S    
C44   O18   D    
H20   O3    S    
C48   H9    S    
C29   S5    S    
C20   C25   A    
N1    Zn1   S    
C29   C33   A    
O8    S2    S    
O23   Zn1   S    
C3    S9    S    
O12   Zn2   S    
C54   H19   S    
C49   O36   D    
C8    C9    A    
H2    O15   S    
C51   O38   D    
O33   S8    D    
C37   S8    S    
C1    C15   S    
H8    O24   S    
O22   S5    D    
C43   H4    S    
C49   H14   S    
C13   C14   A    
O14   S4    D    
C8    H1    S    
C51   H16   S    
O7    S2    D    
C35   S7    S    
C28   O45   A    
C23   C53   A    
O24   S5    S    
H23   O8    S    
N2    Zn2   S    
C48   O25   D    
C13   C19   A    
C46   H6    S    
O28   S6    S    
C38   C39   A    
C24   C25   A    
C42   O16   D    
O35   S8    S    
C30   H18   S    
C45   C52   A    
O44   Zn1   S    
C1    O1    A    
C35   C55   A    
C40   H21   S    
O39   S9    D    
C40   O4    D    
O11   S3    S    
C29   C30   A    
C3    C9    A    
C21   C44   S    
C31   C32   A    
O34   Zn2   S    
O41   S9    S    
C17   C18   A    
C34   C45   A    
C52   C53   A    
C55   S1    S    
H10   O28   S    
H24   O11   S    
C52   H12   S    
H13   O35   S    
O15   S4    S    
C22   C46   S    
C34   C54   A    
C31   C48   S    
C22   C24   A    
O29   S7    D    
C12   C34   A    
O46   S1    D    
C35   C45   A    
C20   C43   S    
C28   O44   A    
C9    C10   S    
C15   C17   A    
C14   S3    S    
C46   O19   D    
O45   Zn2   S    
H17   O41   S    
C50   O37   D    
C24   C47   S    
O31   S7    S    
C3    C5    A    
C39   C49   S    
O30   S7    D    
C6    C7    A    
C38   C50   S    
O42   Zn1   S    
O13   S4    D    
C31   N2    A    
C32   C33   A    
O6    S2    D    
C12   C39   A    
C25   C26   S    
C22   N1    A    
O27   S6    D    
O26   S6    D    
C36   C55   A    
C2    C37   A    
C5    C6    A    
C44   H5    S    
C4    O23   A    
C21   N1    A    
C7    C41   S    
O40   S9    D    
C16   O43   A    
C50   H15   S    
C36   C54   A    
C10   C11   T    
C6    C16   S    
O9    S3    D    
C20   C21   A    
C28   C36   S    
C1    O12   A    
O32   S8    D    
C5    C40   S    
C2    C23   A    
C13   S2    S    
C14   C15   A    
H11   O31   S    
C30   N2    A    
