data_mof_unit_4278.cif
_audit_creation_date              2013-03-05T16:49:18-0500
_audit_creation_method            fapswitch 2.2
_symmetry_space_group_name_H-M    P1
_symmetry_Int_Tables_number       1
_space_group_crystal_system       triclinic
_cell_length_a                    8.106217
_cell_length_b                    8.931459
_cell_length_c                    16.799114
_cell_angle_alpha                 89.946392
_cell_angle_beta                  93.384534
_cell_angle_gamma                 89.948371
_cell_volume                      1214.1391538

loop_
_atom_site_label
_atom_site_type_symbol
_atom_site_description
_atom_site_fract_x
_atom_site_fract_y
_atom_site_fract_z
_atom_type_partial_charge
O1    O     O_R   0.636850 0.285340 0.500000 -0.592741
O2    O     O_R   0.363150 0.714660 0.500000 -0.595136
O3    O     O_R   0.363100 0.285350 0.500000 -0.618577
O4    O     O_R   0.636900 0.714650 0.500000 -0.617900
C1    C     C_R   0.500067 0.217996 0.500627 0.961300
C2    C     C_R   0.499908 0.781999 0.499158 0.967225
O5    O     O_R   0.652140 0.498630 0.616140 -0.616035
O6    O     O_R   0.347860 0.501370 0.383860 -0.616348
O7    O     O_R   0.378390 0.498650 0.616130 -0.594984
O8    O     O_R   0.621610 0.501350 0.383870 -0.591999
C3    C     C_R   0.519396 0.506173 0.653413 0.936586
C4    C     C_R   0.480615 0.492454 0.346598 0.930839
Zn1   Zn    Zn3+2 0.682780 0.499990 0.500010 1.079909
Zn2   Zn    Zn3+2 0.317220 0.500010 0.499990 1.077814
N1    N     N_1   0.073640 0.500030 0.499990 0.003960
N2    N     N_1   0.926360 0.499970 0.500010 0.004688
C5    C     C_R   0.525823 0.532739 0.738527 -0.184138
C6    C     C_R   0.473675 0.459309 0.261955 -0.190690
C7    C     C_R   0.416292 0.636408 0.771028 0.197085
C8    C     C_R   0.589256 0.359644 0.230614 0.196205
C9    C     C_R   0.407514 0.645366 0.853951 0.209368
C10   C     C_R   0.592501 0.341838 0.147866 0.210584
C11   C     C_R   0.505432 0.548710 0.902700 0.179711
C12   C     C_R   0.482509 0.425418 0.097949 0.178616
C13   C     C_R   0.622654 0.454497 0.869629 -0.124500
C14   C     C_R   0.359389 0.514085 0.130134 -0.123431
C15   C     C_R   0.633068 0.447207 0.787881 -0.221921
C16   C     C_R   0.354891 0.530479 0.211818 -0.212908
N3    N     N_2   0.485721 0.549342 0.985211 -0.102069
N4    N     N_2   0.500263 0.422418 0.015350 -0.102919
C17   C     C_1   0.500025 0.065189 0.500124 -0.092604
C18   C     C_1   0.499944 0.934814 0.499528 -0.091093
H1    H     H_    0.703591 0.384256 0.907170 0.227401
H2    H     H_    0.270080 0.574079 0.091660 0.225904
H3    H     H_    0.718925 0.369446 0.763046 0.198260
H4    H     H_    0.263709 0.604158 0.235677 0.201100
N5    N     N_R   0.705144 0.279042 0.282368 0.245185
O9    O     O_R   0.652504 0.182116 0.332776 -0.385961
O10   O     O_R   0.863252 0.294220 0.275160 -0.321120
N6    N     N_R   0.311704 0.729726 0.720031 0.243444
O11   O     O_R   0.376556 0.822308 0.670960 -0.392480
O12   O     O_R   0.152238 0.728137 0.725525 -0.316397
N7    N     N_R   0.709364 0.241741 0.114668 0.246694
O13   O     O_R   0.798134 0.285489 0.056950 -0.346769
O14   O     O_R   0.728587 0.106451 0.142575 -0.286506
N8    N     N_R   0.298236 0.750903 0.888485 0.247568
O15   O     O_R   0.202888 0.709301 0.944086 -0.343339
O16   O     O_R   0.294037 0.889591 0.864593 -0.286880

loop_
_geom_bond_atom_site_label_1
_geom_bond_atom_site_label_2
_geom_bond_distance
_ccdc_geom_bond_type
C2    C18   1.364878 S    
O7    Zn2   1.984521 S    
N3    N4    1.243775 D    
C13   C15   1.382438 A    
O7    C3    1.272401 A    
C14   C16   1.382767 A    
C10   N7    1.438564 S    
O6    C4    1.278962 A    
N7    O13   1.301069 A    
C15   H3    1.083859 S    
N6    O12   1.301471 A    
N5    O10   1.301643 A    
O5    C3    1.278279 A    
C8    N5    1.434507 S    
N7    O14   1.301592 A    
O2    C2    1.262513 A    
O3    Zn2   1.952636 S    
O8    C4    1.272961 A    
O1    C1    1.262489 A    
C11   N3    1.404653 S    
N6    O11   1.300145 A    
C7    C9    1.401400 A    
N5    O9    1.300207 A    
C12   C14   1.406639 A    
C6    C8    1.415988 A    
C11   C13   1.407620 A    
C9    C11   1.402364 A    
O2    Zn2   1.953285 S    
C10   C12   1.401700 A    
C1    C17   1.364816 S    
C12   N4    1.403733 S    
O1    Zn1   1.953283 S    
C7    N6    1.434923 S    
C8    C10   1.401108 A    
N1    N2    1.193904 T    
C5    C15   1.392582 A    
N8    O16   1.301529 A    
O5    Zn1   1.981150 S    
C6    C16   1.393831 A    
C16   H4    1.083803 S    
O4    C2    1.261799 A    
C9    N8    1.438732 S    
Zn1   N2    1.974512 S    
C4    C6    1.450521 S    
O4    Zn1   1.952635 S    
N8    O15   1.301157 A    
C3    C5    1.447520 S    
O6    Zn2   1.981150 S    
C5    C7    1.414373 A    
Zn2   N1    1.974512 S    
C14   H2    1.082759 S    
C17   C18   1.164498 T    
C13   H1    1.082329 S    
O3    C1    1.261801 A    
O8    Zn1   1.984521 S    
