data_mof_unit_807.cif
_audit_creation_date              2012-12-10T18:57:07-0500
_audit_creation_method            fapswitch 2.2
_symmetry_space_group_name_H-M    P1
_symmetry_Int_Tables_number       1
_space_group_crystal_system       triclinic
_cell_length_a                    10.720529
_cell_length_b                    10.094482
_cell_length_c                    10.934431
_cell_angle_alpha                 89.936399
_cell_angle_beta                  96.291473
_cell_angle_gamma                 87.116762
_cell_volume                      1174.66254065

loop_
_atom_site_label
_atom_site_type_symbol
_atom_type_description
_atom_site_fract_x
_atom_site_fract_y
_atom_site_fract_z
_atom_type_partial_charge
C1    C     C_R   0.262327 0.503174 0.512044 0.896067
C2    C     C_R   0.531220 0.613566 0.941986 0.056455
C3    C     C_R   0.519623 0.496732 0.132074 -0.073340
C4    C     C_R   0.517675 0.496766 0.874065 -0.097546
C5    C     C_R   0.547847 0.377766 0.070603 -0.077063
C6    C     C_R   0.525409 0.375450 0.941854 -0.102642
C7    C     C_3   0.488940 0.758415 0.929528 -0.315028
C8    C     C_3   0.445525 0.747255 0.060281 -0.293215
C9    C     C_R   0.081354 0.394790 0.578716 -0.048566
C10   C     C_R   0.953161 0.378404 0.547258 -0.116196
C11   C     C_R   0.877245 0.487013 0.491652 -0.189786
C12   C     C_R   0.740572 0.495887 0.495078 0.910156
C13   C     C_R   0.132849 0.509379 0.539207 -0.189680
C14   C     C_R   0.934727 0.602182 0.457328 -0.143135
C15   C     C_R   0.056550 0.622566 0.507827 -0.115522
C16   C     C_1   0.612840 0.264450 0.134754 0.318347
C17   C     C_1   0.482211 0.254235 0.886332 0.405498
C18   C     C_2   0.603724 0.841457 0.930569 1.059582
C19   C     C_2   0.304053 0.739358 0.059793 1.007411
C20   C     C_2   0.386982 0.791383 0.824738 0.991993
C21   C     C_2   0.500780 0.845646 0.152835 0.958528
C22   C     C_2   0.161420 0.301258 0.662303 1.030047
C23   C     C_R   0.588050 0.065259 0.574701 -0.009355
C24   C     C_2   0.907621 0.243787 0.559580 1.067705
C25   C     C_2   0.876301 0.691271 0.356586 1.012973
C26   C     C_2   0.067730 0.731133 0.598079 1.052776
C27   C     C_2   0.669655 0.124294 0.678305 0.931400
C28   C     C_2   0.310035 0.159610 0.353012 1.044707
C29   C     C_2   0.711168 0.848564 0.611637 1.012806
C30   C     C_2   0.289868 0.873205 0.373284 0.980638
C31   C     C_R   0.406718 0.078453 0.432116 -0.076104
C32   C     C_R   0.595149 0.923310 0.562961 0.018568
C33   C     C_R   0.402243 0.935195 0.437263 -0.102066
C34   C     C_R   0.503826 0.499567 0.261489 0.931940
C35   C     C_R   0.502621 0.499593 0.739936 0.931978
C36   C     C_R   0.511304 0.612520 0.063063 0.069160
H1    H     H_    0.793126 0.847093 0.949607 0.372441
H2    H     H_    0.263229 0.262429 0.194966 0.361269
H3    H     H_    0.794921 0.704445 0.723668 0.365440
H4    H     H_    0.215618 0.718194 0.283443 0.341714
H5    H     H_    0.155442 0.624683 0.063612 0.363276
H6    H     H_    0.326016 0.906077 0.677985 0.333864
H7    H     H_    0.494657 0.030535 0.214947 0.351773
H8    H     H_    0.230319 0.115087 0.698898 0.350743
H9    H     H_    0.920586 0.076960 0.662300 0.381679
H10   H     H_    0.871756 0.868846 0.270813 0.378944
H11   H     H_    0.088829 0.924329 0.632234 0.362362
H12   H     H_    0.777987 0.097503 0.840762 0.372929
N1    N     N_R   0.500000 0.857200 0.500000 -0.143603
N2    N     N_R   0.500000 0.142810 0.500000 -0.157489
N3    N     N_1   0.668224 0.175754 0.185816 -0.122691
N4    N     N_1   0.443201 0.159648 0.840490 -0.078261
O1    O     O_R   0.316770 0.614620 0.499990 -0.602214
O2    O     O_R   0.724832 0.780753 0.941069 -0.745007
O3    O     O_2   0.236270 0.840816 0.048400 -0.542426
O4    O     O_R   0.250441 0.616378 0.067626 -0.782945
O5    O     O_2   0.298941 0.719359 0.804117 -0.584232
O6    O     O_R   0.396119 0.900118 0.748071 -0.795781
O7    O     O_2   0.597037 0.817882 0.220312 -0.570122
O8    O     O_R   0.446034 0.973450 0.153023 -0.743276
O9    O     O_2   0.215624 0.343216 0.757525 -0.613693
O10   O     O_R   0.177064 0.167708 0.631874 -0.748971
O11   O     O_2   0.853010 0.189861 0.470497 -0.552815
O12   O     O_R   0.683230 0.614620 0.500010 -0.605465
O13   O     O_R   0.937090 0.174359 0.670439 -0.785435
O14   O     O_2   0.797144 0.649339 0.279254 -0.595639
O15   O     O_R   0.917453 0.819392 0.344597 -0.678908
O16   O     O_2   0.058064 0.707415 0.706294 -0.569316
O17   O     O_R   0.081745 0.860720 0.560602 -0.686532
O18   O     O_2   0.686896 0.241777 0.681699 -0.586583
O19   O     O_R   0.727475 0.045222 0.775256 -0.800003
O20   O     O_2   0.206003 0.182739 0.386209 -0.534579
O21   O     O_R   0.336666 0.208557 0.239849 -0.778509
O22   O     O_2   0.810591 0.876797 0.576223 -0.621930
O23   O     O_R   0.316800 0.385290 0.500000 -0.618594
O24   O     O_R   0.708832 0.748942 0.699376 -0.747813
O25   O     O_2   0.186060 0.929291 0.369917 -0.501157
O26   O     O_R   0.300571 0.753566 0.312963 -0.775591
O27   O     O_R   0.683200 0.385290 0.500000 -0.569594
O28   O     O_R   0.500000 0.614690 0.316780 -0.544295
O29   O     O_R   0.500000 0.614690 0.683220 -0.592465
O30   O     O_R   0.500020 0.385360 0.316780 -0.612967
O31   O     O_R   0.499980 0.385360 0.683220 -0.601831
O32   O     O_2   0.590970 0.961530 0.938745 -0.591021
Zn1   Zn    Zn3+2 0.500000 0.653120 0.500000 1.056391
Zn2   Zn    Zn3+2 0.500000 0.346880 0.500000 1.049436

loop_
_geom_bond_atom_site_label_1
_geom_bond_atom_site_label_2
_ccdc_geom_bond_type
C19   O4    S    
C2    C7    S    
C25   O15   S    
C16   N3    T    
C23   N2    A    
H6    O6    S    
C35   O29   A    
C7    C8    S    
C29   O24   S    
C21   O7    D    
C29   C32   S    
C5    C6    A    
C12   O12   A    
C11   C14   A    
C9    C22   S    
C33   N1    A    
C12   O27   A    
C2    C36   A    
C8    C36   S    
C1    O1    A    
H11   O17   S    
C5    C16   S    
C9    C13   A    
C34   O28   A    
C30   O25   D    
C18   O32   D    
C31   C33   A    
C23   C27   S    
C9    C10   A    
C4    C35   S    
C31   N2    A    
C28   O20   D    
C28   O21   S    
C17   N4    T    
C8    C19   S    
C1    O23   A    
N1    Zn1   S    
C21   O8    S    
C4    C6    A    
C18   O2    S    
C15   C26   S    
C29   O22   D    
C3    C34   S    
H8    O10   S    
O30   Zn2   S    
C2    C4    A    
H5    O4    S    
O28   Zn1   S    
C22   O10   S    
O23   Zn2   S    
C7    C18   S    
C8    C21   S    
H3    O24   S    
C27   O18   D    
C24   O13   S    
H1    O2    S    
H7    O8    S    
C24   O11   D    
C13   C15   A    
H9    O13   S    
H4    O26   S    
C1    C13   S    
H12   O19   S    
C20   O6    S    
O12   Zn1   S    
C27   O19   S    
C19   O3    D    
C6    C17   S    
C35   O31   A    
C30   C33   S    
C28   C31   S    
C25   O14   D    
C3    C5    A    
C11   C12   S    
C26   O16   D    
C23   C32   A    
H10   O15   S    
C22   O9    D    
C3    C36   A    
C14   C25   S    
C32   N1    A    
C10   C11   A    
N2    Zn2   S    
C30   O26   S    
O31   Zn2   S    
C10   C24   S    
C7    C20   S    
C26   O17   S    
C14   C15   A    
O1    Zn1   S    
C34   O30   A    
C20   O5    D    
O27   Zn2   S    
O29   Zn1   S    
H2    O21   S    
