data_mof_unit_2157.cif
_audit_creation_date              2012-12-10T17:08:47-0500
_audit_creation_method            fapswitch 2.2
_symmetry_space_group_name_H-M    P1
_symmetry_Int_Tables_number       1
_space_group_crystal_system       triclinic
_cell_length_a                    27.776655
_cell_length_b                    11.03667
_cell_length_c                    9.808348
_cell_angle_alpha                 111.11895
_cell_angle_beta                  97.652544
_cell_angle_gamma                 91.511303
_cell_volume                      2770.92085685

loop_
_atom_site_label
_atom_site_type_symbol
_atom_type_description
_atom_site_fract_x
_atom_site_fract_y
_atom_site_fract_z
_atom_type_partial_charge
C1    C     C_R   0.496464 0.254057 0.440585 0.870827
C2    C     C_R   0.503535 0.745943 0.559415 0.870993
C3    C     C_R   0.102531 0.498679 0.513658 -0.115729
C4    C     C_R   0.897903 0.512189 0.488669 -0.112186
C5    C     C_R   0.124319 0.379350 0.483686 -0.128354
C6    C     C_R   0.876849 0.631824 0.548134 -0.114329
C7    C     C_R   0.094784 0.264591 0.456062 0.500198
C8    C     C_R   0.907236 0.749001 0.610227 0.481504
C9    C     C_R   0.132078 0.614953 0.549674 0.013371
C10   C     C_R   0.867653 0.395039 0.425330 0.005778
C11   C     C_R   0.354630 0.496541 0.505668 -0.040437
C12   C     C_R   0.645385 0.504675 0.494610 -0.041606
C13   C     C_R   0.969913 0.387438 0.441568 0.093798
C14   C     C_R   0.030243 0.623722 0.548110 0.093013
C15   C     C_R   0.979346 0.626922 0.551771 -0.022819
C16   C     C_R   0.021374 0.384272 0.460475 -0.023010
C17   C     C_R   0.949174 0.508984 0.493430 0.069297
C18   C     C_R   0.051248 0.502211 0.507877 0.065366
C19   C     C_R   0.938312 0.272882 0.372077 -0.222386
C20   C     C_R   0.060923 0.738094 0.581404 -0.213372
C21   C     C_R   0.888188 0.276821 0.364551 -0.164627
C22   C     C_R   0.110809 0.733343 0.581737 -0.154488
C23   C     C_R   0.407473 0.499187 0.501687 0.801186
C24   C     C_R   0.592529 0.500963 0.498348 0.802014
C25   C     C_R   0.044035 0.267056 0.437472 -0.310257
C26   C     C_R   0.957776 0.744520 0.614724 -0.311678
C27   C     C_2   0.494545 0.114670 0.407058 -0.345989
C28   C     C_2   0.505452 0.885330 0.592942 -0.345673
C29   C     C_2   0.500889 0.069576 0.516578 -0.145737
C30   C     C_2   0.499104 0.930423 0.483422 -0.145697
C31   C     C_2   0.504270 0.510634 0.081097 -0.073812
C32   C     C_2   0.495729 0.489367 0.918903 -0.074062
C33   C     C_R   0.175221 0.379533 0.484561 0.547918
C34   C     C_R   0.825775 0.629788 0.544397 0.561884
C35   C     C_R   0.182452 0.610173 0.550755 0.536779
C36   C     C_R   0.817267 0.398382 0.424469 0.532508
C37   C     C_R   0.286803 0.518268 0.643522 -0.111855
C38   C     C_R   0.713245 0.485922 0.357390 -0.100041
C39   C     C_R   0.336849 0.520608 0.640021 -0.212302
C40   C     C_R   0.663186 0.481573 0.360499 -0.215444
C41   C     C_R   0.321411 0.469029 0.374932 -0.207080
C42   C     C_R   0.678591 0.532973 0.625471 -0.207649
C43   C     C_R   0.271413 0.466390 0.378758 -0.105080
C44   C     C_R   0.728605 0.537659 0.622088 -0.105586
C45   C     C_R   0.254049 0.491369 0.512992 0.360440
C46   C     C_R   0.746078 0.513889 0.488121 0.350431
Cu1   Cu    Cu3+1 0.508480 0.521810 0.644910 0.947590
Cu2   Cu    Cu3+1 0.491520 0.478190 0.355090 0.947456
H1    H     H_    0.333993 0.449731 0.269788 0.160250
H2    H     H_    0.665988 0.551519 0.730450 0.161636
H3    H     H_    0.512048 0.951546 0.707880 0.152655
H4    H     H_    0.487950 0.048453 0.292120 0.152577
H5    H     H_    0.467266 0.416924 0.846358 0.158939
H6    H     H_    0.532734 0.583076 0.153643 0.158937
H7    H     H_    0.548035 0.622692 0.934006 0.193850
H8    H     H_    0.451965 0.377309 0.065994 0.193545
H9    H     H_    0.246106 0.446052 0.277703 0.133305
H10   H     H_    0.753861 0.558608 0.723360 0.141015
H11   H     H_    0.638497 0.459807 0.257977 0.159226
H12   H     H_    0.361541 0.541861 0.742442 0.158712
H13   H     H_    0.726585 0.467210 0.253434 0.139977
H14   H     H_    0.273429 0.538062 0.747609 0.133241
H15   H     H_    0.865568 0.185975 0.311968 0.188755
H16   H     H_    0.132774 0.823273 0.606887 0.171639
H17   H     H_    0.951232 0.178409 0.319872 0.144998
H18   H     H_    0.047221 0.832678 0.602747 0.129788
H19   H     H_    0.023278 0.175433 0.410551 0.142100
H20   H     H_    0.979641 0.834908 0.674161 0.148829
H21   H     H_    0.492522 0.864485 0.368289 0.181153
H22   H     H_    0.507470 0.135514 0.631711 0.181195
N1    N     N_R   0.202755 0.493691 0.517190 -0.476879
N2    N     N_R   0.797519 0.514265 0.484529 -0.476177
N3    N     N_2   0.478780 0.445430 0.137360 -0.285099
N4    N     N_2   0.521220 0.554570 0.862640 -0.285054
O1    O     O_R   0.504520 0.332330 0.577400 -0.578107
O2    O     O_R   0.495480 0.667670 0.422600 -0.578142
O3    O     O_R   0.490210 0.295500 0.332650 -0.571664
O4    O     O_R   0.509790 0.704500 0.667350 -0.571586
O5    O     O_R   0.437420 0.518430 0.622370 -0.582413
O6    O     O_R   0.562580 0.481570 0.377630 -0.582248
O7    O     O_R   0.423110 0.481600 0.377610 -0.575649
O8    O     O_R   0.576890 0.518400 0.622390 -0.575593
O9    O     O_2   0.197149 0.267062 0.451347 -0.488961
O10   O     O_2   0.804249 0.741771 0.599196 -0.485729
O11   O     O_2   0.788180 0.286380 0.365977 -0.538910
O12   O     O_2   0.211000 0.720929 0.583839 -0.534585
O13   O     O_3   0.115307 0.147815 0.439318 -0.557450
C47   C     C_3   0.109093 0.109695 0.559843 0.072341
H23   H     H_    0.114892 0.004435 0.525591 0.169730
H24   H     H_    0.071464 0.119286 0.587956 0.109391
C48   C     C_3   0.146618 0.184796 0.696919 -0.339874
H25   H     H_    0.184004 0.167167 0.669666 0.261520
H26   H     H_    0.142319 0.290982 0.731731 0.204954
C49   C     C_3   0.140319 0.142838 0.826131 -0.887067
H27   H     H_    0.103147 0.159805 0.855447 0.254321
H28   H     H_    0.167349 0.200598 0.923980 0.266511
H29   H     H_    0.146296 0.038106 0.797390 0.261759
O14   O     O_3   0.887999 0.866305 0.680774 -0.561503
C50   C     C_3   0.899160 0.961032 0.620626 0.089160
H30   H     H_    0.864194 0.989831 0.576533 0.188239
H31   H     H_    0.920355 0.926132 0.526463 0.108296
C51   C     C_3   0.926612 0.081374 0.743326 -0.354850
H32   H     H_    0.903733 0.121218 0.831730 0.242443
H33   H     H_    0.960878 0.053740 0.792810 0.211341
C52   C     C_3   0.939111 0.186953 0.684488 -0.902081
H34   H     H_    0.962762 0.149904 0.597821 0.247436
H35   H     H_    0.958975 0.272591 0.776010 0.262897
H36   H     H_    0.905294 0.218555 0.637616 0.271890

loop_
_geom_bond_atom_site_label_1
_geom_bond_atom_site_label_2
_ccdc_geom_bond_type
O13   C47   S    
C45   N1    S    
C1    O3    A    
C14   C18   A    
C25   H19   S    
Cu1   O5    S    
C37   H14   S    
C52   H35   S    
C34   O10   S    
C51   C52   S    
C3    C9    A    
C20   H18   S    
C19   C21   A    
C32   N4    D    
C51   H33   S    
C28   H3    S    
C9    C22   A    
C31   N3    D    
C27   C29   D    
C8    C26   A    
Cu2   O7    S    
C3    C18   A    
Cu1   O8    S    
C24   O8    A    
C8    O14   S    
H7    N4    S    
C24   O6    A    
C7    O13   S    
C31   C32   S    
C44   H10   S    
C5    C33   A    
C12   C42   A    
C19   H17   S    
C46   N2    S    
C38   H13   S    
C35   N1    A    
C40   H11   S    
C41   C43   A    
C49   H27   S    
C42   C44   A    
C41   H1    S    
C44   C46   A    
C10   C21   A    
C52   H36   S    
C21   H15   S    
C13   C19   A    
C1    O1    A    
Cu1   Cu2   S    
C14   C20   A    
C4    C6    A    
C48   H25   S    
C5    C7    A    
C33   N1    A    
C15   C26   A    
C6    C8    A    
C49   H29   S    
C6    C34   A    
Cu2   O3    S    
C12   C40   A    
C11   C39   A    
C29   C30   S    
C2    O4    A    
C48   H26   S    
C33   O9    S    
C50   H30   S    
C47   C48   S    
C49   H28   S    
C43   C45   A    
C42   H2    S    
C4    C17   A    
C50   H31   S    
C47   H24   S    
C37   C45   A    
C34   N2    A    
C32   H5    S    
C30   H21   S    
C2    O2    A    
C27   H4    S    
C1    C27   S    
C29   H22   S    
C16   C25   A    
C15   C17   A    
H8    N3    S    
C23   O7    A    
Cu2   N3    S    
Cu1   N4    S    
C20   C22   A    
C3    C5    A    
C10   C36   A    
C36   O11   S    
C52   H34   S    
C12   C24   S    
C7    C25   A    
C13   C17   A    
C26   H20   S    
Cu2   O6    S    
C28   C30   D    
Cu1   O1    S    
C37   C39   A    
C48   C49   S    
C38   C40   A    
C39   H12   S    
C11   C23   S    
C35   O12   S    
C11   C41   A    
C31   H6    S    
C51   H32   S    
C38   C46   A    
C43   H9    S    
C22   H16   S    
Cu2   O2    S    
C50   C51   S    
C47   H23   S    
C16   C18   A    
O14   C50   S    
C13   C16   A    
C9    C35   A    
C14   C15   A    
C2    C28   S    
Cu1   O4    S    
C23   O5    A    
C4    C10   A    
C36   N2    A    
