data_mof_unit_146.cif
_audit_creation_date              2012-12-11T15:16:41-0500
_audit_creation_method            fapswitch 2.2
_symmetry_space_group_name_H-M    P1
_symmetry_Int_Tables_number       1
_space_group_crystal_system       triclinic
_cell_length_a                    25.186846
_cell_length_b                    7.230088
_cell_length_c                    21.883321
_cell_angle_alpha                 90.002843
_cell_angle_beta                  110.321708
_cell_angle_gamma                 90.001442
_cell_volume                      3736.98289489

loop_
_atom_site_label
_atom_site_type_symbol
_atom_type_description
_atom_site_fract_x
_atom_site_fract_y
_atom_site_fract_z
_atom_type_partial_charge
O1    O     O_R   0.554350 0.505270 0.581390 -0.529976
O2    O     O_R   0.445650 0.005270 0.418610 -0.529977
O3    O     O_R   0.553380 0.177580 0.454800 -0.543328
O4    O     O_R   0.446620 0.677580 0.545200 -0.543326
C1    C     C_R   0.565261 0.345250 0.437353 0.690698
C2    C     C_R   0.434740 0.845252 0.562648 0.690708
O5    O     O_R   0.560970 0.175640 0.583140 -0.533223
O6    O     O_R   0.439030 0.675640 0.416860 -0.533219
O7    O     O_R   0.453290 0.004120 0.547860 -0.531596
O8    O     O_R   0.546710 0.504120 0.452140 -0.531595
C3    C     C_R   0.576098 0.344089 0.607632 0.675165
C4    C     C_R   0.423901 0.844077 0.392368 0.675166
O9    O     O_3   0.464660 0.338800 0.488280 -0.372052
O10   O     O_3   0.535340 0.838800 0.511720 -0.372057
V1    V     V_3+5 0.506560 0.064420 0.502170 1.425935
V2    V     V_3+5 0.493440 0.564420 0.497830 1.425954
C5    C     C_R   0.147144 0.962361 0.289930 -0.083114
C6    C     C_R   0.852871 0.461983 0.710066 -0.083104
H1    H     H_    0.062132 0.990786 0.223035 0.116165
H2    H     H_    0.937885 0.490403 0.776962 0.116154
H3    H     H_    0.133354 0.982557 0.331069 0.186298
H4    H     H_    0.866669 0.482009 0.668925 0.186298
C7    C     C_R   0.120648 0.941054 0.172813 -0.034717
C8    C     C_R   0.879353 0.440997 0.827188 -0.034705
C9    C     C_R   0.396417 0.830060 0.273015 -0.160102
C10   C     C_R   0.603569 0.330342 0.726986 -0.160129
C11   C     C_R   0.356997 0.833399 0.210162 -0.116332
C12   C     C_R   0.642986 0.333793 0.789841 -0.116324
C13   C     C_R   0.299643 0.858430 0.199597 -0.134381
C14   C     C_R   0.700344 0.358719 0.800406 -0.134376
C15   C     C_R   0.279888 0.881544 0.252295 0.076660
C16   C     C_R   0.720108 0.381606 0.747706 0.076657
C17   C     C_R   0.320840 0.878516 0.316935 0.001968
C18   C     C_R   0.679161 0.378457 0.683064 0.001968
C19   C     C_R   0.221033 0.908138 0.242852 0.023887
C20   C     C_R   0.778967 0.408096 0.757149 0.023885
C21   C     C_R   0.204645 0.933126 0.298479 0.038837
C22   C     C_R   0.795365 0.432859 0.701519 0.038834
C23   C     C_R   0.245873 0.928905 0.361621 0.373260
C24   C     C_R   0.754141 0.428525 0.638376 0.373262
C25   C     C_R   0.302727 0.901632 0.370223 -0.226607
C26   C     C_R   0.697282 0.401356 0.629774 -0.226609
C27   C     C_R   0.177690 0.911354 0.180067 -0.181935
C28   C     C_R   0.822306 0.411418 0.819936 -0.181934
C29   C     C_R   0.105915 0.967118 0.227969 -0.180866
C30   C     C_R   0.894096 0.466839 0.772029 -0.180872
C31   C     C_R   0.379338 0.851877 0.326887 -0.053880
C32   C     C_R   0.620659 0.351934 0.673113 -0.053866
H5    H     H_    0.186656 0.892371 0.135803 0.089855
H6    H     H_    0.813334 0.392588 0.864202 0.089847
H7    H     H_    0.440694 0.810933 0.279631 0.101200
H8    H     H_    0.559288 0.311311 0.720369 0.101210
H9    H     H_    0.271985 0.859613 0.149454 0.105817
H10   H     H_    0.727999 0.360009 0.850551 0.105818
H11   H     H_    0.371051 0.816443 0.169019 0.122343
H12   H     H_    0.628923 0.317011 0.830985 0.122343
H13   H     H_    0.332910 0.899267 0.419548 0.144984
H14   H     H_    0.667102 0.398898 0.580448 0.144959
C33   C     C_R   0.132540 0.765377 0.898825 -0.149741
C34   C     C_R   0.867480 0.265356 0.101201 -0.149727
H15   H     H_    0.126559 0.647988 0.926532 0.126985
H16   H     H_    0.873471 0.147943 0.073506 0.126993
C35   C     C_R   0.168219 0.746336 0.861913 0.157257
C36   C     C_R   0.831807 0.246318 0.138118 0.157256
C37   C     C_R   0.176197 0.898755 0.825079 0.015435
C38   C     C_R   0.823815 0.398765 0.174935 0.015454
C39   C     C_R   0.148988 0.066873 0.828142 -0.162738
C40   C     C_R   0.851008 0.566904 0.171854 -0.162742
H17   H     H_    0.153882 0.184855 0.800200 0.146559
H18   H     H_    0.846104 0.684902 0.199786 0.146546
C41   C     C_R   0.114198 0.084546 0.865746 -0.164451
C42   C     C_R   0.885795 0.584574 0.134246 -0.164456
H19   H     H_    0.093523 0.215737 0.866021 0.132170
H20   H     H_    0.906458 0.715784 0.133957 0.132169
C43   C     C_R   0.105029 0.933388 0.901015 -0.083506
C44   C     C_R   0.894976 0.433391 0.098991 -0.083511
N1    N     N_R   0.242141 0.041559 0.777252 -0.281864
N2    N     N_R   0.757830 0.541524 0.222713 -0.281866
N3    N     N_R   0.275727 0.034514 0.741770 -0.282981
N4    N     N_R   0.724242 0.534475 0.258191 -0.283020
C45   C     C_R   0.281818 0.875518 0.711619 0.534766
C46   C     C_R   0.718187 0.375526 0.288386 0.534776
N5    N     N_R   0.252274 0.724076 0.718119 -0.271437
N6    N     N_R   0.747771 0.224136 0.281933 -0.271419
N7    N     N_R   0.218713 0.731198 0.753702 -0.272537
N8    N     N_R   0.781335 0.231261 0.246353 -0.272530
C47   C     C_R   0.213263 0.889485 0.784589 0.520237
C48   C     C_R   0.786749 0.389499 0.215423 0.520242
C49   C     C_R   0.324601 0.709576 0.638040 -0.098645
C50   C     C_R   0.675406 0.209589 0.361966 -0.098587
H21   H     H_    0.298968 0.588908 0.637468 0.156383
H22   H     H_    0.701041 0.088931 0.362538 0.156372
C51   C     C_R   0.361551 0.704627 0.602679 -0.166284
C52   C     C_R   0.638456 0.204636 0.397327 -0.166227
H23   H     H_    0.362781 0.580224 0.575654 0.143258
H24   H     H_    0.637226 0.080241 0.424351 0.143244
C53   C     C_R   0.395983 0.857447 0.601537 -0.056518
C54   C     C_R   0.604020 0.357443 0.398466 -0.056528
C55   C     C_R   0.392512 0.018033 0.638123 0.166725
C56   C     C_R   0.607493 0.518021 0.361884 0.166690
C57   C     C_R   0.354777 0.020665 0.672777 -0.116073
C58   C     C_R   0.645227 0.520656 0.327228 -0.116098
H25   H     H_    0.352469 0.143308 0.700191 0.139075
H26   H     H_    0.647535 0.643295 0.299817 0.139082
C59   C     C_R   0.320609 0.868021 0.673337 -0.020815
C60   C     C_R   0.679396 0.368025 0.326668 -0.020827
O11   O     O_R   0.953220 0.285790 0.047790 -0.537924
O12   O     O_R   0.046780 0.785790 0.952210 -0.537924
O13   O     O_R   0.939020 0.617570 0.916840 -0.532862
O14   O     O_R   0.060980 0.117570 0.083160 -0.532869
C61   C     C_R   0.923959 0.448590 0.892360 0.681152
C62   C     C_R   0.076041 0.948602 0.107641 0.681145
O15   O     O_R   0.946600 0.615450 0.045180 -0.540226
O16   O     O_R   0.053400 0.115450 0.954820 -0.540223
O17   O     O_R   0.054370 0.786770 0.081410 -0.531488
O18   O     O_R   0.945630 0.286770 0.918590 -0.531490
C63   C     C_R   0.934179 0.446554 0.061421 0.685910
C64   C     C_R   0.065822 0.946552 0.938580 0.685915
O19   O     O_3   0.035300 0.454160 0.011680 -0.373992
O20   O     O_3   0.964700 0.954160 0.988320 -0.373990
V3    V     V_3+5 0.993450 0.728620 0.997830 1.416646
V4    V     V_3+5 0.006550 0.228620 0.002170 1.416650
C65   C     C_3   0.198271 0.564718 0.864508 -0.752814
H27   H     H_    0.244608 0.588105 0.879353 0.221418
H28   H     H_    0.190971 0.467608 0.900134 0.194997
H29   H     H_    0.182401 0.497367 0.816041 0.235098
C66   C     C_3   0.801774 0.064669 0.135549 -0.752852
H30   H     H_    0.755435 0.087994 0.120705 0.221427
H31   H     H_    0.809081 0.967526 0.099935 0.195001
H32   H     H_    0.817654 0.997395 0.184025 0.235090
C67   C     C_3   0.429058 0.187079 0.643291 -0.745394
H33   H     H_    0.424534 0.288590 0.679285 0.184869
H34   H     H_    0.474285 0.146109 0.659613 0.194747
H35   H     H_    0.416673 0.259123 0.595608 0.227356
C68   C     C_3   0.570951 0.687061 0.356723 -0.745382
H36   H     H_    0.575477 0.788573 0.320733 0.184869
H37   H     H_    0.525723 0.646086 0.340399 0.194746
H38   H     H_    0.583338 0.759102 0.404409 0.227355
Cl1   Cl    Cl    0.228636 0.957099 0.432677 -0.629718
Cl2   Cl    Cl    0.771389 0.456452 0.567316 -0.629715

loop_
_geom_bond_atom_site_label_1
_geom_bond_atom_site_label_2
_ccdc_geom_bond_type
C68   H38   S    
C38   C40   A    
C35   C37   A    
C7    C29   A    
C33   C43   A    
C11   C13   A    
O1    C3    A    
O12   V3    S    
C42   C44   A    
C67   H35   S    
O2    C4    A    
C26   H14   S    
C2    O7    A    
C66   H31   S    
C12   H12   S    
C68   H36   S    
C23   C25   A    
O5    C3    A    
C7    C62   S    
C14   H10   S    
O18   V4    S    
O17   V3    S    
C16   C20   A    
C19   C21   A    
C5    C29   A    
O13   C61   A    
C38   C48   S    
N8    C48   A    
C65   H28   S    
C52   C54   A    
C28   H6    S    
C7    C27   A    
C34   H16   S    
C45   N5    A    
C37   C39   A    
C18   C26   A    
C15   C17   A    
C37   C47   S    
C61   O18   A    
O6    C4    A    
C14   C16   A    
C19   C27   A    
C9    C31   A    
C39   C41   A    
C56   C68   S    
C10   C32   A    
C24   C26   A    
O6    V2    S    
C22   C24   A    
C13   C15   A    
C3    C32   S    
C8    C61   S    
C4    C31   S    
C6    C30   A    
C53   C55   A    
C50   C52   A    
C23   Cl1   S    
N7    C47   A    
C57   C59   A    
C45   C59   S    
C33   H15   S    
C2    C53   S    
O12   C64   A    
C65   H27   S    
C50   C60   A    
N4    C46   A    
C41   H19   S    
C27   H5    S    
C65   H29   S    
O5    V1    S    
O3    C1    A    
C34   C44   A    
C49   C51   A    
C5    H3    S    
C39   H17   S    
C16   C18   A    
O4    V2    S    
C52   H24   S    
C9    H7    S    
C10   H8    S    
C50   H22   S    
C40   C42   A    
C36   C66   S    
C56   C58   A    
N1    N3    A    
O1    V2    S    
C5    C21   A    
C58   H26   S    
O2    V1    S    
O16   C64   A    
O15   C63   A    
C42   H20   S    
N5    N7    A    
C46   N6    A    
C43   C64   S    
C17   C31   A    
C15   C19   A    
C20   C28   A    
O4    C2    A    
C18   C32   A    
C67   H33   S    
C51   C53   A    
O3    V1    S    
O20   V3    S    
N3    C45   A    
O19   V4    S    
N2    C48   A    
C68   H37   S    
C55   C57   A    
C6    H4    S    
C10   C12   A    
N6    N8    A    
C67   H34   S    
C35   C65   S    
H1    C29   S    
C9    C11   A    
C11   H11   S    
C33   C35   A    
C44   C63   S    
C55   C67   S    
C34   C36   A    
C17   C25   A    
C12   C14   A    
O7    V1    S    
C66   H32   S    
C8    C30   A    
C1    O8    A    
C21   C23   A    
O8    V2    S    
O14   V4    S    
C41   C43   A    
O13   V3    S    
C51   H23   S    
C13   H9    S    
C8    C28   A    
C24   Cl2   S    
C20   C22   A    
C58   C60   A    
N2    N4    A    
C46   C60   S    
C6    C22   A    
C54   C56   A    
O14   C62   A    
C25   H13   S    
O16   V4    S    
O15   V3    S    
C1    C54   S    
N1    C47   A    
C57   H25   S    
C49   H21   S    
O9    V2    S    
C49   C59   A    
C40   H18   S    
O10   V1    S    
O11   V4    S    
O11   C63   A    
C62   O17   A    
H2    C30   S    
C66   H30   S    
C36   C38   A    
