data_mof_unit_3670.cif
_audit_creation_date              2012-10-26T19:17:56-0400
_audit_creation_method            fapswitch 2.2
_symmetry_space_group_name_H-M    P1
_symmetry_Int_Tables_number       1
_space_group_crystal_system       triclinic
_cell_length_a                    10.850921
_cell_length_b                    12.346011
_cell_length_c                    13.280167
_cell_angle_alpha                 116.627066
_cell_angle_beta                  76.879587
_cell_angle_gamma                 101.425401
_cell_volume                      1539.36756765

loop_
_atom_site_label
_atom_site_type_symbol
_atom_type_description
_atom_site_fract_x
_atom_site_fract_y
_atom_site_fract_z
_atom_type_partial_charge
C1    C     C_R   0.513835 0.854784 0.286851 0.628582
C2    C     C_R   0.247905 0.320515 0.370953 -0.071925
C3    C     C_R   0.347132 0.271595 0.282996 -0.169953
C4    C     C_R   0.737313 0.998838 0.498828 0.568006
C5    C     C_R   0.360878 0.147909 0.238583 -0.089877
C6    C     C_R   0.276471 0.072902 0.283186 0.420064
C7    C     C_R   0.179732 0.122685 0.375639 0.108994
C8    C     C_R   0.356141 0.274877 0.024663 -0.147281
C9    C     C_R   0.467615 0.228995 0.834109 -0.015873
C10   C     C_R   0.638946 0.808786 0.097891 -0.185714
C11   C     C_R   0.692777 0.724749 0.994177 -0.064159
C12   C     C_R   0.620920 0.847678 0.800277 0.237790
C13   C     C_R   0.648042 0.601405 0.956486 0.305422
C14   C     C_R   0.533849 0.562596 0.016102 -0.015422
C15   C     C_R   0.476531 0.649949 0.121522 -0.057573
C16   C     C_R   0.484361 0.145210 0.713074 0.522707
C17   C     C_R   0.479512 0.438935 0.978403 -0.021109
C18   C     C_R   0.387768 0.400415 0.053866 -0.004859
C19   C     C_R   0.324732 0.487911 0.152898 0.273324
C20   C     C_R   0.362523 0.612072 0.181005 0.290842
C21   C     C_R   0.508380 0.352855 0.865751 -0.086000
C22   C     C_R   0.400530 0.189764 0.916654 -0.170842
C23   C     C_R   0.036872 0.972232 0.578387 0.277292
C24   C     C_R   0.536161 0.772048 0.165102 0.019118
C25   C     C_R   0.700113 0.343858 0.324345 -0.115202
C26   C     C_R   0.323418 0.757801 0.643640 0.419348
C27   C     C_R   0.276090 0.651442 0.661394 0.405751
C28   C     C_R   0.262686 0.001326 0.500243 0.615078
C29   C     C_R   0.343186 0.550888 0.609091 0.359339
C30   C     C_R   0.457038 0.549687 0.532248 -0.100250
C31   C     C_R   0.493855 0.652891 0.505186 -0.002562
C32   C     C_R   0.530769 0.447387 0.475466 -0.040764
C33   C     C_R   0.632270 0.445986 0.386348 0.048628
C34   C     C_R   0.129126 0.005716 0.501004 -0.051464
C35   C     C_R   0.664681 0.545992 0.359372 0.369938
C36   C     C_R   0.598285 0.647457 0.418801 -0.017486
C37   C     C_R   0.508308 0.344969 0.502012 0.089329
C38   C     C_R   0.667955 0.243891 0.350759 0.036294
C39   C     C_R   0.646556 0.972418 0.820428 -0.121542
C40   C     C_R   0.742165 0.009858 0.748832 -0.179476
C41   C     C_R   0.813851 0.924596 0.655843 0.083019
C42   C     C_R   0.791707 0.801683 0.637121 0.398684
C43   C     C_R   0.695499 0.764038 0.708325 -0.045627
C44   C     C_3   0.472735 0.888358 0.968348 -0.097336
C45   C     C_R   0.091522 0.049132 0.431084 -0.039399
C46   C     C_3   0.115821 0.402351 0.174114 -0.109986
C47   C     C_3   0.808528 0.485270 0.906404 -0.094129
C48   C     C_3   0.190296 0.710599 0.219694 -0.021929
C49   C     C_3   0.198112 0.882039 0.810721 -0.035789
C50   C     C_3   0.083307 0.082989 0.758135 -0.108103
C51   C     C_R   0.962454 0.040685 0.428435 0.316266
C52   C     C_R   0.870875 0.998305 0.499351 -0.031591
C53   C     C_R   0.907887 0.963100 0.574555 -0.021762
C54   C     C_R   0.165419 0.247009 0.417866 -0.057630
Cu1   Cu    Cu3+1 0.529370 0.098270 0.475420 1.008241
Cu2   Cu    Cu3+1 0.470630 0.901730 0.524580 1.066383
F1    F     F_    0.292155 0.953586 0.238951 -0.694895
F2    F     F_    0.762623 0.546573 0.275036 -0.659821
F3    F     F_    0.286766 0.452426 0.628455 -0.645672
F4    F     F_    0.161237 0.640742 0.725187 -0.613336
F5    F     F_    0.860237 0.717632 0.547541 -0.591169
F6    F     F_    0.926361 0.075591 0.356598 -0.641525
H1    H     H_    0.413521 0.329670 0.249254 0.145040
H2    H     H_    0.776943 0.340555 0.255115 0.149617
H3    H     H_    0.441683 0.341188 0.573797 0.214452
H4    H     H_    0.631310 0.719525 0.392761 0.198848
H5    H     H_    0.758391 0.105091 0.764215 0.103230
H6    H     H_    0.677334 0.668291 0.690961 0.167653
H7    H     H_    0.090972 0.287386 0.488253 0.182140
H8    H     H_    0.236258 0.416096 0.404441 0.197074
H9    H     H_    0.414841 0.945983 0.957667 0.096288
H10   H     H_    0.549468 0.945535 0.018714 0.112587
H11   H     H_    0.408764 0.840855 0.017578 0.196538
H12   H     H_    0.437870 0.110775 0.170240 0.101085
H13   H     H_    0.093504 0.306555 0.163583 0.126228
H14   H     H_    0.121038 0.404003 0.089878 0.088186
H15   H     H_    0.034581 0.451721 0.232805 0.197369
H16   H     H_    0.758071 0.439825 0.962615 0.126467
H17   H     H_    0.875242 0.564532 0.952422 0.148956
H18   H     H_    0.866157 0.418421 0.832854 0.161251
H19   H     H_    0.119688 0.628844 0.194930 0.124830
H20   H     H_    0.230049 0.731346 0.144442 0.148148
H21   H     H_    0.138020 0.787348 0.285309 0.191608
H22   H     H_    0.246958 0.850077 0.855868 0.126464
H23   H     H_    0.374827 0.094109 0.895337 0.128378
H24   H     H_    0.098179 0.839205 0.806397 0.212947
H25   H     H_    0.192451 0.980336 0.863618 0.081182
H26   H     H_    0.026233 0.148627 0.757473 0.081415
H27   H     H_    0.185051 0.121065 0.755603 0.145548
H28   H     H_    0.048506 0.076859 0.840767 0.116620
H29   H     H_    0.293643 0.241538 0.082855 0.143854
H30   H     H_    0.554767 0.382125 0.799857 0.205512
H31   H     H_    0.684753 0.901613 0.129581 0.132471
H32   H     H_    0.776956 0.754108 0.946824 0.147301
H33   H     H_    0.592555 0.041584 0.889431 0.108047
H34   H     H_    0.718853 0.164381 0.302133 0.160796
N1    N     N_R   0.573890 0.246290 0.438210 -0.257902
N2    N     N_R   0.426890 0.754320 0.561170 -0.267523
O1    O     O_R   0.536940 0.972510 0.318130 -0.496023
O2    O     O_3   0.226973 0.455411 0.225380 -0.558744
O3    O     O_3   0.722142 0.520646 0.864721 -0.579913
O4    O     O_3   0.286443 0.696081 0.267175 -0.502931
O5    O     O_3   0.263371 0.864042 0.700190 -0.484325
O6    O     O_3   0.071422 0.964281 0.668604 -0.497408
O7    O     O_R   0.487330 0.806530 0.359650 -0.492957
O8    O     O_R   0.705160 0.082990 0.479250 -0.441103
O9    O     O_R   0.655550 0.917010 0.520760 -0.548987
O10   O     O_R   0.512670 0.193470 0.640350 -0.530242
O11   O     O_R   0.463060 0.027490 0.681870 -0.470817
O12   O     O_R   0.344450 0.082990 0.479240 -0.513744
O13   O     O_R   0.294840 0.917010 0.520750 -0.379467
O14   O     O_3   0.522337 0.799837 0.861848 -0.575449

loop_
_geom_bond_atom_site_label_1
_geom_bond_atom_site_label_2
_ccdc_geom_bond_type
Cu1   Cu2   S    
C50   O6    S    
C47   O3    S    
C27   C29   A    
C41   C42   A    
C49   H25   S    
C19   C20   A    
C14   C17   A    
Cu2   N2    S    
C1    O1    A    
C37   N1    A    
C26   C27   A    
C4    C52   S    
C35   F2    S    
C7    C45   S    
C49   H22   S    
C9    C16   S    
C12   C43   A    
C27   F4    S    
C30   C31   A    
C25   C38   A    
C36   H4    S    
C9    C22   A    
C31   N2    A    
C20   O4    S    
C45   C51   A    
C48   H19   S    
C44   H9    S    
C18   C19   A    
C22   H23   S    
C5    H12   S    
C50   H28   S    
C29   F3    S    
C43   H6    S    
C40   H5    S    
C37   H3    S    
C8    C22   A    
C47   H17   S    
Cu2   O13   S    
C50   H26   S    
C28   C34   S    
C13   C14   A    
C6    F1    S    
C51   F6    S    
C47   H18   S    
C38   N1    A    
C46   H14   S    
C46   H13   S    
C16   O11   A    
C23   C53   A    
C28   O13   A    
C15   C20   A    
C4    O9    A    
Cu1   O8    S    
C51   C52   A    
C2    C54   A    
C39   C40   A    
C8    H29   S    
C10   H31   S    
C10   C24   A    
C4    O8    A    
C8    C18   A    
C25   H2    S    
Cu2   O9    S    
C29   C30   A    
C26   O5    S    
C50   H27   S    
C23   O6    S    
C23   C34   A    
C48   O4    S    
Cu1   N1    S    
C25   C33   A    
C17   C18   A    
C34   C45   A    
C32   C37   A    
C42   F5    S    
C41   C53   S    
C26   N2    A    
C44   O14   S    
C11   H32   S    
C40   C41   A    
Cu1   O12   S    
C42   C43   A    
C13   O3    S    
Cu2   O11   S    
C12   O14   S    
C52   C53   A    
C46   O2    S    
C15   C24   A    
C14   C15   A    
C49   H24   S    
C3    C5    A    
C49   O5    S    
C46   H15   S    
C19   O2    S    
C6    C7    A    
C3    H1    S    
C47   H16   S    
C48   H21   S    
Cu1   O10   S    
C28   O12   A    
C32   C33   A    
C12   C39   A    
C2    C3    A    
C39   H33   S    
C30   C32   A    
C11   C13   A    
C9    C21   A    
C5    C6    A    
C54   H7    S    
C33   C35   A    
C48   H20   S    
C44   H10   S    
C44   H11   S    
C17   C21   A    
Cu2   O7    S    
C38   H34   S    
C10   C11   A    
C16   O10   A    
C1    C24   S    
Cu1   O1    S    
C31   C36   A    
C35   C36   A    
C7    C54   A    
C2    H8    S    
C1    O7    A    
C21   H30   S    
