data_mof_unit_1307.cif
_audit_creation_date              2012-10-26T21:08:10-0400
_audit_creation_method            fapswitch 2.2
_symmetry_space_group_name_H-M    P1
_symmetry_Int_Tables_number       1
_space_group_crystal_system       triclinic
_cell_length_a                    15.853728
_cell_length_b                    10.872793
_cell_length_c                    9.594995
_cell_angle_alpha                 91.883528
_cell_angle_beta                  90.142574
_cell_angle_gamma                 92.983966
_cell_volume                      1650.78107069

loop_
_atom_site_label
_atom_site_type_symbol
_atom_type_description
_atom_site_fract_x
_atom_site_fract_y
_atom_site_fract_z
_atom_type_partial_charge
C1    C     C_R   0.504717 0.263260 0.497904 0.541780
C2    C     C_R   0.620060 0.086027 0.830201 -0.122058
C3    C     C_R   0.584292 0.971358 0.861883 -0.127286
C4    C     C_R   0.339874 0.499309 0.499817 0.581453
C5    C     C_R   0.537407 0.901552 0.761269 -0.096268
C6    C     C_R   0.525055 0.945910 0.625803 -0.015155
C7    C     C_R   0.546713 0.071428 0.606391 0.015493
C8    C     C_R   0.510208 0.130003 0.494378 -0.049393
C9    C     C_R   0.464762 0.061352 0.391475 -0.149123
C10   C     C_R   0.453634 0.933991 0.397824 0.184947
C11   C     C_R   0.488678 0.873324 0.511436 -0.019325
C12   C     C_3   0.082642 0.500781 0.499733 0.050920
C13   C     C_R   0.618876 0.655280 0.149668 -0.066668
C14   C     C_R   0.680435 0.724543 0.080029 -0.186332
C15   C     C_R   0.681269 0.722383 0.936368 -0.180635
C16   C     C_R   0.495264 0.737965 0.503109 0.564208
C17   C     C_R   0.619511 0.652888 0.861828 -0.100994
C18   C     C_R   0.558846 0.575143 0.928143 0.153050
C19   C     C_R   0.558744 0.575531 0.077667 0.191806
C20   C     C_R   0.444442 0.427507 0.070977 0.021587
C21   C     C_R   0.444391 0.427664 0.923060 0.016460
C22   C     C_R   0.660108 0.500464 0.500195 0.521558
C23   C     C_3   0.975540 0.592065 0.586464 -0.101198
C24   C     C_3   0.968022 0.392179 0.543655 -0.100997
C25   C     C_3   0.024437 0.410035 0.413607 -0.099792
C26   C     C_1   0.250047 0.499749 0.499543 0.014061
C27   C     C_1   0.749930 0.500937 0.500528 -0.036645
C28   C     C_3   0.027739 0.482929 0.629783 -0.099221
C29   C     C_3   0.917356 0.501299 0.500335 0.047127
C30   C     C_3   0.031983 0.609925 0.456408 -0.090745
C31   C     C_3   0.972246 0.519167 0.370282 -0.100053
C32   C     C_1   0.174414 0.500262 0.499519 -0.033410
C33   C     C_1   0.825577 0.501236 0.500559 -0.062349
C34   C     C_R   0.601174 0.136603 0.703514 -0.081765
Cu1   Cu    Cu3+1 0.499990 0.499990 0.640660 0.933791
Cu2   Cu    Cu3+1 0.500010 0.500010 0.359340 0.999605
H1    H     H_    0.045852 0.335308 0.342651 0.116280
H2    H     H_    0.940405 0.302814 0.579498 0.109245
H3    H     H_    0.948091 0.534054 0.263773 0.112501
H4    H     H_    0.059618 0.699280 0.420566 0.133425
H5    H     H_    0.954083 0.666768 0.657416 0.110726
H6    H     H_    0.051862 0.468057 0.736313 0.115694
H7    H     H_    0.434770 0.108340 0.308319 0.167969
H8    H     H_    0.628189 0.227722 0.683353 0.138620
H9    H     H_    0.659071 0.138259 0.906284 0.113150
H10   H     H_    0.478322 0.863250 0.109519 0.317856
H11   H     H_    0.593092 0.936464 0.964802 0.116686
H12   H     H_    0.506187 0.818240 0.796408 0.170469
H13   H     H_    0.398981 0.367981 0.123815 0.118798
H14   H     H_    0.620787 0.669857 0.259557 0.174691
H15   H     H_    0.726291 0.783194 0.138183 0.118119
H16   H     H_    0.727384 0.780002 0.882184 0.126772
H17   H     H_    0.619668 0.668130 0.753057 0.181967
H18   H     H_    0.398848 0.368257 0.865453 0.127573
N1    N     N_R   0.500800 0.501210 0.147910 -0.227613
N2    N     N_R   0.500830 0.501290 0.852040 -0.248112
O1    O     O_R   0.499990 0.319640 0.618810 -0.502466
O2    O     O_2   0.327382 0.947608 0.210298 -0.290258
O3    O     O_3   0.441319 0.794515 0.143317 -0.491586
O4    O     O_R   0.500000 0.319660 0.381240 -0.515255
O5    O     O_R   0.379070 0.499980 0.618770 -0.497634
O6    O     O_R   0.379080 0.500000 0.381190 -0.457223
O7    O     O_R   0.500000 0.680340 0.618760 -0.543350
O8    O     O_R   0.500010 0.680360 0.381190 -0.450849
O9    O     O_R   0.620920 0.500000 0.618810 -0.527015
O10   O     O_R   0.620930 0.500020 0.381230 -0.527077
O11   O     O_2   0.331502 0.758512 0.339791 -0.239407
S1    S     S_3+6 0.384807 0.857907 0.272195 0.028867

loop_
_geom_bond_atom_site_label_1
_geom_bond_atom_site_label_2
_ccdc_geom_bond_type
C25   C31   S    
C21   N2    A    
C4    C26   S    
C24   C25   S    
C22   O9    A    
C26   C32   T    
C6    C7    A    
C16   O7    A    
C10   S1    S    
O3    S1    S    
C1    C8    S    
C16   O8    A    
C9    C10   A    
C24   H2    S    
Cu1   Cu2   S    
C23   H5    S    
C18   N2    A    
C12   C25   S    
Cu1   O1    S    
C4    O6    A    
C25   H1    S    
C2    C34   A    
C14   C15   A    
C17   C18   A    
C3    C5    A    
C30   H4    S    
C7    C8    A    
C29   C31   S    
Cu2   N1    S    
Cu2   O8    S    
C13   C14   A    
C27   C33   T    
C30   C31   S    
C20   H13   S    
C12   C28   S    
C20   N1    A    
Cu2   O6    S    
C5    C6    A    
C23   C29   S    
C3    H11   S    
O11   S1    D    
C5    H12   S    
C31   H3    S    
C2    C3    A    
C1    O1    A    
C22   C27   S    
C2    H9    S    
C21   H18   S    
H10   O3    S    
C7    C34   A    
Cu2   O10   S    
C9    H7    S    
C23   C28   S    
C10   C11   A    
C13   C19   A    
C19   N1    A    
C13   H14   S    
C23   C30   S    
C17   H17   S    
C34   H8    S    
C20   C21   A    
C14   H15   S    
Cu1   O5    S    
C18   C19   A    
C11   C16   S    
C1    O4    A    
O2    S1    D    
C6    C11   A    
C15   C17   A    
Cu1   O9    S    
C24   C29   S    
C22   O10   A    
Cu1   O7    S    
C28   H6    S    
C12   C30   S    
Cu1   N2    S    
C15   H16   S    
C4    O5    A    
C12   C32   S    
C24   C28   S    
C29   C33   S    
C8    C9    A    
Cu2   O4    S    
