data_mof_unit_4539.cif
_audit_creation_date              2012-12-10T20:31:06-0500
_audit_creation_method            fapswitch 2.2
_symmetry_space_group_name_H-M    P1
_symmetry_Int_Tables_number       1
_space_group_crystal_system       triclinic
_cell_length_a                    14.995537
_cell_length_b                    10.679147
_cell_length_c                    9.853222
_cell_angle_alpha                 90.280627
_cell_angle_beta                  90.247372
_cell_angle_gamma                 90.260949
_cell_volume                      1577.84032805

loop_
_atom_site_label
_atom_site_type_symbol
_atom_type_description
_atom_site_fract_x
_atom_site_fract_y
_atom_site_fract_z
_atom_type_partial_charge
C1    C     C_R   0.504735 0.259896 0.499447 0.876069
C2    C     C_R   0.184461 0.462515 0.382928 -0.267346
C3    C     C_R   0.230709 0.499438 0.499899 -0.072559
C4    C     C_R   0.326600 0.499854 0.499849 0.891617
C5    C     C_R   0.185426 0.535419 0.617393 -0.265882
C6    C     C_R   0.510893 0.064503 0.621951 0.116981
C7    C     C_R   0.521098 0.128317 0.499748 -0.185309
C8    C     C_R   0.550503 0.061743 0.383037 0.084176
C9    C     C_R   0.549215 0.931951 0.386059 -0.209899
C10   C     C_R   0.519054 0.870727 0.502523 -0.147228
C11   C     C_R   0.509081 0.936899 0.622892 0.095341
C12   C     C_R   0.907620 0.532580 0.619698 0.116526
C13   C     C_3   0.437433 0.930117 0.727614 -0.527540
C14   C     C_3   0.439718 0.072657 0.728169 -0.089117
C15   C     C_R   0.450111 0.414377 0.070446 0.200380
C16   C     C_R   0.503182 0.739898 0.500403 0.900502
C17   C     C_R   0.555112 0.577052 0.073174 -0.195119
C18   C     C_R   0.555234 0.577458 0.928697 0.140234
C19   C     C_R   0.450040 0.414520 0.927825 0.230936
C20   C     C_3   0.351227 0.400698 0.921268 -0.502092
C21   C     C_3   0.351256 0.400821 0.075060 -0.530941
C22   C     C_R   0.673367 0.499759 0.500217 0.885621
C23   C     C_R   0.952638 0.427891 0.264359 -0.221578
C24   C     C_R   0.815365 0.532231 0.618858 -0.255506
C25   C     C_R   0.769179 0.498664 0.500586 -0.070079
C26   C     C_R   0.814396 0.464064 0.382523 -0.267171
C27   C     C_R   0.906648 0.462985 0.381800 0.120336
C28   C     C_R   0.953522 0.497783 0.500719 0.060651
C29   C     C_R   0.045308 0.427292 0.264529 -0.222308
C30   C     C_R   0.092215 0.462416 0.381928 0.121204
C31   C     C_R   0.046301 0.498043 0.500573 0.060128
C32   C     C_R   0.093187 0.534140 0.618997 0.121074
C33   C     C_R   0.047234 0.568606 0.736677 -0.220819
C34   C     C_R   0.954564 0.567532 0.737129 -0.221005
H1    H     H_    0.779645 0.559413 0.709670 0.159176
H2    H     H_    0.330228 0.309837 0.119246 0.196997
H3    H     H_    0.916992 0.401014 0.172749 0.146552
H4    H     H_    0.080251 0.399943 0.173062 0.148430
H5    H     H_    0.220052 0.432694 0.293254 0.153352
H6    H     H_    0.919655 0.594296 0.828820 0.144143
H7    H     H_    0.532487 0.081129 0.885017 0.199247
H8    H     H_    0.426366 0.109119 0.930838 0.181577
H9    H     H_    0.596495 0.752930 0.887924 0.159810
H10   H     H_    0.677835 0.644361 0.887979 0.152018
H11   H     H_    0.777881 0.437080 0.291611 0.158445
H12   H     H_    0.566104 0.880022 0.294968 0.172054
H13   H     H_    0.221811 0.565530 0.707090 0.149368
H14   H     H_    0.082913 0.596140 0.828037 0.145793
H15   H     H_    0.522437 0.161163 0.212558 0.207704
H16   H     H_    0.625623 0.189684 0.282105 0.202455
H17   H     H_    0.373998 0.890739 0.686535 0.188991
H18   H     H_    0.461097 0.886256 0.823233 0.203914
H19   H     H_    0.377190 0.117653 0.692239 0.158356
H20   H     H_    0.598138 0.640805 0.128966 0.149426
H21   H     H_    0.318114 0.484249 0.877776 0.208982
H22   H     H_    0.330177 0.309706 0.876008 0.206159
H23   H     H_    0.318443 0.484904 0.118584 0.218617
N1    N     N_R   0.499390 0.499140 0.142800 -0.113465
N2    N     N_R   0.499390 0.499180 0.857150 -0.111427
N3    N     N_3   0.473707 0.126189 0.855481 -0.434764
N4    N     N_3   0.612245 0.661819 0.857421 -0.393930
N5    N     N_3   0.577853 0.120949 0.259614 -0.465428
O1    O     O_R   0.500010 0.316790 0.614690 -0.596715
O2    O     O_R   0.500000 0.316760 0.385350 -0.632567
O3    O     O_R   0.367850 0.499990 0.614680 -0.630527
O4    O     O_R   0.367840 0.499950 0.385340 -0.620442
O5    O     O_R   0.500000 0.683240 0.614650 -0.596520
O6    O     O_R   0.499990 0.683210 0.385310 -0.627450
O7    O     O_R   0.632160 0.500050 0.614660 -0.606411
O8    O     O_R   0.632150 0.500010 0.385320 -0.634424
Zn1   Zn    Zn3+2 0.500010 0.500020 0.653130 0.968186
Zn2   Zn    Zn3+2 0.499990 0.499980 0.346870 0.934037

loop_
_geom_bond_atom_site_label_1
_geom_bond_atom_site_label_2
_ccdc_geom_bond_type
C29   H4    S    
C15   C19   A    
N2    Zn1   S    
C18   N4    S    
C21   H23   S    
C29   C30   A    
C16   O6    A    
C23   C27   A    
H10   N4    S    
C6    C14   S    
C13   H18   S    
C14   N3    S    
C9    C10   A    
C12   C24   A    
C22   O7    A    
C31   C32   A    
C6    C11   A    
C2    C30   A    
C17   N1    A    
O6    Zn2   S    
C5    C32   A    
C32   C33   A    
C17   C18   A    
C9    H12   S    
C21   H2    S    
C16   O5    A    
O3    Zn1   S    
C13   C14   S    
C24   C25   A    
C4    O4    A    
C11   C13   S    
C30   C31   A    
N1    Zn2   S    
C26   C27   A    
C6    C7    A    
C10   C16   S    
C12   C28   A    
C20   H21   S    
C34   H6    S    
C23   C29   A    
C5    H13   S    
C23   H3    S    
O1    Zn1   S    
C33   C34   A    
O5    Zn1   S    
C20   H22   S    
O2    Zn2   S    
C4    O3    A    
H16   N5    S    
C15   N1    A    
O4    Zn2   S    
C24   H1    S    
C7    C8    A    
C10   C11   A    
C12   C34   A    
C3    C4    S    
C1    O2    A    
C1    O1    A    
C18   N2    A    
C15   C21   S    
C14   H19   S    
C22   O8    A    
C20   C21   S    
H9    N4    S    
H8    N3    S    
C27   C28   A    
O7    Zn1   S    
C33   H14   S    
C1    C7    S    
C2    C3    A    
H15   N5    S    
C26   H11   S    
C19   N2    A    
C25   C26   A    
C13   H17   S    
C2    H5    S    
O8    Zn2   S    
C28   C31   A    
C17   H20   S    
C19   C20   S    
H7    N3    S    
C8    N5    S    
C8    C9    A    
C3    C5    A    
C22   C25   S    
