data_mof_unit_4434.cif
_audit_creation_date              2012-12-10T20:42:43-0500
_audit_creation_method            fapswitch 2.2
_symmetry_space_group_name_H-M    P1
_symmetry_Int_Tables_number       1
_space_group_crystal_system       triclinic
_cell_length_a                    8.93531
_cell_length_b                    10.688162
_cell_length_c                    9.970316
_cell_angle_alpha                 88.960437
_cell_angle_beta                  89.986528
_cell_angle_gamma                 91.911494
_cell_volume                      951.498703288

loop_
_atom_site_label
_atom_site_type_symbol
_atom_type_description
_atom_site_fract_x
_atom_site_fract_y
_atom_site_fract_z
_atom_type_partial_charge
C1    C     C_R   0.505995 0.259922 0.500592 0.854831
C2    C     C_R   0.368454 0.490748 0.930779 0.118180
C3    C     C_3   0.235581 0.399111 0.930679 0.314556
C4    C     C_R   0.219008 0.499819 0.499879 0.926970
C5    C     C_3   0.241016 0.397325 0.085962 -0.062423
C6    C     C_R   0.508963 0.739705 0.498819 0.869543
C7    C     C_R   0.781022 0.500365 0.499952 0.931130
C8    C     C_1   0.065423 0.500145 0.499433 -0.230425
C9    C     C_1   0.934596 0.500313 0.499655 -0.211658
C10   C     C_R   0.565413 0.061989 0.616365 0.144808
C11   C     C_R   0.534979 0.128749 0.498713 -0.101197
C12   C     C_R   0.544599 0.938130 0.373808 -0.228889
C13   C     C_R   0.542136 0.067466 0.375256 -0.223593
C14   C     C_3   0.266109 0.276172 0.862266 -0.808258
C15   C     C_3   0.277188 0.272526 0.154990 -0.819363
C16   C     C_3   0.754297 0.605961 0.861846 -0.854607
C17   C     C_3   0.090588 0.456652 0.881481 -0.918434
C18   C     C_R   0.541644 0.871190 0.495941 -0.102065
C19   C     C_R   0.570746 0.934010 0.614752 0.124658
C20   C     C_3   0.498535 0.917904 0.749107 -0.473872
C21   C     C_3   0.487920 0.058501 0.748834 -0.514575
C22   C     C_R   0.369926 0.488615 0.071334 0.097643
C23   C     C_R   0.624436 0.534628 0.072467 -0.140526
C24   C     C_R   0.623418 0.540617 0.929167 0.211293
H1    H     H_    0.143914 0.441481 0.133993 0.169019
H2    H     H_    0.194681 0.198463 0.124830 0.226297
H3    H     H_    0.535416 0.891528 0.278427 0.174371
H4    H     H_    0.387226 0.868221 0.745845 0.216035
H5    H     H_    0.577009 0.881902 0.826059 0.203138
H6    H     H_    0.370083 0.086218 0.738997 0.212289
H7    H     H_    0.715797 0.672707 0.783952 0.266337
H8    H     H_    0.822823 0.661281 0.934067 0.195101
H9    H     H_    0.827076 0.536145 0.818966 0.266437
H10   H     H_    0.081980 0.455963 0.771215 0.275124
H11   H     H_    0.993714 0.400277 0.922426 0.237816
H12   H     H_    0.556424 0.103784 0.828566 0.207608
H13   H     H_    0.082780 0.554648 0.915698 0.220199
H14   H     H_    0.724589 0.561765 0.127148 0.158480
H15   H     H_    0.533681 0.117376 0.280386 0.173188
H16   H     H_    0.376924 0.243297 0.894108 0.222521
H17   H     H_    0.178105 0.204160 0.888713 0.222581
H18   H     H_    0.264969 0.289679 0.751925 0.258960
H19   H     H_    0.391860 0.243420 0.130183 0.238387
H20   H     H_    0.265596 0.281343 0.264839 0.263672
N1    N     N_R   0.499010 0.499140 0.142800 -0.113370
N2    N     N_R   0.499010 0.499180 0.857150 -0.111454
O1    O     O_R   0.500020 0.316790 0.614690 -0.616275
O2    O     O_R   0.500000 0.316760 0.385350 -0.623640
O3    O     O_R   0.285350 0.500020 0.614650 -0.617085
O4    O     O_R   0.285340 0.499980 0.385310 -0.613444
O5    O     O_R   0.500000 0.683240 0.614650 -0.623732
O6    O     O_R   0.499980 0.683210 0.385310 -0.619461
O7    O     O_R   0.714660 0.500020 0.614690 -0.620944
O8    O     O_R   0.714650 0.499980 0.385350 -0.620997
Zn1   Zn    Zn3+2 0.500010 0.500020 0.653130 0.933105
Zn2   Zn    Zn3+2 0.499990 0.499980 0.346870 0.936009

loop_
_geom_bond_atom_site_label_1
_geom_bond_atom_site_label_2
_ccdc_geom_bond_type
N2    Zn1   S    
C2    C22   A    
C23   C24   A    
C1    O2    A    
C23   N1    A    
C16   H9    S    
C16   H8    S    
C23   H14   S    
C20   H4    S    
C21   H6    S    
C10   C19   A    
C19   C20   S    
C1    C11   S    
C14   H18   S    
C4    O3    A    
C4    C8    S    
C24   N2    A    
C2    C3    S    
C15   H19   S    
C16   C24   S    
C21   H12   S    
C17   H13   S    
C2    N2    A    
C16   H7    S    
C12   C13   A    
C11   C13   A    
C3    C14   S    
C14   H17   S    
C5    H1    S    
C15   H20   S    
C3    C17   S    
O5    Zn1   S    
C20   H5    S    
O7    Zn1   S    
C10   C21   S    
C6    C18   S    
O8    Zn2   S    
C5    C15   S    
C13   H15   S    
C10   C11   A    
C7    O7    A    
C12   H3    S    
C14   H16   S    
C7    C9    S    
C22   N1    A    
C20   C21   S    
O1    Zn1   S    
C18   C19   A    
C17   H10   S    
C6    O5    A    
C12   C18   A    
O2    Zn2   S    
C1    O1    A    
C15   H2    S    
C17   H11   S    
C7    O8    A    
C6    O6    A    
O3    Zn1   S    
O4    Zn2   S    
C5    C22   S    
O6    Zn2   S    
N1    Zn2   S    
C4    O4    A    
C8    C9    T    
C3    C5    S    
