data_mof_unit_1349.cif
_audit_creation_date              2012-12-11T17:44:03-0500
_audit_creation_method            fapswitch 2.2
_symmetry_space_group_name_H-M    P1
_symmetry_Int_Tables_number       1
_space_group_crystal_system       triclinic
_cell_length_a                    20.301302
_cell_length_b                    22.644328
_cell_length_c                    6.939633
_cell_angle_alpha                 89.999597
_cell_angle_beta                  86.486856
_cell_angle_gamma                 90.0
_cell_volume                      3184.21896048

loop_
_atom_site_label
_atom_site_type_symbol
_atom_type_description
_atom_site_fract_x
_atom_site_fract_y
_atom_site_fract_z
_atom_type_partial_charge
O1    O     O_R   0.751270 0.447300 0.600030 -0.544385
O2    O     O_R   0.248730 0.947300 0.399970 -0.544370
O3    O     O_R   0.613530 0.440160 0.952150 -0.541812
O4    O     O_R   0.386470 0.940160 0.047850 -0.541787
O5    O     O_R   0.613050 0.552700 0.122560 -0.540085
O6    O     O_R   0.386950 0.052700 0.877440 -0.540072
C1    C     C_R   0.591380 0.425512 0.787461 0.685414
C2    C     C_R   0.408619 0.925511 0.212541 0.685413
O7    O     O_R   0.750780 0.440350 0.929820 -0.540219
O8    O     O_R   0.249220 0.940350 0.070180 -0.540244
O9    O     O_R   0.751280 0.552900 0.100070 -0.509754
O10   O     O_R   0.248720 0.052900 0.899930 -0.509738
C3    C     C_R   0.774220 0.426521 0.756817 0.753111
C4    C     C_R   0.225781 0.926520 0.243183 0.753109
O11   O     O_R   0.613040 0.447100 0.622520 -0.526463
O12   O     O_R   0.386960 0.947100 0.377480 -0.526483
O13   O     O_3   0.682160 0.536920 0.777780 -0.359054
O14   O     O_3   0.317840 0.036920 0.222220 -0.359032
V1    V     V_3+5 0.682160 0.493150 0.052630 1.500897
V2    V     V_3+5 0.317840 0.993150 0.947370 1.500943
O15   O     O_R   0.750790 0.559840 0.429870 -0.536596
O16   O     O_R   0.249210 0.059840 0.570130 -0.536582
C5    C     C_R   0.774869 0.573184 0.256567 0.745974
C6    C     C_R   0.225135 0.073190 0.743434 0.745954
O17   O     O_R   0.613540 0.559650 0.452200 -0.534994
O18   O     O_R   0.386460 0.059650 0.547800 -0.535011
C7    C     C_R   0.591606 0.574455 0.287331 0.757851
C8    C     C_R   0.408395 0.074453 0.712667 0.757856
V3    V     V_3+5 0.682160 0.506850 0.552630 1.508841
V4    V     V_3+5 0.317840 0.006850 0.447370 1.508858
O19   O     O_3   0.682150 0.463080 0.277610 -0.377101
O20   O     O_3   0.317850 0.963080 0.722390 -0.377101
C9    C     C_R   0.582854 0.862827 0.164676 0.414065
C10   C     C_R   0.417148 0.362826 0.835205 0.414023
H1    H     H_    0.673092 0.774516 0.167681 0.189459
H2    H     H_    0.326911 0.274522 0.832096 0.189505
C11   C     C_R   0.465090 0.883986 0.209421 -0.166123
C12   C     C_R   0.534914 0.383981 0.790579 -0.166096
C13   C     C_R   0.471748 0.596122 0.323416 0.365088
C14   C     C_R   0.528253 0.096117 0.676643 0.365074
C15   C     C_R   0.418683 0.635076 0.329309 -0.096040
C16   C     C_R   0.581318 0.135069 0.670800 -0.096086
C17   C     C_R   0.428517 0.695444 0.301690 -0.237070
C18   C     C_R   0.571484 0.195438 0.698400 -0.237090
C19   C     C_R   0.492586 0.719213 0.266143 0.110714
C20   C     C_R   0.507417 0.219209 0.733858 0.110730
C21   C     C_R   0.547067 0.679012 0.259539 0.021010
C22   C     C_R   0.452936 0.179010 0.740417 0.020992
C23   C     C_R   0.504238 0.781374 0.236396 0.051680
C24   C     C_R   0.495765 0.281371 0.763571 0.051682
C25   C     C_R   0.570038 0.801872 0.198479 0.010775
C26   C     C_R   0.429964 0.301872 0.801413 0.010744
C27   C     C_R   0.622295 0.760959 0.194031 -0.110553
C28   C     C_R   0.377708 0.260962 0.805808 -0.110503
C29   C     C_R   0.611121 0.701130 0.224199 -0.183496
C30   C     C_R   0.388882 0.201131 0.775673 -0.183480
C31   C     C_R   0.452671 0.823750 0.241505 -0.202371
C32   C     C_R   0.547334 0.323746 0.758495 -0.202393
C33   C     C_R   0.530361 0.904242 0.172159 -0.121659
C34   C     C_R   0.469642 0.404236 0.827803 -0.121612
C35   C     C_R   0.536398 0.617345 0.289010 -0.189991
C36   C     C_R   0.463604 0.117343 0.710987 -0.189958
H3    H     H_    0.401716 0.811524 0.269317 0.107976
H4    H     H_    0.598291 0.311519 0.730704 0.107957
H5    H     H_    0.384586 0.722137 0.308665 0.133552
H6    H     H_    0.615415 0.222130 0.691479 0.133524
H7    H     H_    0.368941 0.618416 0.355737 0.183945
H8    H     H_    0.631058 0.118408 0.644431 0.183903
H9    H     H_    0.653640 0.672164 0.218906 0.102346
H10   H     H_    0.346363 0.172167 0.780925 0.102357
C37   C     C_R   0.169532 0.884305 0.264098 -0.025151
C38   C     C_R   0.830485 0.384324 0.735902 -0.025082
C39   C     C_R   0.152256 0.849117 0.108704 -0.226504
C40   C     C_R   0.847761 0.349128 0.891274 -0.226433
C41   C     C_R   0.099138 0.809784 0.129380 -0.163660
C42   C     C_R   0.900911 0.309829 0.870616 -0.163680
C43   C     C_R   0.060693 0.805129 0.305968 0.436890
C44   C     C_R   0.939399 0.305228 0.694082 0.436996
C45   C     C_R   0.077775 0.840890 0.463153 -0.058128
C46   C     C_R   0.922330 0.341015 0.536935 -0.058511
C47   C     C_R   0.131981 0.879574 0.440531 -0.255990
C48   C     C_R   0.868068 0.379640 0.559513 -0.255890
C49   C     C_R   0.897280 0.692988 0.378295 -0.103770
C50   C     C_R   0.102744 0.193008 0.621674 -0.103652
C51   C     C_R   0.844384 0.653091 0.391419 -0.224752
C52   C     C_R   0.155624 0.153093 0.608546 -0.224728
C53   C     C_R   0.938839 0.696545 0.208075 0.365393
C54   C     C_R   0.061216 0.196604 0.791945 0.365368
N1    N     N_2   0.005298 0.765873 0.329822 -0.227218
N2    N     N_2   0.994787 0.265964 0.670206 -0.227209
N3    N     N_2   0.993887 0.735885 0.184427 -0.268481
N4    N     N_2   0.006179 0.235957 0.815602 -0.268847
C55   C     C_R   0.831401 0.615563 0.236179 -0.135379
C56   C     C_R   0.168617 0.115584 0.763825 -0.135414
H11   H     H_    0.813291 0.651867 0.523860 0.188925
H12   H     H_    0.186695 0.151841 0.476067 0.189064
H13   H     H_    0.905317 0.720891 0.501311 0.193683
H14   H     H_    0.094695 0.220891 0.498623 0.193756
H15   H     H_    0.144434 0.906813 0.561526 0.133212
H16   H     H_    0.855621 0.406896 0.438553 0.133261
C57   C     C_R   0.873707 0.619065 0.065670 0.346366
C58   C     C_R   0.126341 0.119128 0.934389 0.346459
C59   C     C_R   0.926062 0.659485 0.053664 -0.180486
C60   C     C_R   0.074004 0.159568 0.946401 -0.180681
H17   H     H_    0.088256 0.783129 0.005898 0.162592
H18   H     H_    0.911784 0.283159 0.994076 0.161971
H19   H     H_    0.957956 0.661578 0.922749 0.180506
H20   H     H_    0.042135 0.161694 0.077361 0.180217
H21   H     H_    0.180150 0.851604 0.970808 0.132136
H22   H     H_    0.819839 0.351578 0.029135 0.132056
C61   C     C_2   0.542142 0.968766 0.140481 0.642789
H23   H     H_    0.503106 0.996808 0.092253 0.005902
O21   O     O_2   0.594412 0.992095 0.173771 -0.441140
C62   C     C_2   0.457855 0.468753 0.859555 0.642562
H24   H     H_    0.496844 0.496769 0.908265 0.006088
O22   O     O_2   0.405641 0.492103 0.825774 -0.441086
C63   C     C_2   0.040329 0.839961 0.654038 0.414992
H25   H     H_    0.053743 0.870290 0.766304 0.057782
O23   O     O_2   0.994678 0.805816 0.689809 -0.503849
C64   C     C_2   0.959845 0.340186 0.346146 0.415809
H26   H     H_    0.946094 0.370228 0.233452 0.057458
O24   O     O_2   0.005995 0.306506 0.311019 -0.503399
Cl1   Cl    Cl    0.866424 0.572269 0.864798 -0.653607
Cl2   Cl    Cl    0.133633 0.072364 0.135351 -0.653842
Cl3   Cl    Cl    0.664633 0.886662 0.100643 -0.506855
Cl4   Cl    Cl    0.335369 0.386674 0.899147 -0.506621
Cl5   Cl    Cl    0.455378 0.520300 0.358785 -0.610982
Cl6   Cl    Cl    0.544621 0.020295 0.641274 -0.611118

loop_
_geom_bond_atom_site_label_1
_geom_bond_atom_site_label_2
_ccdc_geom_bond_type
C16   H8    S    
C46   C64   S    
C53   N3    S    
H1    C27   S    
O13   V3    S    
C4    C37   S    
C34   C62   S    
C61   H23   S    
O4    C2    A    
V1    O19   S    
C62   H24   S    
C23   C31   A    
C13   C15   A    
C44   N2    S    
O9    V1    S    
C57   Cl1   S    
C40   C42   A    
C42   C44   A    
O3    C1    A    
C63   O23   D    
C44   C46   A    
O12   V4    S    
C14   Cl6   S    
C14   C36   A    
C2    O12   A    
C19   C21   A    
O7    C3    A    
C52   C56   A    
O5    C7    A    
C22   C36   A    
O7    V1    S    
O6    C8    A    
C54   N4    S    
C18   C20   A    
C23   C25   A    
C24   C26   A    
O3    V1    S    
O14   V4    S    
N1    N3    D    
C7    C35   S    
O14   V2    S    
C10   Cl4   S    
C27   C29   A    
C9    C33   A    
C12   C32   A    
C10   C34   A    
C15   C17   A    
C16   C18   A    
C58   Cl2   S    
C9    Cl3   S    
O18   C8    A    
C54   C60   A    
C26   C28   A    
O11   V3    S    
C20   C22   A    
C43   C45   A    
O17   V3    S    
C13   C35   A    
C28   C30   A    
C13   Cl5   S    
C24   C32   A    
C15   H7    S    
C38   C40   A    
O8    C4    A    
C55   C57   A    
C45   C47   A    
C1    O11   A    
C47   H15   S    
C32   H4    S    
O15   V3    S    
C9    C25   A    
C5    C55   S    
C25   C27   A    
C21   C35   A    
C6    C56   S    
C17   C19   A    
N2    N4    D    
C51   C55   A    
C19   C23   A    
C17   H5    S    
C43   N1    S    
O10   V2    S    
O1    V3    S    
C61   O21   D    
C29   H9    S    
C58   C60   A    
C41   C43   A    
C18   H6    S    
C11   C33   A    
C52   H12   S    
C12   C34   A    
C46   C48   A    
C49   C51   A    
C41   H17   S    
C30   H10   S    
O15   C5    A    
C53   C59   A    
O1    C3    A    
C2    C11   S    
C39   C41   A    
C60   H20   S    
C64   H26   S    
C64   O24   D    
C21   C29   A    
V2    O20   S    
C22   C30   A    
O10   C6    A    
C42   H18   S    
O16   V4    S    
C48   H16   S    
C50   C54   A    
C31   H3    S    
C50   C52   A    
C14   C16   A    
C49   C53   A    
C40   H22   S    
C62   O22   D    
C39   H21   S    
O5    V1    S    
C3    C38   S    
O17   C7    A    
O6    V2    S    
C20   C24   A    
C10   C26   A    
O2    V4    S    
C50   H14   S    
V3    O19   S    
C63   H25   S    
V4    O20   S    
C51   H11   S    
O8    V2    S    
C45   C63   S    
O9    C5    A    
O13   V1    S    
C1    C12   S    
O16   C6    A    
O2    C4    A    
C38   C48   A    
H2    C28   S    
O4    V2    S    
C56   C58   A    
C57   C59   A    
C49   H13   S    
C37   C39   A    
C33   C61   S    
C59   H19   S    
C11   C31   A    
C37   C47   A    
O18   V4    S    
C8    C36   S    
