data_mof_unit_418.cif
_audit_creation_date              2012-12-11T14:29:39-0500
_audit_creation_method            fapswitch 2.2
_symmetry_space_group_name_H-M    P1
_symmetry_Int_Tables_number       1
_space_group_crystal_system       triclinic
_cell_length_a                    6.937346
_cell_length_b                    14.785086
_cell_length_c                    16.219111
_cell_angle_alpha                 90.496148
_cell_angle_beta                  89.633368
_cell_angle_gamma                 89.844662
_cell_volume                      1663.47937194

loop_
_atom_site_label
_atom_site_type_symbol
_atom_type_description
_atom_site_fract_x
_atom_site_fract_y
_atom_site_fract_z
_atom_type_partial_charge
O1    O     O_R   0.494400 0.416610 0.413880 -0.553029
O2    O     O_R   0.823920 0.406790 0.585520 -0.509995
O3    O     O_R   0.994250 0.583390 0.586120 -0.535249
C1    C     C_R   0.654222 0.382907 0.611538 0.769906
O4    O     O_R   0.824110 0.405730 0.414490 -0.539841
O5    O     O_R   0.994440 0.582310 0.413870 -0.543117
C2    C     C_R   0.655932 0.387275 0.383658 0.649952
O6    O     O_R   0.494210 0.417690 0.586130 -0.540557
O7    O     O_3   0.660810 0.557940 0.500000 -0.375819
V1    V     V_3+5 0.935650 0.489250 0.500000 1.463694
O8    O     O_R   0.324160 0.593210 0.414480 -0.550013
C3    C     C_R   0.155631 0.614900 0.386259 0.719252
O9    O     O_R   0.323970 0.594270 0.585510 -0.534136
C4    C     C_R   0.154174 0.615228 0.614584 0.788447
V2    V     V_3+5 0.435660 0.510750 0.500000 1.436080
O10   O     O_3   0.160630 0.442060 0.500000 -0.364081
H1    H     H_    0.011736 0.909657 0.499592 0.120462
C5    C     C_R   0.175546 0.562839 0.791641 0.177181
C6    C     C_R   0.186135 0.540219 0.875168 -0.103301
C7    C     C_R   0.176061 0.606366 0.935937 -0.142094
C8    C     C_R   0.155487 0.696510 0.914659 -0.141388
C9    C     C_R   0.145487 0.723235 0.831172 0.042761
C10   C     C_R   0.155736 0.655481 0.767625 0.066885
C11   C     C_R   0.128282 0.816397 0.811325 -0.177728
C12   C     C_R   0.125274 0.842950 0.726817 -0.012940
C13   C     C_R   0.110885 0.774798 0.664345 0.053837
C14   C     C_R   0.140170 0.682318 0.683498 -0.174158
C15   C     C_R   0.133477 0.935362 0.701196 -0.013760
C16   C     C_R   0.082104 0.958129 0.620499 -0.110279
C17   C     C_R   0.046248 0.891256 0.562270 -0.160705
C18   C     C_R   0.068679 0.800875 0.582638 -0.136939
H2    H     H_    0.200939 0.470108 0.893024 0.145946
H3    H     H_    0.183872 0.587641 0.000224 0.142736
H4    H     H_    0.148679 0.745009 0.964902 0.110162
H5    H     H_    0.082640 0.027969 0.600747 0.136012
H6    H     H_    0.049618 0.751747 0.533583 0.096947
C19   C     C_2   0.985793 0.709321 0.282890 -0.125562
C20   C     C_2   0.150706 0.682531 0.319340 -0.304977
H7    H     H_    0.849890 0.681100 0.303902 0.138253
H8    H     H_    0.288275 0.710084 0.300384 0.128501
C21   C     C_2   0.973112 0.776715 0.214921 -0.134254
C22   C     C_2   0.126096 0.814509 0.177062 -0.311643
H9    H     H_    0.829027 0.795232 0.195285 0.135573
H10   H     H_    0.271267 0.796585 0.194925 0.131391
C23   C     C_2   0.749113 0.189552 0.765922 -0.188671
C24   C     C_2   0.621529 0.191936 0.829525 -0.139200
H11   H     H_    0.837162 0.129335 0.758021 0.166504
C25   C     C_2   0.783904 0.262763 0.705063 0.241408
C26   C     C_2   0.635949 0.310364 0.673230 -0.237328
H12   H     H_    0.489740 0.293301 0.691660 0.117479
C27   C     C_2   0.774954 0.208732 0.214217 -0.077877
C28   C     C_2   0.611265 0.174110 0.182972 -0.244363
H13   H     H_    0.913335 0.187037 0.189270 0.129177
H14   H     H_    0.473606 0.190654 0.211606 0.129639
C29   C     C_2   0.777696 0.269666 0.287795 -0.160711
C30   C     C_2   0.645267 0.334722 0.305593 -0.150180
H15   H     H_    0.896089 0.259227 0.330221 0.115273
O11   O     O_R   0.770210 0.079270 0.910680 -0.529001
O12   O     O_R   0.440150 0.091160 0.082270 -0.545227
O13   O     O_R   0.269970 0.914530 0.082860 -0.545359
C31   C     C_R   0.608028 0.111373 0.111803 0.732645
O14   O     O_R   0.440480 0.090100 0.911240 -0.541744
O15   O     O_R   0.270310 0.913460 0.910610 -0.547723
C32   C     C_R   0.609739 0.113769 0.885213 0.680419
O16   O     O_R   0.769870 0.080340 0.082930 -0.542076
O17   O     O_3   0.603660 0.938980 0.996790 -0.373910
V3    V     V_3+5 0.328750 0.007610 0.996740 1.436131
O18   O     O_R   0.940600 0.902510 0.911180 -0.534084
C33   C     C_R   0.110434 0.884594 0.879656 0.694213
O19   O     O_R   0.940270 0.903570 0.082200 -0.542951
C34   C     C_R   0.109378 0.881892 0.110374 0.727853
V4    V     V_3+5 0.828770 0.986010 0.996670 1.444963
O20   O     O_3   0.103730 0.054750 0.996710 -0.366134
C35   C     C_2   0.507237 0.273207 0.853952 0.362829
H16   H     H_    0.370885 0.264988 0.886163 0.068029
O21   O     O_2   0.568998 0.349525 0.843462 -0.535720
N1    N     N_3   0.976693 0.275128 0.674765 -0.635699
H17   H     H_    0.066617 0.284755 0.725546 0.241109
H18   H     H_    0.019774 0.215164 0.645346 0.238740
N2    N     N_3   0.180519 0.490180 0.732710 -0.660858
H19   H     H_    0.307063 0.453003 0.741429 0.247147
H20   H     H_    0.063302 0.447929 0.744678 0.243543
C36   C     C_2   0.496014 0.364549 0.245938 0.376518
H21   H     H_    0.360498 0.392492 0.268386 0.044173
O22   O     O_2   0.527171 0.363664 0.171743 -0.513749
C37   C     C_2   0.233705 0.006083 0.749432 0.303909
H22   H     H_    0.357333 0.987916 0.785965 0.077582
O23   O     O_2   0.188639 0.085657 0.744365 -0.565129

loop_
_geom_bond_atom_site_label_1
_geom_bond_atom_site_label_2
_ccdc_geom_bond_type
C29   C30   D    
C21   C22   D    
C6    C7    A    
C1    O6    A    
N1    H17   S    
C12   C15   A    
C13   C14   A    
C16   C17   A    
C35   O21   D    
O14   V3    S    
C15   C16   A    
C28   C31   S    
O5    C3    A    
C17   C18   A    
C37   O23   D    
V2    O10   S    
C5    C6    A    
O14   C32   A    
O12   V3    S    
O8    V2    S    
O17   V4    S    
O15   C33   A    
O13   V3    S    
O18   C33   A    
O19   C34   A    
V3    O20   S    
C10   C14   A    
C4    C14   S    
O7    V1    S    
C23   H11   S    
O17   V3    S    
C13   C18   A    
C8    C9    A    
C19   C21   S    
H1    C17   S    
C21   H9    S    
C22   H10   S    
C2    C30   S    
C6    H2    S    
C28   H14   S    
C11   C33   S    
N1    H18   S    
O11   C32   A    
O15   V3    S    
O12   C31   A    
C35   H16   S    
C5    C10   A    
C11   C12   A    
N2    H20   S    
O4    C2    A    
C37   H22   S    
N2    H19   S    
C8    H4    S    
O13   C34   A    
C12   C13   A    
C23   C24   D    
C27   C28   D    
C24   C32   S    
C27   H13   S    
C25   N1    S    
O2    C1    A    
C19   C20   D    
C36   H21   S    
O18   V4    S    
O3    C4    A    
O1    V2    S    
C7    H3    S    
C25   C26   D    
C36   O22   D    
O6    V2    S    
O9    V2    S    
C15   C37   S    
C9    C11   A    
O2    V1    S    
C24   C35   S    
C30   C36   S    
C23   C25   S    
O1    C2    A    
C9    C10   A    
V4    O20   S    
O5    V1    S    
O8    C3    A    
O16   V4    S    
C16   H5    S    
C1    C26   S    
C29   H15   S    
O7    V2    S    
O4    V1    S    
C19   H7    S    
O3    V1    S    
V1    O10   S    
C20   H8    S    
O11   V4    S    
C22   C34   S    
C27   C29   S    
C3    C20   S    
C31   O16   A    
C7    C8    A    
C5    N2    S    
C26   H12   S    
C18   H6    S    
O19   V4    S    
O9    C4    A    
