data_mof_unit_486.cif
_audit_creation_date              2012-12-10T16:51:33-0500
_audit_creation_method            fapswitch 2.2
_symmetry_space_group_name_H-M    P1
_symmetry_Int_Tables_number       1
_space_group_crystal_system       triclinic
_cell_length_a                    7.836724
_cell_length_b                    8.567807
_cell_length_c                    12.107655
_cell_angle_alpha                 92.457485
_cell_angle_beta                  101.210321
_cell_angle_gamma                 94.109838
_cell_volume                      794.047196375

loop_
_atom_site_label
_atom_site_type_symbol
_atom_type_description
_atom_site_fract_x
_atom_site_fract_y
_atom_site_fract_z
_atom_type_partial_charge
C1    C     C_R   0.044619 0.794696 0.497426 0.947846
C2    C     C_R   0.159041 0.503226 0.832076 -0.066783
C3    C     C_2   0.067947 0.958434 0.496188 -0.372462
C4    C     C_R   0.105976 0.503570 0.710284 0.842546
C5    C     C_2   0.932567 0.041694 0.504890 -0.354579
C6    C     C_R   0.955557 0.205341 0.502947 0.952560
C7    C     C_R   0.892342 0.488115 0.289686 0.850977
C8    C     C_R   0.810648 0.286848 0.002916 -0.128709
C9    C     C_R   0.829604 0.456058 0.170033 -0.065594
C10   C     C_R   0.073219 0.593707 0.900127 -0.169475
C11   C     C_R   0.144254 0.622960 0.013899 -0.138612
C12   C     C_R   0.395772 0.481819 0.990021 0.083188
C13   C     C_R   0.305778 0.570519 0.058635 -0.149611
C14   C     C_R   0.310256 0.432109 0.879874 -0.017303
C15   C     C_R   0.568205 0.441638 0.026761 0.009898
C16   C     C_R   0.641548 0.331149 0.962459 0.015896
C17   C     C_R   0.543412 0.265388 0.860330 0.586790
C18   C     C_R   0.379726 0.315625 0.819378 -0.288038
C19   C     C_R   0.671003 0.511604 0.125162 -0.184634
C20   C     C_R   0.902898 0.346274 0.108257 -0.203113
F1    F     F_    0.478083 0.347891 0.401246 -0.541493
F2    F     F_    0.606978 0.155355 0.798697 -0.676290
H1    H     H_    0.026781 0.301898 0.143234 0.175490
H2    H     H_    0.868413 0.201885 0.955715 0.189445
H3    H     H_    0.626906 0.605505 0.172033 0.142523
H4    H     H_    0.954427 0.646105 0.864650 0.162694
H5    H     H_    0.355025 0.597662 0.147468 0.149763
H6    H     H_    0.077116 0.691336 0.066745 0.148397
H7    H     H_    0.307055 0.261207 0.740247 0.194722
H8    H     H_    0.195543 0.009861 0.487963 0.206827
H9    H     H_    0.805018 0.990293 0.513224 0.200274
H10   H     H_    0.530322 0.625906 0.583085 0.142759
N1    N     N_2   0.434800 0.456690 0.470850 0.204591
N2    N     N_2   0.565200 0.543310 0.529150 -0.082592
O1    O     O_R   0.893060 0.738880 0.507150 -0.623091
O2    O     O_R   0.172250 0.711130 0.488470 -0.637119
O3    O     O_R   0.944700 0.520730 0.667600 -0.617264
O4    O     O_R   0.223890 0.492980 0.648920 -0.636006
O5    O     O_R   0.827750 0.288870 0.511530 -0.548129
O6    O     O_R   0.106940 0.261120 0.492850 -0.602032
O7    O     O_R   0.776110 0.507020 0.351080 -0.561257
O8    O     O_R   0.055300 0.479270 0.332400 -0.612367
Zn1   Zn    Zn3+2 0.813580 0.518530 0.512470 1.042569
Zn2   Zn    Zn3+2 0.186420 0.481470 0.487530 1.026796

loop_
_geom_bond_atom_site_label_1
_geom_bond_atom_site_label_2
_ccdc_geom_bond_type
O3    Zn1   S    
C3    H8    S    
C2    C4    S    
C20   H1    S    
O4    Zn2   S    
O1    Zn1   S    
C14   C18   A    
C9    C20   A    
C17   F2    S    
C12   C15   A    
O6    Zn2   S    
C10   H4    S    
N1    N2    D    
C8    C16   A    
C18   H7    S    
C12   C13   A    
C15   C19   A    
O7    Zn1   S    
C8    C20   A    
O8    Zn2   S    
C11   H6    S    
C2    C14   A    
C8    H2    S    
C12   C14   A    
C17   C18   A    
C7    O7    A    
C5    C6    S    
C19   H3    S    
C6    O6    A    
O2    Zn2   S    
F1    N1    S    
C10   C11   A    
C15   C16   A    
C2    C10   A    
C3    C5    D    
C11   C13   A    
C4    O3    A    
C1    O1    A    
C7    O8    A    
C7    C9    S    
C6    O5    A    
C13   H5    S    
O5    Zn1   S    
C1    C3    S    
N1    Zn2   S    
C9    C19   A    
N2    Zn1   S    
C1    O2    A    
C4    O4    A    
C16   C17   A    
C5    H9    S    
H10   N2    S    
