data_mof_unit_4888.cif
_audit_creation_date              2013-03-05T16:35:44-0500
_audit_creation_method            fapswitch 2.2
_symmetry_space_group_name_H-M    P1
_symmetry_Int_Tables_number       1
_space_group_crystal_system       triclinic
_cell_length_a                    19.455524
_cell_length_b                    9.071056
_cell_length_c                    7.887972
_cell_angle_alpha                 90.078578
_cell_angle_beta                  89.992466
_cell_angle_gamma                 90.000916
_cell_volume                      1392.08491829

loop_
_atom_site_label
_atom_site_type_symbol
_atom_site_description
_atom_site_fract_x
_atom_site_fract_y
_atom_site_fract_z
_atom_type_partial_charge
O1    O     O_R   0.500000 0.288390 0.642760 -0.563444
O2    O     O_R   0.500000 0.711610 0.357240 -0.563434
O3    O     O_R   0.500000 0.711610 0.642760 -0.577585
O4    O     O_R   0.500000 0.288390 0.357240 -0.577532
C1    C     C_R   0.500024 0.220463 0.499929 0.843956
C2    C     C_R   0.500024 0.779537 0.500071 0.843993
O5    O     O_R   0.400140 0.500000 0.642830 -0.523470
O6    O     O_R   0.599860 0.500000 0.357170 -0.544390
O7    O     O_R   0.599860 0.500000 0.642830 -0.544337
O8    O     O_R   0.400140 0.500000 0.357170 -0.523636
C3    C     C_R   0.366526 0.499965 0.499991 0.842698
C4    C     C_R   0.632424 0.500019 0.499987 0.898626
Cu1   Cu    Cu3+1 0.500000 0.500000 0.669080 1.151583
Cu2   Cu    Cu3+1 0.500000 0.500000 0.330920 1.151554
C5    C     C_1   0.500073 0.065510 0.499902 -0.086803
C6    C     C_1   0.500073 0.934490 0.500097 -0.086791
N1    N     N_1   0.500000 0.500000 0.076820 0.021844
N2    N     N_1   0.500000 0.500000 0.923180 0.021810
C7    C     C_R   0.251275 0.545092 0.642844 0.266941
C8    C     C_R   0.744139 0.585514 0.380000 0.289947
C9    C     C_R   0.744182 0.414614 0.619755 0.289868
C10   C     C_R   0.251390 0.454489 0.356814 0.266673
C11   C     C_R   0.179102 0.555848 0.640847 0.022875
C12   C     C_R   0.816556 0.583803 0.376619 0.026469
C13   C     C_R   0.816601 0.416267 0.622858 0.026442
C14   C     C_R   0.179221 0.443566 0.358567 0.022929
C15   C     C_R   0.142694 0.499725 0.499612 -0.068615
C16   C     C_R   0.852738 0.500004 0.499655 -0.080938
C17   C     C_R   0.288664 0.499860 0.499891 -0.276280
C18   C     C_R   0.708150 0.500060 0.499929 -0.290737
N3    N     N_R   0.031832 0.371720 0.483624 -0.243490
N4    N     N_R   0.963577 0.627958 0.516457 -0.242206
N5    N     N_R   0.963520 0.371872 0.482457 -0.242204
N6    N     N_R   0.031889 0.627977 0.515221 -0.243327
C19   C     C_R   0.928279 0.499947 0.499493 0.425690
C20   C     C_R   0.067147 0.499812 0.499414 0.428399
N7    N     N_R   0.286260 0.558674 0.798244 0.140127
O9    O     O_R   0.310617 0.436940 0.860768 -0.275441
O10   O     O_R   0.313954 0.684700 0.838002 -0.322177
N8    N     N_R   0.706903 0.678454 0.264888 0.130314
O11   O     O_R   0.700669 0.640928 0.106417 -0.312354
O12   O     O_R   0.671627 0.789402 0.323044 -0.360948
N9    N     N_R   0.706988 0.321736 0.735039 0.130327
O13   O     O_R   0.700823 0.359335 0.893507 -0.312435
O14   O     O_R   0.671691 0.210751 0.677067 -0.360869
N10   N     N_R   0.286486 0.440830 0.201537 0.140357
O15   O     O_R   0.310849 0.562527 0.138913 -0.275050
O16   O     O_R   0.314196 0.314787 0.161906 -0.322149
C21   C     C_3   0.142294 0.623078 0.792945 -0.366932
C22   C     C_3   0.139455 0.790838 0.778552 -0.731738
H1    H     H_    0.192204 0.837660 0.779829 0.275134
H2    H     H_    0.113480 0.824784 0.659594 0.259856
H3    H     H_    0.110503 0.836947 0.887794 0.231784
H4    H     H_    0.089591 0.578405 0.808489 0.198846
H5    H     H_    0.169167 0.595635 0.912363 0.222484
C23   C     C_3   0.854278 0.670749 0.239800 -0.353915
C24   C     C_3   0.858232 0.834702 0.283759 -0.723231
H6    H     H_    0.806174 0.884413 0.287790 0.285673
H7    H     H_    0.883342 0.851143 0.408710 0.256558
H8    H     H_    0.888779 0.893116 0.185714 0.230113
H9    H     H_    0.907034 0.628462 0.218167 0.196679
H10   H     H_    0.828515 0.656785 0.115393 0.237215
C25   C     C_3   0.854375 0.329324 0.759567 -0.353942
C26   C     C_3   0.858267 0.165353 0.715664 -0.723153
H11   H     H_    0.806198 0.115680 0.711915 0.285682
H12   H     H_    0.883286 0.148846 0.590600 0.256572
H13   H     H_    0.888872 0.106949 0.813587 0.230079
H14   H     H_    0.907151 0.371567 0.780978 0.196688
H15   H     H_    0.828680 0.343354 0.884065 0.237135
C27   C     C_3   0.142558 0.376043 0.206451 -0.366996
C28   C     C_3   0.139639 0.208323 0.221361 -0.731887
H16   H     H_    0.192371 0.161487 0.221858 0.274998
H17   H     H_    0.113071 0.174717 0.339620 0.259886
H18   H     H_    0.111237 0.161900 0.111465 0.231913
H19   H     H_    0.089896 0.420794 0.190416 0.198740
H20   H     H_    0.169594 0.403099 0.087122 0.222976

loop_
_geom_bond_atom_site_label_1
_geom_bond_atom_site_label_2
_geom_bond_distance
_ccdc_geom_bond_type
C28   H18   1.110504 S    
C22   H2    1.109777 S    
N9    O13   1.300762 A    
N3    N5    1.329074 A    
N7    O9    1.299519 A    
C10   C17   1.402822 A    
C11   C15   1.414463 A    
C15   C20   1.469798 S    
C12   C23   1.525609 S    
C9    C18   1.409875 A    
C25   H14   1.108845 S    
C7    C11   1.407635 A    
O3    Cu1   1.931004 S    
C8    N8    1.436082 S    
C13   C25   1.525606 S    
O6    C4    1.292533 A    
O3    C2    1.283894 A    
C4    C18   1.473299 S    
C26   H11   1.109089 S    
N8    O12   1.301149 A    
C22   H1    1.110707 S    
C14   C15   1.414417 A    
C28   H16   1.110432 S    
C23   H9    1.108842 S    
C8    C18   1.409912 A    
Cu1   Cu2   2.667397 S    
C13   C16   1.420398 A    
O5    C3    1.302832 A    
N9    O14   1.301165 A    
Cu2   N1    2.004333 S    
C24   H6    1.109094 S    
O2    C2    1.283392 A    
C10   C14   1.407634 A    
C9    C13   1.409258 A    
Cu1   N2    2.004333 S    
O1    C1    1.283393 A    
C5    C6    1.188492 T    
N8    O11   1.300761 A    
N5    C19   1.355532 A    
C14   C27   1.523779 S    
N1    N2    1.211909 T    
N6    C20   1.355490 A    
N3    C20   1.355460 A    
O4    Cu2   1.931005 S    
O2    Cu2   1.930438 S    
O7    C4    1.292573 A    
C23   H10   1.109068 S    
C11   C21   1.523780 S    
C24   H7    1.109972 S    
C1    C5    1.405584 S    
O8    C3    1.302555 A    
C27   H20   1.106067 S    
C2    C6    1.405584 S    
C21   H4    1.109366 S    
C7    C17   1.402690 A    
N10   O16   1.301764 A    
C12   C16   1.420359 A    
C26   H13   1.110436 S    
O5    Cu1   1.953860 S    
C27   C28   1.527155 S    
O1    Cu1   1.930439 S    
C23   C24   1.528588 S    
C3    C17   1.514841 S    
N7    O10   1.301762 A    
C21   C22   1.527151 S    
O8    Cu2   1.953806 S    
C27   H19   1.109361 S    
C28   H17   1.109464 S    
O7    Cu1   1.953804 S    
N10   O15   1.299520 A    
O4    C1    1.283894 A    
C24   H8    1.110443 S    
O6    Cu2   1.953858 S    
C7    N7    1.407418 S    
C10   N10   1.407533 S    
C22   H3    1.110688 S    
C21   H5    1.106076 S    
C8    C12   1.409257 A    
C9    N9    1.436070 S    
N4    C19   1.355536 A    
C25   H15   1.109070 S    
C16   C19   1.469686 S    
C26   H12   1.109961 S    
C25   C26   1.528589 S    
N4    N6    1.329080 A    
