data_mof_unit_4165.cif
_audit_creation_date              2012-12-11T19:09:31-0500
_audit_creation_method            fapswitch 2.2
_symmetry_space_group_name_H-M    P1
_symmetry_Int_Tables_number       1
_space_group_crystal_system       triclinic
_cell_length_a                    8.307335
_cell_length_b                    15.322292
_cell_length_c                    26.979082
_cell_angle_alpha                 99.677619
_cell_angle_beta                  93.443019
_cell_angle_gamma                 80.047772
_cell_volume                      3332.58714558

loop_
_atom_site_label
_atom_site_type_symbol
_atom_type_description
_atom_site_fract_x
_atom_site_fract_y
_atom_site_fract_z
_atom_type_partial_charge
Ba1   Ba    Ba6+2 0.860050 0.456430 0.522540 1.749943
Ba2   Ba    Ba6+2 0.329780 0.543490 0.477450 1.724609
C1    C     C_3   0.698098 0.141208 0.651159 -0.343010
C2    C     C_R   0.900382 0.591462 0.179680 0.569266
C3    C     C_2   0.757741 0.564613 0.274398 0.028776
C4    C     C_3   0.218321 0.208740 0.652310 0.246920
C5    C     C_3   0.732456 0.585117 0.330368 -0.069996
C6    C     C_1   0.981799 0.479417 0.341488 0.025409
C7    C     C_2   0.025980 0.480343 0.294573 -0.080844
C8    C     C_2   0.905475 0.521581 0.256892 0.214703
C9    C     C_R   0.020948 0.508933 0.101376 -0.078869
C10   C     C_R   0.067828 0.433640 0.125766 -0.046839
C11   C     C_R   0.153202 0.355010 0.098482 -0.035944
C12   C     C_3   0.667911 0.232203 0.633752 0.343051
C13   C     C_R   0.935910 0.588006 0.128653 -0.022403
C14   C     C_2   0.835710 0.517389 0.358102 -0.216438
C15   C     C_2   0.367429 0.493816 0.641645 -0.202266
C16   C     C_3   0.168564 0.182054 0.700406 0.225113
C17   C     C_R   0.191781 0.423479 0.971905 0.019348
C18   C     C_R   0.039126 0.576905 0.973469 0.021182
C19   C     C_R   0.134687 0.498684 0.947226 0.054277
C20   C     C_R   0.291055 0.348582 0.944431 -0.096312
C21   C     C_R   0.330661 0.347179 0.894722 -0.032437
C22   C     C_R   0.273022 0.420136 0.869689 -0.045482
C23   C     C_3   0.530343 0.688310 0.635686 0.368188
C24   C     C_R   0.174037 0.495833 0.895778 -0.080266
C25   C     C_R   0.115371 0.568993 0.870517 -0.033384
C26   C     C_R   0.156839 0.565860 0.819922 0.587175
C27   C     C_R   0.313591 0.418996 0.819196 0.617305
C28   C     C_3   0.216892 0.268981 0.414845 0.294761
C29   C     C_2   0.460382 0.474710 0.730353 -0.073399
C30   C     C_3   0.509680 0.486955 0.679001 -0.073690
C31   C     C_1   0.215663 0.520071 0.656892 0.060087
C32   C     C_2   0.172873 0.512430 0.702565 -0.087744
C33   C     C_2   0.300611 0.490278 0.742680 0.211474
C34   C     C_3   0.622537 0.699881 0.686557 -0.335937
C35   C     C_R   0.149156 0.425778 0.022947 0.019682
C36   C     C_R   0.058792 0.505279 0.049700 0.054222
C37   C     C_R   0.005914 0.581326 0.025391 0.019520
C38   C     C_R   0.193290 0.351091 0.048507 -0.089786
C39   C     C_R   0.888676 0.663075 0.104574 -0.040787
C40   C     C_3   0.250435 0.167367 0.400052 -0.385776
C41   C     C_R   0.979393 0.648253 0.946491 -0.095934
C42   C     C_R   0.016848 0.644286 0.896420 -0.054704
C43   C     C_R   0.922475 0.659971 0.054345 -0.098017
C44   C     C_R   0.363885 0.178778 0.537028 -0.045227
C45   C     C_3   0.033004 0.728347 0.342124 0.301201
C46   C     C_R   0.581417 0.208106 0.488899 0.035408
C47   C     C_R   0.740742 0.769914 0.478658 -0.247625
C48   C     C_R   0.834959 0.826876 0.463200 0.060366
C49   C     C_R   0.784008 0.919298 0.472931 -0.106364
C50   C     C_R   0.632869 0.957418 0.495553 -0.001811
C51   C     C_R   0.548228 0.899212 0.517334 -0.022220
C52   C     C_3   0.925381 0.740851 0.605729 0.580389
C53   C     C_R   0.570167 0.052435 0.500683 0.037106
C54   C     C_R   0.429451 0.086874 0.529789 -0.108356
C55   C     C_R   0.354517 0.029581 0.551792 -0.115190
C56   C     C_3   0.050584 0.748173 0.289521 -0.251434
C57   C     C_R   0.411455 0.938991 0.547211 0.145312
C58   C     C_R   0.633691 0.114049 0.475606 0.017427
C59   C     C_R   0.451086 0.238996 0.521273 0.064698
C60   C     C_R   0.607063 0.804454 0.509199 0.021700
C61   C     C_3   0.856147 0.833728 0.635644 -0.067993
C62   C     C_3   0.672762 0.329302 0.366015 0.235973
C63   C     C_3   0.609365 0.301355 0.312348 0.192653
C64   C     C_3   0.483363 0.781804 0.368242 0.364536
C65   C     C_3   0.431326 0.872240 0.350713 0.239479
C66   C     C_R   0.027213 0.438022 0.176747 0.645496
Cl1   Cl    Cl    0.027829 0.758300 0.555078 -0.752417
Cl2   Cl    Cl    0.654198 0.370750 0.270412 -0.695292
Cl3   Cl    Cl    0.336903 0.171147 0.744130 -0.656661
Cl4   Cl    Cl    0.515095 0.870930 0.291243 -0.629120
Cl5   Cl    Cl    0.390871 0.354160 0.540318 -0.704928
H1    H     H_    0.746927 0.226761 0.601148 0.079681
H2    H     H_    0.829722 0.122290 0.661012 0.132999
H3    H     H_    0.667186 0.231441 0.297866 0.108750
H4    H     H_    0.474861 0.303867 0.312135 0.092537
H5    H     H_    0.537172 0.248210 0.622326 -0.023180
H6    H     H_    0.662165 0.089347 0.620579 0.061748
H7    H     H_    0.579650 0.620429 0.615629 0.057119
H8    H     H_    0.586738 0.768996 0.707247 0.128285
H9    H     H_    0.593306 0.652222 0.710069 0.085292
H10   H     H_    0.756296 0.685871 0.681594 0.107733
H11   H     H_    0.625483 0.143551 0.684647 0.194725
H12   H     H_    0.348924 0.147664 0.372295 0.135556
H13   H     H_    0.121589 0.667020 0.347236 0.072522
H14   H     H_    0.906396 0.716662 0.345531 -0.043361
H15   H     H_    0.158248 0.781352 0.287968 0.167299
H16   H     H_    0.068784 0.684402 0.262679 0.096583
H17   H     H_    0.939515 0.792945 0.278184 0.173150
H18   H     H_    0.619452 0.768245 0.370382 -0.069258
H19   H     H_    0.435930 0.787059 0.406463 0.003766
H20   H     H_    0.476582 0.925450 0.378503 0.003415
H21   H     H_    0.296047 0.888569 0.347680 0.086911
H22   H     H_    0.237673 0.279949 0.660005 0.041309
H23   H     H_    0.288914 0.135039 0.433551 0.056740
H24   H     H_    0.149865 0.451907 0.283470 0.139175
H25   H     H_    0.190287 0.295510 0.115824 0.136292
H26   H     H_    0.555771 0.462456 0.758851 0.103514
H27   H     H_    0.407673 0.287998 0.875841 0.154843
H28   H     H_    0.343082 0.289840 0.960480 0.079449
H29   H     H_    0.257450 0.287455 0.030747 0.078486
H30   H     H_    0.662050 0.591817 0.249390 0.137226
H31   H     H_    0.824480 0.725416 0.124629 0.142482
H32   H     H_    0.900782 0.708403 0.962706 0.075789
H33   H     H_    0.333718 0.164186 0.639914 -0.000930
H34   H     H_    0.137780 0.143019 0.383220 0.142583
H35   H     H_    0.967901 0.701272 0.877978 0.127429
H36   H     H_    0.045631 0.529456 0.712570 0.126481
H37   H     H_    0.883405 0.721594 0.039674 0.078621
H38   H     H_    0.796409 0.508814 0.394392 0.046603
H39   H     H_    0.398135 0.504706 0.604978 0.117216
H40   H     H_    0.249125 0.054119 0.574574 0.093726
H41   H     H_    0.783842 0.698225 0.472157 0.073921
H42   H     H_    0.870696 0.959679 0.465423 0.116861
H43   H     H_    0.067664 0.233206 0.717820 0.097632
H44   H     H_    0.125960 0.116153 0.691548 0.070270
H45   H     H_    0.826931 0.703568 0.590982 -0.003720
H46   H     H_    0.331428 0.292844 0.429272 0.022243
H47   H     H_    0.125436 0.286232 0.444721 0.094182
H48   H     H_    0.041095 0.843598 0.689618 0.219489
H49   H     H_    0.069835 0.886006 0.637432 0.206529
H50   H     H_    0.312704 0.759301 0.661314 0.205808
H51   H     H_    0.303426 0.682782 0.609530 0.227440
H52   H     H_    0.666434 0.099584 0.400528 0.205621
H53   H     H_    0.840031 0.108479 0.437109 0.210984
H54   H     H_    0.338346 0.916278 0.613210 0.167586
H55   H     H_    0.202952 0.902022 0.564409 0.220345
H56   H     H_    0.769623 0.826914 0.663599 0.105719
H57   H     H_    0.785802 0.876543 0.609656 0.089601
H58   H     H_    0.802692 0.337529 0.365607 0.025288
H59   H     H_    0.597261 0.393452 0.382545 0.064020
N1    N     N_R   0.945303 0.516830 0.203783 -0.428423
N2    N     N_R   0.254871 0.491175 0.794502 -0.431461
N3    N     N_3   0.982729 0.880588 0.662512 -0.484366
N4    N     N_3   0.359325 0.693589 0.644963 -0.509729
N5    N     N_3   0.732203 0.081221 0.432427 -0.501641
N6    N     N_3   0.326952 0.890456 0.574949 -0.430933
O1    O     O_2   0.906490 0.548660 0.619040 -0.498509
O2    O     O_2   0.172702 0.824086 0.470051 -0.446163
O3    O     O_3   0.065652 0.801777 0.377461 -0.611066
O4    O     O_3   0.138490 0.548590 0.558860 -0.417836
O5    O     O_3   0.572560 0.389970 0.472910 -0.419223
O6    O     O_2   0.345680 0.723560 0.528460 -0.368531
O7    O     O_3   0.547169 0.757543 0.608913 -0.656093
O8    O     O_2   0.409192 0.541017 0.323648 -0.452712
O9    O     O_3   0.418607 0.714243 0.334971 -0.587544
O10   O     O_2   0.062759 0.370936 0.196605 -0.549496
O11   O     O_2   0.401394 0.353462 0.797235 -0.523144
O12   O     O_3   0.662620 0.258696 0.391815 -0.680641
O13   O     O_2   0.830232 0.661935 0.202699 -0.591371
O14   O     O_2   0.108047 0.630634 0.798897 -0.595092
O15   O     O_3   0.686290 0.382320 0.585720 -0.436972
O16   O     O_2   0.849481 0.431853 0.669398 -0.482980
O17   O     O_3   0.035428 0.691769 0.635699 -0.647410
O18   O     O_3   0.706064 0.298038 0.673406 -0.571659
O19   O     O_2   0.844020 0.276410 0.471510 -0.466525
O20   O     O_3   0.101490 0.335510 0.560360 -0.394491
O21   O     O_2   0.032221 0.177436 0.519905 -0.487591
O22   O     O_3   0.092635 0.197596 0.615883 -0.624089
O23   O     O_2   0.283210 0.451320 0.380930 -0.468744
O24   O     O_3   0.051220 0.451340 0.441130 -0.486248
O25   O     O_3   0.503420 0.617610 0.414270 -0.491783
O26   O     O_3   0.158483 0.306946 0.372214 -0.620837
O27   O     O_3   0.617160 0.609950 0.527080 -0.484991
O28   O     O_3   0.088220 0.664410 0.439630 -0.457096
P1    P     P_3+3 0.071960 0.575810 0.612130 1.044616
P2    P     P_3+3 0.664360 0.290070 0.457280 1.019688
P3    P     P_3+3 0.151159 0.220582 0.558861 0.994632
P4    P     P_3+3 0.117760 0.424110 0.387870 1.008794
P5    P     P_3+3 0.039526 0.779684 0.437686 1.017035
P6    P     P_3+3 0.684819 0.401277 0.651710 1.018064
P7    P     P_3+3 0.532291 0.723763 0.543082 0.985581
P8    P     P_3+3 0.515179 0.610494 0.349498 0.996004

loop_
_geom_bond_atom_site_label_1
_geom_bond_atom_site_label_2
_ccdc_geom_bond_type
C53   C54   A    
C3    H30   S    
H53   N5    S    
C23   H7    S    
Ba2   O6    S    
O26   P4    S    
C8    N1    S    
C28   O26   S    
C19   C24   A    
C1    H6    S    
Ba2   O24   S    
C51   C57   A    
O9    P8    S    
C10   C11   A    
C10   C66   A    
C24   C25   A    
C63   H3    S    
C40   H23   S    
C12   H1    S    
C66   N1    Am   
C17   C19   A    
C22   C24   A    
C65   Cl4   S    
C35   C38   A    
C36   C37   A    
C55   C57   A    
C52   C61   S    
Ba1   P1    S    
C34   H10   S    
O27   P7    S    
C63   Cl2   S    
C5    P8    S    
O8    P8    D    
O3    P5    S    
C54   C55   A    
O19   P2    D    
C32   C33   S    
C41   H32   S    
C61   H57   S    
C11   H25   S    
C23   N4    S    
H55   N6    S    
C22   C27   A    
C11   C38   A    
Ba1   O4    S    
C17   C35   A    
O4    P1    S    
C9    C13   A    
C25   C42   A    
C62   H59   S    
O17   P1    S    
C6    C7    D    
O24   P4    S    
O6    P7    D    
C65   H21   S    
C21   C22   A    
C16   H44   S    
Ba2   O23   S    
C48   P5    S    
H54   N6    S    
C29   H26   S    
C1    H2    S    
C7    C8    S    
Ba2   O28   S    
C66   O10   D    
C50   C53   A    
C58   N5    S    
C37   C43   A    
C61   H56   S    
C27   N2    Am   
C30   P6    S    
O28   P5    S    
C6    C14   D    
C53   C58   A    
Ba2   O5    S    
C31   P1    S    
C15   C31   D    
C33   N2    S    
C6    P4    S    
C46   C58   A    
C42   H35   S    
C4    C16   S    
C63   H4    S    
H51   N4    S    
C44   C59   A    
C49   C50   A    
C45   H13   S    
C17   C20   A    
C64   C65   S    
C13   C39   A    
C34   H9    S    
C52   O17   S    
C3    C5    S    
C18   C37   A    
C43   H37   S    
C64   H19   S    
C57   N6    S    
H52   N5    S    
C60   P7    S    
C27   O11   D    
O18   P6    S    
C49   H42   S    
C62   O12   S    
C45   H14   S    
C9    C36   A    
O1    P1    D    
C41   C42   A    
C35   C36   A    
Ba1   O5    S    
C51   C60   A    
C4    O22   S    
C29   C30   S    
C46   P2    S    
C62   H58   S    
Ba1   O27   S    
C34   H8    S    
O22   P3    S    
O12   P2    S    
C31   C32   D    
C4    H33   S    
O16   P6    D    
C48   C49   A    
C40   H12   S    
H48   N3    S    
Ba1   O15   S    
C56   H17   S    
Ba2   O27   S    
C64   O9    S    
C1    C12   S    
Ba2   P4    S    
O23   P4    D    
C5    C14   S    
O7    P7    S    
Ba1   O24   S    
C26   O14   D    
O2    P5    D    
C20   H28   S    
C52   H45   S    
Ba2   O4    S    
C26   N2    Am   
C16   H43   S    
C15   H39   S    
C25   C26   A    
C18   C41   A    
C50   C51   A    
C40   H34   S    
C16   Cl3   S    
C15   C30   S    
C2    O13   D    
Ba1   O20   S    
C7    H24   S    
C47   C60   A    
O21   P3    D    
C12   O18   S    
H49   N3    S    
Ba1   O1    S    
Ba2   O25   S    
C55   H40   S    
C9    C10   A    
C39   H31   S    
O20   P3    S    
C64   H18   S    
C45   O3    S    
Ba1   P2    S    
C44   P3    S    
H50   N4    S    
C59   Cl5   S    
C62   C63   S    
C4    H22   S    
C2    C13   A    
Ba1   O19   S    
C3    C8    D    
C45   C56   S    
C47   H41   S    
C46   C59   A    
C52   Cl1   S    
C28   H47   S    
Ba1   Ba2   S    
O15   P6    S    
C21   H27   S    
C29   C33   D    
C12   H5    S    
C56   H16   S    
O5    P2    S    
C23   C34   S    
C38   H29   S    
C18   C19   A    
C47   C48   A    
C28   H46   S    
C44   C54   A    
C1    H11   S    
C65   H20   S    
C32   H36   S    
C39   C43   A    
C20   C21   A    
C28   C40   S    
C23   O7    S    
O25   P8    S    
C56   H15   S    
C14   H38   S    
C61   N3    S    
C2    N1    Am   
