data_mof_unit_4064.cif
_audit_creation_date              2012-12-10T19:42:53-0500
_audit_creation_method            fapswitch 2.2
_symmetry_space_group_name_H-M    P1
_symmetry_Int_Tables_number       1
_space_group_crystal_system       triclinic
_cell_length_a                    10.823965
_cell_length_b                    12.995237
_cell_length_c                    11.656737
_cell_angle_alpha                 99.849933
_cell_angle_beta                  93.657653
_cell_angle_gamma                 90.533507
_cell_volume                      1611.83522038

loop_
_atom_site_label
_atom_site_type_symbol
_atom_type_description
_atom_site_fract_x
_atom_site_fract_y
_atom_site_fract_z
_atom_type_partial_charge
C1    C     C_R   0.498342 0.299035 0.478612 0.802986
C2    C     C_R   0.501658 0.700965 0.521388 0.802987
C3    C     C_R   0.871619 0.494353 0.499228 -0.090441
C4    C     C_R   0.128381 0.505647 0.500772 -0.090441
C5    C     C_R   0.944401 0.459281 0.589463 0.030687
C6    C     C_R   0.055599 0.540719 0.410537 0.030686
C7    C     C_R   0.501428 0.814349 0.533804 -0.050684
C8    C     C_R   0.498572 0.185651 0.466196 -0.050684
C9    C     C_R   0.508456 0.015343 0.345096 -0.221576
C10   C     C_R   0.491543 0.984657 0.654904 -0.221576
C11   C     C_R   0.505773 0.123436 0.355911 -0.195020
C12   C     C_R   0.494227 0.876563 0.644089 -0.195020
C13   C     C_R   0.492819 0.139149 0.565547 -0.283604
C14   C     C_R   0.507180 0.860851 0.434453 -0.283604
C15   C     C_R   0.496006 0.031188 0.555545 0.177921
C16   C     C_R   0.503994 0.968812 0.444455 0.177921
C17   C     C_R   0.388928 0.397136 0.021280 -0.273674
C18   C     C_R   0.611072 0.602864 0.978720 -0.273675
C19   C     C_R   0.398738 0.407636 0.143663 0.075721
C20   C     C_R   0.601262 0.592364 0.856337 0.075721
C21   C     C_R   0.546974 0.545236 0.157387 0.053469
C22   C     C_R   0.453025 0.454764 0.842613 0.053469
C23   C     C_R   0.262264 0.503111 0.500543 0.802383
C24   C     C_R   0.737736 0.496889 0.499457 0.802383
C25   C     C_R   0.540052 0.537590 0.034430 0.063131
C26   C     C_R   0.459948 0.462410 0.965570 0.063132
C27   C     C_R   0.231790 0.725572 0.258467 -0.220468
C28   C     C_R   0.768209 0.274427 0.741531 -0.220467
C29   C     C_R   0.177773 0.682754 0.345949 -0.108735
C30   C     C_R   0.822226 0.317245 0.654050 -0.108734
C31   C     C_R   0.109732 0.588197 0.317721 0.019358
C32   C     C_R   0.890268 0.411803 0.682279 0.019358
C33   C     C_R   0.095565 0.537748 0.200935 -0.181498
C34   C     C_R   0.904436 0.462250 0.799065 -0.181499
C35   C     C_R   0.150386 0.580585 0.113818 0.683572
C36   C     C_R   0.849614 0.419413 0.886181 0.683572
C37   C     C_R   0.218731 0.674263 0.142649 -0.215181
C38   C     C_R   0.781269 0.325735 0.857350 -0.215181
C39   C     C_R   0.927630 0.533474 0.410279 -0.226237
C40   C     C_R   0.072370 0.466525 0.589721 -0.226237
Cu1   Cu    Cu3+1 0.509250 0.507730 0.615930 0.946796
Cu2   Cu    Cu3+1 0.490750 0.492270 0.384070 0.946796
H1    H     H_    0.261569 0.707158 0.075298 0.150982
H2    H     H_    0.738431 0.292840 0.924701 0.150982
H3    H     H_    0.391264 0.397491 0.788782 0.118589
H4    H     H_    0.608736 0.602509 0.211218 0.118589
H5    H     H_    0.656492 0.642883 0.814212 0.126337
H6    H     H_    0.343508 0.357117 0.185788 0.126337
H7    H     H_    0.326114 0.338609 0.970790 0.149391
H8    H     H_    0.673886 0.661390 0.029210 0.149390
H9    H     H_    0.283903 0.798473 0.280421 0.157921
H10   H     H_    0.716096 0.201527 0.719577 0.157921
H11   H     H_    0.189551 0.722711 0.435569 0.127004
H12   H     H_    0.810448 0.277289 0.564429 0.127004
H13   H     H_    0.044070 0.464470 0.177985 0.184856
H14   H     H_    0.955930 0.535529 0.822016 0.184856
H15   H     H_    0.871515 0.562036 0.342332 0.170071
H16   H     H_    0.128485 0.437964 0.657667 0.170071
H17   H     H_    0.513952 0.813211 0.349171 0.148002
H18   H     H_    0.486048 0.186789 0.650829 0.148002
H19   H     H_    0.514329 0.968299 0.259433 0.132479
H20   H     H_    0.485670 0.031701 0.740566 0.132479
N1    N     N_R   0.523180 0.519350 0.790130 -0.185159
N2    N     N_R   0.476820 0.480650 0.209870 -0.185159
O1    O     O_R   0.506570 0.354460 0.582000 -0.587924
O2    O     O_R   0.493430 0.645540 0.418000 -0.587924
O3    O     O_R   0.490940 0.341410 0.386200 -0.593850
O4    O     O_R   0.509060 0.658590 0.613800 -0.593851
O5    O     O_R   0.327460 0.506540 0.597900 -0.584359
O6    O     O_R   0.672540 0.493460 0.402100 -0.584359
O7    O     O_R   0.311830 0.493480 0.402100 -0.575866
O8    O     O_R   0.688170 0.506520 0.597900 -0.575866
F1    F     F_    0.138343 0.530733 0.001502 -0.684568
F2    F     F_    0.861658 0.469264 0.998498 -0.684567
H21   H     H_    0.489805 0.841766 0.721822 0.157188
H22   H     H_    0.510194 0.158234 0.278178 0.157188

loop_
_geom_bond_atom_site_label_1
_geom_bond_atom_site_label_2
_ccdc_geom_bond_type
C33   H13   S    
C34   H14   S    
C8    C13   A    
C27   C29   A    
C1    C8    S    
Cu1   Cu2   S    
C23   O5    A    
C2    C7    S    
C24   O6    A    
C13   H18   S    
C14   H17   S    
C30   H12   S    
C24   O8    A    
C9    H19   S    
C17   C26   A    
C35   C37   A    
C9    C16   A    
C2    O4    A    
C11   H22   S    
C15   C16   A    
C39   H15   S    
Cu2   O6    S    
C21   N2    A    
C33   C35   A    
C22   N1    A    
C7    C14   A    
C4    C40   A    
C1    O1    A    
C31   C33   A    
C34   C36   A    
C5    C32   S    
C6    C31   S    
C3    C39   A    
C3    C24   S    
C10   H20   S    
C18   C25   A    
C10   C12   A    
C27   H9    S    
Cu1   O4    S    
C7    C12   A    
C40   H16   S    
C23   O7    A    
C4    C6    A    
C17   H7    S    
C4    C23   S    
C19   H6    S    
Cu1   O1    S    
C3    C5    A    
C25   C26   A    
C32   C34   A    
C37   H1    S    
C38   H2    S    
C28   C38   A    
C19   N2    A    
C9    C11   A    
C36   F2    S    
Cu1   O8    S    
C13   C15   A    
Cu2   O3    S    
C14   C16   A    
C12   H21   S    
Cu1   N1    S    
Cu2   N2    S    
C18   H8    S    
Cu1   O5    S    
C21   H4    S    
C21   C25   A    
C35   F1    S    
C2    O2    A    
C1    O3    A    
C10   C15   A    
C20   N1    A    
C36   C38   A    
C29   C31   A    
C30   C32   A    
C28   H10   S    
C29   H11   S    
C27   C37   A    
C8    C11   A    
C28   C30   A    
Cu2   O7    S    
C17   C19   A    
C18   C20   A    
C20   H5    S    
C22   H3    S    
C22   C26   A    
C5    C40   A    
Cu2   O2    S    
C6    C39   A    
