data_mof_unit_3546.cif
_audit_creation_date              2012-12-10T17:00:47-0500
_audit_creation_method            fapswitch 2.2
_symmetry_space_group_name_H-M    P1
_symmetry_Int_Tables_number       1
_space_group_crystal_system       triclinic
_cell_length_a                    10.774312
_cell_length_b                    10.661849
_cell_length_c                    10.07345
_cell_angle_alpha                 91.628844
_cell_angle_beta                  104.426522
_cell_angle_gamma                 89.632344
_cell_volume                      1120.23706032

loop_
_atom_site_label
_atom_site_type_symbol
_atom_type_description
_atom_site_fract_x
_atom_site_fract_y
_atom_site_fract_z
_atom_type_partial_charge
C1    C     C_R   0.497409 0.262295 0.496780 0.953475
C2    C     C_2   0.440390 0.863984 0.491660 0.233986
C3    C     C_2   0.428417 0.063297 0.379347 0.477096
C4    C     C_2   0.497663 0.129005 0.488418 -0.345973
C5    C     C_2   0.599657 0.497648 0.957478 0.411830
C6    C     C_2   0.590158 0.542713 0.095921 0.225278
C7    C     C_R   0.258909 0.496183 0.442272 0.957014
C8    C     C_R   0.487102 0.736916 0.498635 0.851946
C9    C     C_R   0.741030 0.495751 0.557435 0.954930
C10   C     C_2   0.121737 0.480290 0.409250 -0.243024
C11   C     C_2   0.068130 0.452087 0.510463 -0.111679
C12   C     C_2   0.878157 0.479849 0.589330 -0.287736
C13   C     C_2   0.931772 0.451344 0.486545 -0.123046
C14   C     C_2   0.444361 0.929328 0.381096 -0.383655
H1    H     H_    0.875456 0.437668 0.381438 0.240817
H2    H     H_    0.420226 0.541778 0.871862 0.134286
H3    H     H_    0.438226 0.438546 0.087145 0.178657
H4    H     H_    0.124443 0.439612 0.615062 0.197538
H5    H     H_    0.935204 0.493527 0.694053 0.200671
H6    H     H_    0.064927 0.493006 0.304989 0.185340
H7    H     H_    0.475774 0.887116 0.295541 0.187600
H8    H     H_    0.560003 0.082155 0.574355 0.174462
N1    N     N_2   0.501330 0.501330 0.852460 -0.242136
N2    N     N_2   0.501370 0.501360 0.148130 -0.217838
O1    O     O_R   0.499980 0.319060 0.613030 -0.561418
O2    O     O_R   0.500020 0.319100 0.386910 -0.566291
O3    O     O_R   0.317800 0.500000 0.570840 -0.614827
O4    O     O_R   0.317840 0.500040 0.344720 -0.590002
O5    O     O_R   0.499980 0.680900 0.613090 -0.554799
O6    O     O_R   0.500020 0.680940 0.386970 -0.615871
O7    O     O_R   0.682160 0.499960 0.655280 -0.541401
O8    O     O_R   0.682200 0.500000 0.429160 -0.589420
Zn1   Zn    Zn3+2 0.499970 0.499970 0.650990 1.093617
Zn2   Zn    Zn3+2 0.500030 0.500030 0.349010 1.065209
Br1   Br    Br    0.717713 0.656679 0.198267 -0.363439
S1    S     S_3+6 0.361720 0.918195 0.619329 0.060424
O9    O     O_2   0.460437 0.964358 0.744135 -0.271785
O10   O     O_2   0.268828 0.022035 0.567067 -0.245246
O11   O     O_3   0.280804 0.798317 0.663458 -0.538306
H9    H     H_    0.249074 0.831384 0.741809 0.387807
S2    S     S_3+6 0.321368 0.127266 0.233920 0.098373
O12   O     O_2   0.238733 0.225713 0.278490 -0.264139
O13   O     O_2   0.395747 0.185453 0.143455 -0.286192
O14   O     O_3   0.226503 0.013312 0.144226 -0.474407
H10   H     H_    0.281277 0.965923 0.094667 0.362233
S3    S     S_3+6 0.745733 0.426530 0.948330 0.092654
O15   O     O_2   0.723019 0.321538 0.842389 -0.253254
O16   O     O_2   0.832685 0.523624 0.914403 -0.293731
O17   O     O_3   0.816391 0.367792 0.101992 -0.544201
H11   H     H_    0.903140 0.342065 0.095022 0.398575

loop_
_geom_bond_atom_site_label_1
_geom_bond_atom_site_label_2
_ccdc_geom_bond_type
C7    C10   S    
O7    Zn1   S    
C11   H4    S    
C6    N2    D    
C4    H8    S    
C5    S3    S    
C5    N1    D    
C1    C4    S    
C8    O6    A    
S1    O10   D    
O4    Zn2   S    
O3    Zn1   S    
O14   H10   S    
C1    O1    A    
S2    O13   D    
S3    O17   S    
C5    C6    S    
C3    C14   S    
C10   H6    S    
C8    O5    A    
C14   H7    S    
S1    O9    D    
S2    O14   S    
H2    N1    S    
C13   H1    S    
C1    O2    A    
C2    C14   D    
C9    C12   S    
S3    O16   D    
H3    N2    S    
C10   C11   D    
O6    Zn2   S    
C3    C4    D    
O5    Zn1   S    
C11   C13   S    
C7    O3    A    
C12   C13   D    
C12   H5    S    
O17   H11   S    
S2    O12   D    
C6    Br1   S    
C2    S1    S    
O11   H9    S    
C9    O7    A    
S3    O15   D    
C3    S2    S    
C9    O8    A    
C2    C8    S    
O2    Zn2   S    
S1    O11   S    
N2    Zn2   S    
C7    O4    A    
O1    Zn1   S    
N1    Zn1   S    
O8    Zn2   S    
