data_mof_unit_850.cif
_audit_creation_date              2012-12-11T15:52:35-0500
_audit_creation_method            fapswitch 2.2
_symmetry_space_group_name_H-M    P1
_symmetry_Int_Tables_number       1
_space_group_crystal_system       triclinic
_cell_length_a                    6.927783
_cell_length_b                    14.510943
_cell_length_c                    16.080224
_cell_angle_alpha                 90.286006
_cell_angle_beta                  89.97419
_cell_angle_gamma                 90.225764
_cell_volume                      1616.49060035

loop_
_atom_site_label
_atom_site_type_symbol
_atom_type_description
_atom_site_fract_x
_atom_site_fract_y
_atom_site_fract_z
_atom_type_partial_charge
O1    O     O_R   0.494400 0.415640 0.412830 -0.532434
O2    O     O_R   0.823920 0.405510 0.586560 -0.550748
O3    O     O_R   0.994250 0.584360 0.587170 -0.542761
C1    C     C_R   0.654719 0.383170 0.615351 0.659831
O4    O     O_R   0.824110 0.404610 0.413450 -0.537253
O5    O     O_R   0.994440 0.583460 0.412820 -0.534241
C2    C     C_R   0.655156 0.384475 0.382511 0.737162
O6    O     O_R   0.494210 0.416540 0.587180 -0.548917
O7    O     O_3   0.660810 0.558680 0.500000 -0.346328
V1    V     V_3+5 0.935650 0.489110 0.500000 1.462677
O8    O     O_R   0.324150 0.594490 0.413440 -0.510840
C3    C     C_R   0.155854 0.618510 0.385816 0.713551
O9    O     O_R   0.323970 0.595390 0.586550 -0.535215
C4    C     C_R   0.155299 0.619261 0.614358 0.643988
V2    V     V_3+5 0.435660 0.510890 0.500000 1.519594
O10   O     O_3   0.160630 0.441320 0.500000 -0.377004
C5    C     C_3   0.090637 0.641372 0.767300 -0.347082
H1    H     H_    0.954142 0.601605 0.759264 0.140965
H2    H     H_    0.204798 0.591103 0.784231 0.132550
C6    C     C_3   0.064909 0.712370 0.839314 -0.328314
H3    H     H_    0.154802 0.691584 0.893339 0.128575
H4    H     H_    0.911763 0.712259 0.860248 0.141240
H5    H     H_    0.844568 0.729085 0.666921 0.175638
H6    H     H_    0.836963 0.847008 0.760880 0.133631
C7    C     C_3   0.987910 0.763654 0.668083 -0.276946
C8    C     C_3   0.344760 0.740465 0.698813 -0.119542
C9    C     C_3   0.146100 0.690258 0.684554 0.025786
H7    H     H_    0.455357 0.686970 0.712355 0.091903
C10   C     C_3   0.123092 0.810427 0.810439 0.097076
C11   C     C_3   0.987277 0.838138 0.737809 -0.315895
C12   C     C_3   0.333169 0.804881 0.776084 -0.349829
H8    H     H_    0.430488 0.777795 0.825295 0.129579
H9    H     H_    0.387076 0.875422 0.761648 0.152584
H10   H     H_    0.007658 0.796197 0.606263 0.176114
H11   H     H_    0.034096 0.905553 0.711932 0.170017
C13   C     C_R   0.982260 0.749590 0.196253 -0.077856
H12   H     H_    0.864071 0.743317 0.152482 0.134213
C14   C     C_R   0.995241 0.685839 0.260905 -0.124077
H13   H     H_    0.886115 0.632405 0.265165 0.165627
C15   C     C_R   0.148467 0.688882 0.318112 -0.157649
C16   C     C_R   0.290026 0.759521 0.309709 -0.049702
C17   C     C_R   0.273762 0.825834 0.245506 -0.149559
C18   C     C_R   0.121517 0.819195 0.186683 -0.132079
C19   C     C_R   0.812097 0.274418 0.716079 -0.154356
H14   H     H_    0.952819 0.293154 0.692046 0.115941
C20   C     C_R   0.801337 0.209734 0.780248 -0.150406
H15   H     H_    0.934203 0.180562 0.803597 0.117933
C21   C     C_R   0.621840 0.183114 0.813682 -0.041125
C22   C     C_R   0.453386 0.222883 0.781057 -0.151720
H16   H     H_    0.312664 0.204140 0.805085 0.116162
C23   C     C_R   0.464146 0.287565 0.716886 -0.152125
H17   H     H_    0.331275 0.316724 0.693527 0.115293
C24   C     C_R   0.643649 0.314223 0.683482 -0.040788
C25   C     C_R   0.788946 0.251283 0.300888 -0.103447
H18   H     H_    0.910496 0.249265 0.343173 0.137256
C26   C     C_R   0.779111 0.185787 0.236621 -0.093588
H19   H     H_    0.894025 0.135782 0.230590 0.123052
C27   C     C_R   0.621116 0.183551 0.181887 -0.053077
C28   C     C_R   0.475258 0.249391 0.191752 -0.186127
H20   H     H_    0.356239 0.250407 0.147999 0.139280
C29   C     C_R   0.487835 0.318337 0.253437 -0.001705
C30   C     C_R   0.643675 0.318003 0.311102 -0.119132
O11   O     O_R   0.771300 0.080930 0.910090 -0.545056
O12   O     O_R   0.441270 0.092800 0.083770 -0.532133
O13   O     O_R   0.271080 0.913920 0.084380 -0.532693
C31   C     C_R   0.610361 0.114615 0.113217 0.758248
O14   O     O_R   0.441580 0.091910 0.910670 -0.548409
O15   O     O_R   0.271390 0.913020 0.910040 -0.543883
C32   C     C_R   0.610779 0.114228 0.881861 0.669367
O16   O     O_R   0.770990 0.081830 0.084440 -0.542523
O17   O     O_3   0.604750 0.938760 0.997250 -0.366500
V3    V     V_3+5 0.329850 0.008280 0.997210 1.439110
O18   O     O_R   0.941680 0.901940 0.910610 -0.548510
C33   C     C_R   0.110744 0.879695 0.881616 0.652761
O19   O     O_R   0.941370 0.902830 0.083720 -0.526309
C34   C     C_R   0.109957 0.882921 0.114305 0.696719
V4    V     V_3+5 0.829860 0.986420 0.997150 1.440642
O20   O     O_3   0.104830 0.056030 0.997180 -0.372928
C35   C     C_2   0.449180 0.769567 0.370384 0.823808
O21   O     O_2   0.447704 0.833879 0.419578 -0.558145
O22   O     O_R   0.606545 0.709811 0.367249 -0.636743
H21   H     H_    0.708827 0.725987 0.410026 0.314529
C36   C     C_2   0.412353 0.904682 0.242757 0.833289
O23   O     O_2   0.585065 0.890053 0.235772 -0.538765
O24   O     O_R   0.347834 0.995652 0.248583 -0.645305
H22   H     H_    0.203157 0.000088 0.256874 0.248787
C37   C     C_2   0.347555 0.394739 0.249370 0.739283
O25   O     O_2   0.176413 0.378446 0.237422 -0.570559
O26   O     O_R   0.413344 0.485761 0.253802 -0.657669
H23   H     H_    0.307186 0.531691 0.242244 0.285204
C38   C     C_2   0.413346 0.794217 0.623616 0.751897
O27   O     O_2   0.545750 0.764502 0.581161 -0.556207
O28   O     O_R   0.330835 0.879484 0.604875 -0.670587
H24   H     H_    0.399270 0.912505 0.557975 0.333927

loop_
_geom_bond_atom_site_label_1
_geom_bond_atom_site_label_2
_ccdc_geom_bond_type
C37   O25   D    
O28   H24   S    
C1    C24   S    
O18   C33   A    
C21   C32   S    
C1    O6    A    
O22   H21   S    
V4    O20   S    
C8    C9    S    
O13   C34   A    
C11   H11   S    
C13   H12   S    
O5    C3    A    
C14   H13   S    
O15   C33   A    
V2    O10   S    
C7    C11   S    
C5    C6    S    
C26   H19   S    
O14   V3    S    
C16   C17   A    
V3    O20   S    
C29   C37   S    
C25   H18   S    
O8    V2    S    
C19   C24   A    
C27   C31   S    
C12   H8    S    
C22   C23   A    
C12   H9    S    
O1    V2    S    
C4    C9    S    
O7    V1    S    
C7    H10   S    
H5    C7    S    
C28   H20   S    
O9    C4    A    
O16   V4    S    
C19   C20   A    
C25   C26   A    
C6    C10   S    
C20   C21   A    
C28   C29   A    
C23   H17   S    
C5    C9    S    
O11   C32   A    
C38   O27   D    
O4    C2    A    
C10   C33   S    
C25   C30   A    
C27   C28   A    
O24   H22   S    
C23   C24   A    
O12   C31   A    
C3    C15   S    
O2    C1    A    
O19   C34   A    
C2    C30   S    
C16   C35   S    
C10   C11   S    
C38   O28   S    
C36   O23   D    
O15   V3    S    
C5    H1    S    
O19   V4    S    
O3    C4    A    
C21   C22   A    
C36   O24   S    
C6    H4    S    
O6    V2    S    
O9    V2    S    
C17   C18   A    
O2    V1    S    
O17   V4    S    
C19   H14   S    
C35   O22   S    
O11   V4    S    
C18   C34   S    
C20   H15   S    
C15   C16   A    
O1    C2    A    
C17   C36   S    
O5    V1    S    
O8    C3    A    
C7    C9    S    
O13   V3    S    
C8    H7    S    
C37   O26   S    
C8    C38   S    
O4    V1    S    
C10   C12   S    
O3    V1    S    
V1    O10   S    
C14   C15   A    
C31   O16   A    
C13   C14   A    
C5    H2    S    
C26   C27   A    
O12   V3    S    
O7    V2    S    
C29   C30   A    
H6    C11   S    
C35   O21   D    
C8    C12   S    
O17   V3    S    
C6    H3    S    
C22   H16   S    
O18   V4    S    
C13   C18   A    
O14   C32   A    
O26   H23   S    
