data_mof_unit_419.cif
_audit_creation_date              2012-12-10T18:53:01-0500
_audit_creation_method            fapswitch 2.2
_symmetry_space_group_name_H-M    P1
_symmetry_Int_Tables_number       1
_space_group_crystal_system       triclinic
_cell_length_a                    9.82193
_cell_length_b                    10.646824
_cell_length_c                    16.487278
_cell_angle_alpha                 89.975414
_cell_angle_beta                  85.570773
_cell_angle_gamma                 89.90846
_cell_volume                      1718.96220995

loop_
_atom_site_label
_atom_site_type_symbol
_atom_type_description
_atom_site_fract_x
_atom_site_fract_y
_atom_site_fract_z
_atom_type_partial_charge
C1    C     C_R   0.499959 0.740060 0.500144 0.852355
C2    C     C_R   0.499905 0.259930 0.500326 0.849195
C3    C     C_R   0.603475 0.935432 0.537070 -0.200185
C4    C     C_R   0.395191 0.064482 0.465099 -0.201294
C5    C     C_R   0.602640 0.064086 0.537847 -0.216250
C6    C     C_R   0.395339 0.935945 0.465093 -0.204808
C7    C     C_R   0.499375 0.127609 0.501064 -0.003565
C8    C     C_R   0.499720 0.872382 0.500679 0.003425
C9    C     C_R   0.933763 0.415607 0.453305 0.567308
C10   C     C_R   0.067627 0.585108 0.547085 0.560931
C11   C     C_R   0.078627 0.417742 0.452605 -0.280792
C12   C     C_R   0.921270 0.583510 0.546733 -0.312245
C13   C     C_R   0.481739 0.492141 0.654116 0.944293
C14   C     C_R   0.518589 0.496953 0.346159 0.942508
C15   C     C_R   0.471988 0.443700 0.737945 -0.319465
C16   C     C_R   0.530069 0.464488 0.260403 -0.315287
C17   C     C_R   0.589023 0.394635 0.771537 0.405959
C18   C     C_R   0.434146 0.507919 0.207885 0.359914
C19   C     C_R   0.573229 0.320099 0.841059 0.449995
C20   C     C_R   0.435573 0.458582 0.129517 0.526965
C21   C     C_R   0.448126 0.318849 0.888242 -0.151946
C22   C     C_R   0.534423 0.368837 0.103003 -0.209333
C23   C     C_R   0.330230 0.365987 0.854936 0.494474
C24   C     C_R   0.631644 0.327671 0.154962 0.446628
C25   C     C_R   0.343098 0.427366 0.779836 -0.355299
C26   C     C_R   0.629832 0.376798 0.233151 -0.346560
C27   C     C_2   0.445387 0.296850 0.976663 -0.071899
C28   C     C_2   0.550951 0.334304 0.017496 -0.046853
H1    H     H_    0.703634 0.342556 0.273443 0.230342
H2    H     H_    0.251964 0.463540 0.754891 0.207962
H3    H     H_    0.648185 0.360690 0.986772 0.209818
H4    H     H_    0.348601 0.276826 0.010581 0.183776
H5    H     H_    0.683254 0.885361 0.565569 0.155563
H6    H     H_    0.315361 0.114236 0.436353 0.151433
H7    H     H_    0.681556 0.113823 0.567179 0.159421
H8    H     H_    0.315496 0.886403 0.436679 0.150712
H9    H     H_    0.139892 0.354256 0.413722 0.167067
H10   H     H_    0.856784 0.648388 0.582009 0.158011
N1    N     N_R   0.142790 0.500030 0.500020 -0.125936
N2    N     N_R   0.857210 0.499970 0.499980 -0.117394
O1    O     O_R   0.385380 0.683250 0.500010 -0.572340
O2    O     O_R   0.614620 0.316750 0.499990 -0.599418
O3    O     O_R   0.614710 0.683220 0.500000 -0.640627
O4    O     O_R   0.385290 0.316780 0.500000 -0.634839
O5    O     O_R   0.371780 0.500040 0.615800 -0.584756
O6    O     O_R   0.628220 0.499960 0.384200 -0.579690
O7    O     O_R   0.601110 0.500010 0.615800 -0.568361
O8    O     O_R   0.398890 0.499990 0.384200 -0.582881
Zn1   Zn    Zn3+2 0.346870 0.500020 0.500000 0.992987
Zn2   Zn    Zn3+2 0.653130 0.499980 0.500000 0.993289
O9    O     O_3   0.718779 0.416720 0.735069 -0.598231
C29   C     C_3   0.790123 0.500625 0.783573 0.122152
H11   H     H_    0.898799 0.500803 0.759181 0.156442
H12   H     H_    0.789413 0.468803 0.847938 0.163483
C30   C     C_3   0.735394 0.635924 0.780167 -0.420329
H13   H     H_    0.743146 0.669519 0.716270 0.224019
H14   H     H_    0.626213 0.639215 0.803276 0.223119
C31   C     C_3   0.814573 0.724287 0.832231 -0.931658
H15   H     H_    0.797566 0.697974 0.897432 0.276716
H16   H     H_    0.778646 0.822246 0.824645 0.273968
H17   H     H_    0.925663 0.720073 0.814011 0.257786
O10   O     O_3   0.337869 0.597660 0.232764 -0.590882
C32   C     C_3   0.398618 0.717403 0.222343 0.123900
H18   H     H_    0.434140 0.733315 0.157261 0.155580
H19   H     H_    0.486933 0.726869 0.260524 0.108099
C33   C     C_3   0.293413 0.818288 0.248240 -0.291943
H20   H     H_    0.206837 0.813242 0.208748 0.235899
H21   H     H_    0.252933 0.800845 0.311999 0.222199
C34   C     C_3   0.356309 0.949371 0.241830 -1.027799
H22   H     H_    0.445038 0.955975 0.279513 0.271145
H23   H     H_    0.279440 0.020551 0.263772 0.276661
H24   H     H_    0.390336 0.970646 0.177520 0.265957
O11   O     O_3   0.204209 0.365630 0.898778 -0.602013
C35   C     C_3   0.148078 0.243028 0.900229 0.054316
H25   H     H_    0.091839 0.229506 0.960700 0.186882
H26   H     H_    0.225912 0.166345 0.893642 0.115560
C36   C     C_3   0.047147 0.230096 0.834519 -0.331045
H27   H     H_    0.969664 0.305931 0.842280 0.260232
H28   H     H_    0.102222 0.239988 0.773395 0.204363
C37   C     C_3   0.974693 0.103272 0.839891 -0.849069
H29   H     H_    0.049653 0.025681 0.829101 0.235387
H30   H     H_    0.899459 0.098427 0.793090 0.293021
H31   H     H_    0.919250 0.091178 0.900707 0.280760
O12   O     O_3   0.731358 0.241989 0.128602 -0.618401
C38   C     C_3   0.686286 0.120864 0.152998 0.082697
H32   H     H_    0.590522 0.096732 0.124387 0.147428
H33   H     H_    0.667675 0.115375 0.220518 0.134218
C39   C     C_3   0.795808 0.024633 0.125534 -0.304342
H34   H     H_    0.812295 0.026076 0.058065 0.231633
H35   H     H_    0.893536 0.049661 0.151193 0.226202
C40   C     C_3   0.754190 0.892473 0.153440 -0.970573
H36   H     H_    0.835789 0.824813 0.132862 0.278693
H37   H     H_    0.658118 0.864439 0.127025 0.260937
H38   H     H_    0.738994 0.888517 0.220882 0.265367
F1    F     F_    0.345547 0.503723 0.078073 -0.632973
F2    F     F_    0.682459 0.254831 0.864639 -0.689467
O13   O     O_3   0.868565 0.337623 0.401409 -0.623128
C41   C     C_3   0.902372 0.209644 0.412813 0.048939
H39   H     H_    0.806243 0.158814 0.430336 0.184621
H40   H     H_    0.971949 0.191774 0.461994 0.110205
C42   C     C_3   0.964144 0.154032 0.332768 -0.344267
H41   H     H_    0.894480 0.172347 0.284128 0.242801
H42   H     H_    0.063702 0.199686 0.315193 0.218480
C43   C     C_3   0.985555 0.012519 0.340101 -0.982390
H43   H     H_    0.060199 0.992118 0.385716 0.263045
H44   H     H_    0.025471 0.974124 0.280352 0.273685
H45   H     H_    0.887326 0.965058 0.358534 0.272308
O14   O     O_3   0.141728 0.667791 0.592534 -0.611296
C44   C     C_3   0.066342 0.764707 0.633846 0.051257
H46   H     H_    0.133234 0.805115 0.678495 0.179530
H47   H     H_    0.976336 0.728823 0.671221 0.125992
C45   C     C_3   0.030793 0.870750 0.575837 -0.379238
H48   H     H_    0.125632 0.904976 0.542136 0.238733
H49   H     H_    0.961462 0.836519 0.530656 0.211733
C46   C     C_3   0.962451 0.980345 0.622623 -0.957447
H50   H     H_    0.869518 0.948064 0.659394 0.265519
H51   H     H_    0.932457 0.053104 0.579245 0.257204
H52   H     H_    0.034518 0.022973 0.663361 0.275307

loop_
_geom_bond_atom_site_label_1
_geom_bond_atom_site_label_2
_ccdc_geom_bond_type
O4    Zn1   S    
C33   H21   S    
C30   H13   S    
C32   H19   S    
C42   H41   S    
C1    C8    S    
O11   C35   S    
C10   O14   S    
C2    C7    S    
C17   O9    S    
C45   H49   S    
O13   C41   S    
C14   O6    A    
C36   H27   S    
C35   H26   S    
C22   C24   A    
C19   C21   A    
C24   C26   A    
C44   H47   S    
C15   C25   A    
C33   C34   S    
C3    H5    S    
C31   H16   S    
C46   H50   S    
O14   C44   S    
C34   H23   S    
C11   H9    S    
C43   H43   S    
C1    O3    A    
C2    O4    A    
C46   H51   S    
C35   C36   S    
C29   C30   S    
C31   H17   S    
C38   H33   S    
C33   H20   S    
C21   C27   S    
C32   C33   S    
C42   H42   S    
C22   C28   S    
C23   O11   S    
C4    C7    A    
O1    Zn1   S    
C45   H48   S    
C29   H12   S    
O7    Zn2   S    
C36   H28   S    
C16   C26   A    
C4    H6    S    
C35   H25   S    
O9    C29   S    
C45   C46   S    
O12   C38   S    
C37   H30   S    
C3    C8    A    
C44   C45   S    
C40   H36   S    
C5    C7    A    
C18   O10   S    
C14   O8    A    
C31   H15   S    
C38   H32   S    
C9    N2    A    
C10   N1    A    
C12   N2    A    
C34   H24   S    
O10   C32   S    
C40   H37   S    
C39   C40   S    
O5    Zn1   S    
C46   H52   S    
C30   H14   S    
C11   N1    A    
C9    C11   A    
C10   C12   A    
O2    Zn2   S    
C4    C6    A    
O8    Zn1   S    
N1    Zn1   S    
C20   F1    S    
C20   C22   A    
C42   C43   S    
C41   H40   S    
C13   C15   S    
C14   C16   S    
C29   H11   S    
C13   O7    A    
C38   C39   S    
C1    O1    A    
C25   H2    S    
C15   C17   A    
C9    O13   S    
C27   H4    S    
C28   H3    S    
C39   H35   S    
C37   H29   S    
C3    C5    A    
C6    C8    A    
O3    Zn2   S    
C43   H44   S    
C41   C42   S    
O6    Zn2   S    
C21   C23   A    
C24   O12   S    
C44   H46   S    
C40   H38   S    
C13   O5    A    
C36   C37   S    
C2    O2    A    
N2    Zn2   S    
C5    H7    S    
C37   H31   S    
C17   C19   A    
C6    H8    S    
C18   C20   A    
C23   C25   A    
C12   H10   S    
C34   H22   S    
C32   H18   S    
C39   H34   S    
C26   H1    S    
C16   C18   A    
C41   H39   S    
C30   C31   S    
C27   C28   D    
C43   H45   S    
C19   F2    S    
