data_mof_unit_4938.cif
_audit_creation_date              2012-12-10T18:11:42-0500
_audit_creation_method            fapswitch 2.2
_symmetry_space_group_name_H-M    P1
_symmetry_Int_Tables_number       1
_space_group_crystal_system       triclinic
_cell_length_a                    10.498647
_cell_length_b                    12.66159
_cell_length_c                    12.989497
_cell_angle_alpha                 83.461212
_cell_angle_beta                  90.610372
_cell_angle_gamma                 101.289758
_cell_volume                      1682.14132568

loop_
_atom_site_label
_atom_site_type_symbol
_atom_type_description
_atom_site_fract_x
_atom_site_fract_y
_atom_site_fract_z
_atom_type_partial_charge
C1    C     C_R   0.463519 0.441382 0.688704 0.879302
C2    C     C_3   0.058305 0.571346 0.423239 0.219146
C3    C     C_3   0.983752 0.602209 0.512698 -0.183610
C4    C     C_3   0.877783 0.501618 0.499132 -0.076360
C5    C     C_R   0.441386 0.728017 0.062566 0.225379
C6    C     C_R   0.487591 0.591606 0.198043 -0.146281
C7    C     C_R   0.353456 0.297779 0.828446 0.221408
C8    C     C_R   0.309254 0.269768 0.930944 -0.223522
C9    C     C_R   0.323973 0.348093 0.998953 -0.204272
C10   C     C_R   0.374191 0.457518 0.963508 0.128654
C11   C     C_R   0.385794 0.488437 0.856766 0.042573
C12   C     C_R   0.742099 0.500410 0.499328 0.884895
C13   C     C_R   0.411355 0.537961 0.030663 -0.012976
C14   C     C_R   0.412297 0.647958 0.994038 0.094410
C15   C     C_R   0.386792 0.674713 0.889085 -0.224269
C16   C     C_R   0.378814 0.596766 0.820406 -0.204258
C17   C     C_R   0.461971 0.512247 0.128552 0.140696
C18   C     C_R   0.474508 0.698274 0.164928 -0.335037
C19   C     C_R   0.400267 0.408627 0.791734 -0.184588
C20   C     C_R   0.301156 0.083981 0.360124 -0.311464
C21   C     C_R   0.651356 0.797284 0.632662 -0.017886
C22   C     C_R   0.672584 0.897337 0.671076 0.174934
C23   C     C_R   0.510188 0.559303 0.307797 0.882801
C24   C     C_R   0.603820 0.975061 0.627668 -0.265581
C25   C     C_R   0.525413 0.957978 0.539236 -0.007194
C26   C     C_R   0.502570 0.852993 0.507678 0.196430
C27   C     C_R   0.465879 0.039074 0.483055 -0.022958
C28   C     C_R   0.368767 0.008047 0.409686 0.144459
C29   C     C_R   0.342929 0.902242 0.384181 -0.269211
C30   C     C_R   0.412041 0.826911 0.429968 -0.179935
C31   C     C_R   0.503386 0.150935 0.492095 0.305662
C32   C     C_R   0.332575 0.190904 0.381335 -0.059791
C33   C     C_R   0.258290 0.499917 0.500366 0.843883
C34   C     C_3   0.941964 0.429414 0.578050 -0.205777
C35   C     C_3   0.050290 0.529242 0.591337 -0.188115
C36   C     C_3   0.123584 0.499990 0.500519 -0.057381
C37   C     C_3   0.018012 0.399674 0.487363 -0.199903
C38   C     C_3   0.953157 0.472972 0.410151 0.220571
H1    H     H_    0.095336 0.551497 0.665580 0.144724
H2    H     H_    0.291046 0.323340 0.078175 0.136802
H3    H     H_    0.267589 0.186388 0.958898 0.146242
H4    H     H_    0.361181 0.621499 0.739985 0.185330
H5    H     H_    0.278921 0.249894 0.345623 0.133297
H6    H     H_    0.272046 0.878716 0.325858 0.169331
H7    H     H_    0.224578 0.060737 0.305735 0.146826
H8    H     H_    0.697239 0.732990 0.668003 0.155264
H9    H     H_    0.889600 0.372012 0.641817 0.142137
H10   H     H_    0.611518 0.046583 0.666400 0.167986
H11   H     H_    0.391669 0.748348 0.403939 0.217426
H12   H     H_    0.036794 0.318251 0.476876 0.152892
H13   H     H_    0.966659 0.684293 0.522606 0.155134
H14   H     H_    0.492569 0.759599 0.217893 0.177961
H15   H     H_    0.380540 0.756716 0.858470 0.179044
N1    N     N_R   0.432930 0.222190 0.444670 -0.117288
N2    N     N_R   0.566370 0.776980 0.554790 -0.155930
O1    O     O_R   0.467970 0.366730 0.627150 -0.595263
O2    O     O_R   0.510820 0.544830 0.662520 -0.626742
O3    O     O_R   0.664630 0.410960 0.482340 -0.615815
O4    O     O_R   0.707470 0.589060 0.517710 -0.621595
O5    O     O_R   0.489180 0.455170 0.337480 -0.608986
O6    O     O_R   0.532030 0.633270 0.372850 -0.635378
O7    O     O_R   0.292530 0.410940 0.482290 -0.628731
O8    O     O_R   0.335370 0.589040 0.517660 -0.641235
Zn1   Zn    Zn3+2 0.471390 0.381080 0.476380 0.929004
Zn2   Zn    Zn3+2 0.528610 0.618920 0.523620 0.910562
N3    N     N_2   0.501807 0.410546 0.150428 -0.293444
H16   H     H_    0.445677 0.349554 0.199094 0.237886
C39   C     C_3   0.637897 0.408044 0.139764 -0.746654
H17   H     H_    0.649999 0.355239 0.079481 0.238386
H18   H     H_    0.673142 0.373143 0.214299 0.251370
H19   H     H_    0.696914 0.490322 0.117171 0.233337
N4    N     N_2   0.338748 0.215581 0.760867 -0.274371
H20   H     H_    0.243808 0.174972 0.757066 0.217875
C40   C     C_3   0.427395 0.141626 0.779685 -0.795631
H21   H     H_    0.411558 0.083299 0.721066 0.237132
H22   H     H_    0.409521 0.095241 0.857740 0.230560
H23   H     H_    0.529524 0.186792 0.773479 0.238277
N5    N     N_2   0.621385 0.190757 0.540887 -0.325936
H24   H     H_    0.621908 0.249867 0.588814 0.268357
C41   C     C_3   0.738497 0.194130 0.481752 -0.760853
H25   H     H_    0.823835 0.212311 0.532175 0.229120
H26   H     H_    0.746389 0.256551 0.413730 0.278893
H27   H     H_    0.738812 0.114513 0.453799 0.237610
N6    N     N_2   0.757287 0.918257 0.756047 -0.314821
H28   H     H_    0.750929 0.987603 0.788783 0.224736
C42   C     C_3   0.890430 0.908371 0.739644 -0.800503
H29   H     H_    0.947575 0.926344 0.810178 0.238203
H30   H     H_    0.934505 0.966911 0.673248 0.241741
H31   H     H_    0.895738 0.824734 0.724750 0.239784
N7    N     N_2   0.894414 0.443193 0.313817 -0.313990
H32   H     H_    0.843888 0.499206 0.278816 0.216671
C43   C     C_3   0.977479 0.405934 0.243641 -0.834299
H33   H     H_    0.919796 0.376306 0.176960 0.245158
H34   H     H_    0.018638 0.337883 0.283176 0.244306
H35   H     H_    0.057451 0.473080 0.213745 0.242949
N8    N     N_2   0.129155 0.646476 0.341358 -0.310862
H36   H     H_    0.189230 0.612464 0.298456 0.212104
C44   C     C_3   0.053606 0.713233 0.279214 -0.824120
H37   H     H_    0.118748 0.772361 0.223926 0.231307
H38   H     H_    0.004157 0.758751 0.329226 0.249724
H39   H     H_    0.980751 0.662931 0.233586 0.242456
N9    N     N_2   0.438104 0.838471 0.029325 -0.318494
H40   H     H_    0.402759 0.877368 0.085164 0.223279
C45   C     C_3   0.559693 0.899962 0.985067 -0.810162
H41   H     H_    0.636601 0.905451 0.044806 0.245623
H42   H     H_    0.547832 0.983145 0.955471 0.232891
H43   H     H_    0.590158 0.861094 0.919578 0.266573

loop_
_geom_bond_atom_site_label_1
_geom_bond_atom_site_label_2
_ccdc_geom_bond_type
N3    C39   S    
O8    Zn2   S    
C34   C37   S    
C35   C36   S    
C26   N2    A    
C45   H42   S    
C18   H14   S    
C7    C8    A    
C11   C19   A    
C17   N3    S    
C29   C30   A    
C40   H22   S    
C15   H15   S    
C36   C37   S    
C1    O1    A    
N6    C42   S    
C41   H25   S    
N5    C41   S    
C15   C16   A    
C33   C36   S    
C34   C35   S    
O7    Zn1   S    
C39   H17   S    
C12   O4    A    
N6    H28   S    
C33   O7    A    
C40   H23   S    
N8    C44   S    
O1    Zn1   S    
C4    C12   S    
C9    C10   A    
C20   H7    S    
C12   O3    A    
N3    H16   S    
C21   C22   A    
C41   H27   S    
C32   N1    A    
C45   H41   S    
N2    Zn2   S    
O3    Zn1   S    
C23   O5    A    
C6    C18   A    
C4    C34   S    
C1    C19   S    
C40   H21   S    
C27   C31   A    
C24   H10   S    
C24   C25   A    
C41   H26   S    
C7    N4    S    
C21   N2    A    
C3    H13   S    
N5    H24   S    
C8    C9    A    
C5    C18   A    
C20   C28   A    
C25   C26   A    
C42   H31   S    
C9    H2    S    
C22   N6    S    
C35   H1    S    
C37   C38   S    
C1    O2    A    
C11   C16   A    
C2    C38   S    
N7    C43   S    
C3    C35   S    
C33   O8    A    
N8    H36   S    
C43   H34   S    
C8    H3    S    
N9    C45   S    
C5    C14   A    
N4    C40   S    
C30   H11   S    
C4    C38   S    
C26   C30   A    
C7    C19   A    
C29   H6    S    
C22   C24   A    
C3    C4    S    
C16   H4    S    
C31   N5    S    
C21   H8    S    
C20   C32   A    
C2    C36   S    
C6    C17   A    
C5    N9    S    
C28   C29   A    
C42   H29   S    
O2    Zn2   S    
N4    H20   S    
C10   C13   A    
C25   C27   A    
C44   H39   S    
C38   N7    S    
C44   H38   S    
C13   C17   A    
O5    Zn1   S    
C2    N8    S    
C2    C3    S    
O4    Zn2   S    
C37   H12   S    
N7    H32   S    
N1    Zn1   S    
C39   H19   S    
C6    C23   S    
C43   H33   S    
C32   H5    S    
C42   H30   S    
C43   H35   S    
C31   N1    A    
N9    H40   S    
C10   C11   A    
O6    Zn2   S    
C23   O6    A    
C39   H18   S    
C44   H37   S    
C27   C28   A    
C14   C15   A    
C34   H9    S    
C13   C14   A    
C45   H43   S    
