data_mof_unit_3023.cif
_audit_creation_date              2012-12-10T17:16:35-0500
_audit_creation_method            fapswitch 2.2
_symmetry_space_group_name_H-M    P1
_symmetry_Int_Tables_number       1
_space_group_crystal_system       triclinic
_cell_length_a                    10.065515
_cell_length_b                    10.540376
_cell_length_c                    10.888667
_cell_angle_alpha                 90.136759
_cell_angle_beta                  96.166534
_cell_angle_gamma                 82.364081
_cell_volume                      1138.27377107

loop_
_atom_site_label
_atom_site_type_symbol
_atom_type_description
_atom_site_fract_x
_atom_site_fract_y
_atom_site_fract_z
_atom_type_partial_charge
Br1   Br    Br    0.636267 0.201721 0.223838 -0.450472
Br2   Br    Br    0.363733 0.798279 0.776162 -0.450475
Br3   Br    Br    0.955108 0.051281 0.260288 -0.410170
Br4   Br    Br    0.044892 0.948718 0.739711 -0.410172
C1    C     C_R   0.442201 0.509620 0.267489 0.874924
C2    C     C_R   0.507268 0.739077 0.518757 0.905174
C3    C     C_R   0.692902 0.078696 0.355977 0.249177
C4    C     C_R   0.307098 0.921304 0.644023 0.249177
C5    C     C_R   0.822299 0.008242 0.361198 0.284400
C6    C     C_R   0.177701 0.991758 0.638801 0.284401
C7    C     C_R   0.856477 0.903423 0.441362 -0.204602
C8    C     C_R   0.143523 0.096577 0.558637 -0.204602
C9    C     C_R   0.759106 0.861429 0.507220 -0.119944
C10   C     C_R   0.240894 0.138571 0.492779 -0.119944
C11   C     C_R   0.626373 0.926152 0.496543 0.050519
C12   C     C_R   0.557799 0.490379 0.732511 0.874922
C13   C     C_R   0.373627 0.073848 0.503457 0.050518
C14   C     C_R   0.599582 0.044770 0.435411 -0.027399
C15   C     C_R   0.400418 0.955230 0.564589 -0.027400
C16   C     C_R   0.518670 0.874460 0.542544 -0.152685
C17   C     C_R   0.481330 0.125540 0.457456 -0.152683
C18   C     C_2   0.405852 0.503984 0.135137 0.201324
C19   C     C_2   0.594147 0.496009 0.864863 0.201301
C20   C     C_2   0.498993 0.527764 0.062244 0.384524
C21   C     C_2   0.501003 0.472235 0.937755 0.384516
C22   C     C_2   0.071006 0.492745 0.486722 -0.107847
C23   C     C_2   0.928994 0.507255 0.513278 -0.107847
C24   C     C_R   0.492732 0.260923 0.481243 0.905169
H1    H     H_    0.042776 0.148891 0.550920 0.187845
H2    H     H_    0.590479 0.674098 0.043003 0.379811
H3    H     H_    0.765894 0.555459 0.844723 0.356269
H4    H     H_    0.234107 0.444528 0.155282 0.356267
H5    H     H_    0.957224 0.851109 0.449080 0.187844
H6    H     H_    0.788352 0.779283 0.567963 0.168269
H7    H     H_    0.211648 0.220717 0.432037 0.168269
H8    H     H_    0.896536 0.568008 0.587852 0.154113
H9    H     H_    0.103464 0.431992 0.412148 0.154112
H10   H     H_    0.876311 0.391523 0.378461 0.213491
H11   H     H_    0.123689 0.608477 0.621539 0.213492
H12   H     H_    0.409523 0.325896 0.956987 0.379807
N1    N     N_2   0.157300 0.551390 0.551120 -0.173913
N2    N     N_2   0.842700 0.448610 0.448880 -0.173913
O1    O     O_R   0.568940 0.489660 0.307530 -0.526623
O2    O     O_3   0.593024 0.606105 0.106297 -0.702248
O3    O     O_3   0.715634 0.533466 0.913362 -0.719028
O4    O     O_3   0.284369 0.466516 0.086642 -0.719024
O5    O     O_R   0.431060 0.510340 0.692470 -0.526622
O6    O     O_R   0.348880 0.522640 0.340350 -0.638179
O7    O     O_R   0.651120 0.477360 0.659650 -0.638177
O8    O     O_R   0.610030 0.300280 0.483580 -0.585581
O9    O     O_R   0.389970 0.699720 0.516420 -0.585580
O10   O     O_R   0.389970 0.333270 0.516400 -0.614788
O11   O     O_R   0.610030 0.666730 0.483600 -0.614787
O12   O     O_3   0.406966 0.393900 0.893700 -0.702233
Zn1   Zn    Zn3+2 0.646940 0.477980 0.478080 1.023649
Zn2   Zn    Zn3+2 0.353060 0.522020 0.521920 1.023649

loop_
_geom_bond_atom_site_label_1
_geom_bond_atom_site_label_2
_ccdc_geom_bond_type
C11   C14   A    
C20   C21   S    
C22   H9    S    
C19   O3    S    
N2    Zn1   S    
C14   C17   A    
C5    C7    A    
O8    Zn1   S    
C10   C13   A    
C24   O10   A    
C3    C14   A    
H4    O4    S    
C9    C11   A    
C1    O1    A    
C9    H6    S    
N1    Zn2   S    
O7    Zn1   S    
C12   O7    A    
C7    C9    A    
C23   N2    D    
H2    O2    S    
C22   C23   S    
C6    C8    A    
Br3   C5    S    
C12   O5    A    
O1    Zn1   S    
C18   O4    S    
C17   C24   S    
C8    C10   A    
H10   N2    S    
C12   C19   S    
H12   O12   S    
O11   Zn1   S    
C11   C16   A    
C20   O2    S    
C1    O6    A    
C18   C20   D    
C4    C15   A    
C2    O11   A    
Br4   C6    S    
C3    C5    A    
C7    H5    S    
C19   C21   D    
C2    C16   S    
C21   O12   S    
H11   N1    S    
O9    Zn2   S    
H3    O3    S    
C2    O9    A    
Br2   C4    S    
C10   H7    S    
O6    Zn2   S    
C13   C15   A    
Br1   C3    S    
O10   Zn2   S    
C24   O8    A    
C23   H8    S    
C4    C6    A    
C13   C17   A    
C1    C18   S    
C15   C16   A    
C22   N1    D    
O5    Zn2   S    
C8    H1    S    
