data_mof_unit_793.cif
_audit_creation_date              2012-12-10T20:28:41-0500
_audit_creation_method            fapswitch 2.2
_symmetry_space_group_name_H-M    P1
_symmetry_Int_Tables_number       1
_space_group_crystal_system       triclinic
_cell_length_a                    10.633798
_cell_length_b                    10.665116
_cell_length_c                    9.864887
_cell_angle_alpha                 89.781279
_cell_angle_beta                  89.873525
_cell_angle_gamma                 89.827554
_cell_volume                      1118.76771699

loop_
_atom_site_label
_atom_site_type_symbol
_atom_type_description
_atom_site_fract_x
_atom_site_fract_y
_atom_site_fract_z
_atom_type_partial_charge
C1    C     C_R   0.504986 0.259953 0.500258 0.915925
C2    C     C_R   0.065221 0.611627 0.565385 0.096983
C3    C     C_R   0.128149 0.512079 0.499929 -0.097675
C4    C     C_R   0.064636 0.418300 0.430777 -0.218879
C5    C     C_R   0.936174 0.418362 0.430491 -0.204456
C6    C     C_R   0.871634 0.512299 0.499199 -0.089755
C7    C     C_R   0.531617 0.063383 0.623092 0.140974
C8    C     C_R   0.528848 0.128916 0.500947 -0.203462
C9    C     C_R   0.554351 0.066185 0.379283 -0.314737
C10   C     C_R   0.555217 0.936513 0.378210 0.616369
C11   C     C_R   0.529983 0.871342 0.499645 -0.251690
C12   C     C_R   0.260448 0.503542 0.500126 0.866248
C13   C     C_R   0.532340 0.935489 0.622497 0.041389
C14   C     C_3   0.447175 0.927660 0.743115 -0.430733
C15   C     C_3   0.446016 0.069812 0.743240 -0.457461
C16   C     C_R   0.437061 0.409187 0.071730 0.209570
C17   C     C_R   0.571426 0.582474 0.071437 -0.081323
C18   C     C_R   0.571349 0.582579 0.927434 -0.129122
C19   C     C_R   0.437046 0.409216 0.929204 0.212124
C20   C     C_3   0.299385 0.383681 0.923966 -0.498640
C21   C     C_3   0.299437 0.383509 0.077910 -0.501481
C22   C     C_R   0.505659 0.740136 0.499655 0.890774
C23   C     C_R   0.739496 0.503466 0.499824 0.860501
C24   C     C_R   0.129801 0.712062 0.627166 -0.190209
C25   C     C_R   0.063643 0.809756 0.688561 -0.137172
C26   C     C_R   0.932799 0.809946 0.688043 -0.129198
C27   C     C_R   0.867697 0.712450 0.626202 -0.182983
C28   C     C_R   0.933407 0.611800 0.564920 0.098367
H1    H     H_    0.114869 0.343503 0.379476 0.150755
H2    H     H_    0.495184 0.886393 0.832878 0.217299
H3    H     H_    0.352470 0.110680 0.718403 0.191376
H4    H     H_    0.493050 0.110823 0.833243 0.207949
H5    H     H_    0.627307 0.650529 0.125332 0.196643
H6    H     H_    0.627000 0.650859 0.872661 0.150966
H7    H     H_    0.244841 0.462814 0.879469 0.228627
H8    H     H_    0.278696 0.290253 0.879970 0.196540
H9    H     H_    0.244796 0.462455 0.122220 0.228936
H10   H     H_    0.279003 0.289941 0.122678 0.200489
H11   H     H_    0.231216 0.717138 0.626664 0.144262
H12   H     H_    0.113966 0.886222 0.735403 0.133572
H13   H     H_    0.881539 0.886494 0.734429 0.140474
H14   H     H_    0.766221 0.718051 0.625190 0.143413
H15   H     H_    0.886736 0.343485 0.379198 0.154423
H16   H     H_    0.564112 0.116194 0.284041 0.195555
H17   H     H_    0.354198 0.886390 0.719068 0.191556
N1    N     N_R   0.499160 0.499140 0.142800 -0.114319
N2    N     N_R   0.499160 0.499180 0.857150 -0.108602
O1    O     O_R   0.500020 0.316790 0.614690 -0.612180
O2    O     O_R   0.500000 0.316760 0.385350 -0.627128
O3    O     O_R   0.316770 0.500020 0.614690 -0.626013
O4    O     O_R   0.316760 0.499980 0.385350 -0.616183
O5    O     O_R   0.500000 0.683240 0.614650 -0.640446
O6    O     O_R   0.499980 0.683210 0.385310 -0.551449
O7    O     O_R   0.683240 0.500020 0.614650 -0.623661
O8    O     O_R   0.683230 0.499980 0.385310 -0.616903
Zn1   Zn    Zn3+2 0.500010 0.500020 0.653130 0.937112
Zn2   Zn    Zn3+2 0.499990 0.499980 0.346870 0.972132
F1    F     F_    0.569838 0.876999 0.257730 -0.675441

loop_
_geom_bond_atom_site_label_1
_geom_bond_atom_site_label_2
_ccdc_geom_bond_type
C8    C9    A    
C12   O3    A    
C24   C25   A    
C1    O1    A    
C23   O8    A    
C16   C21   S    
O4    Zn2   S    
C22   O6    A    
C1    C8    S    
C18   H6    S    
C9    C10   A    
C11   C22   S    
C4    H1    S    
C18   N2    A    
C24   H11   S    
C7    C15   S    
C17   C18   A    
C5    H15   S    
C21   H9    S    
C7    C8    A    
C25   H12   S    
C13   C14   S    
C20   C21   S    
C15   H3    S    
C11   C13   A    
C27   H14   S    
C26   C27   A    
C17   H5    S    
C14   H2    S    
C16   C19   A    
C6    C23   S    
C10   F1    S    
C2    C3    A    
C14   H17   S    
O7    Zn1   S    
O8    Zn2   S    
N1    Zn2   S    
C2    C24   A    
C5    C6    A    
C19   N2    A    
C10   C11   A    
O5    Zn1   S    
C3    C4    A    
C20   H8    S    
O3    Zn1   S    
C7    C13   A    
C12   O4    A    
O2    Zn2   S    
C17   N1    A    
C23   O7    A    
C22   O5    A    
C16   N1    A    
C27   C28   A    
O1    Zn1   S    
O6    Zn2   S    
C14   C15   S    
C4    C5    A    
C9    H16   S    
C2    C28   A    
C3    C12   S    
C25   C26   A    
C20   H7    S    
C1    O2    A    
C6    C28   A    
C21   H10   S    
C19   C20   S    
C26   H13   S    
N2    Zn1   S    
C15   H4    S    
