data_mof_unit_4568.cif
_audit_creation_date              2012-12-10T17:25:29-0500
_audit_creation_method            fapswitch 2.2
_symmetry_space_group_name_H-M    P1
_symmetry_Int_Tables_number       1
_space_group_crystal_system       triclinic
_cell_length_a                    10.150194
_cell_length_b                    10.879783
_cell_length_c                    23.443913
_cell_angle_alpha                 90.043176
_cell_angle_beta                  80.434595
_cell_angle_gamma                 95.052338
_cell_volume                      2542.78760663

loop_
_atom_site_label
_atom_site_type_symbol
_atom_type_description
_atom_site_fract_x
_atom_site_fract_y
_atom_site_fract_z
_atom_type_partial_charge
C1    C     C_R   0.556034 0.732261 0.495787 0.944080
C2    C     C_R   0.601991 0.440626 0.291867 -0.257598
C3    C     C_R   0.395368 0.565762 0.768069 -0.005720
C4    C     C_R   0.605332 0.430542 0.232250 -0.006499
C5    C     C_R   0.493422 0.509396 0.792428 0.234311
C6    C     C_R   0.505625 0.483459 0.207642 0.236875
C7    C     C_2   0.587969 0.863582 0.491751 -0.368621
C8    C     C_2   0.412067 0.136468 0.504291 -0.368016
C9    C     C_2   0.486690 0.934622 0.496924 -0.154912
C10   C     C_2   0.513187 0.065423 0.493727 -0.152897
C11   C     C_2   0.925975 0.505853 0.505615 -0.124950
C12   C     C_R   0.443985 0.267764 0.503407 0.942105
C13   C     C_2   0.073923 0.493498 0.494638 -0.126755
C14   C     C_R   0.499135 0.497874 0.610757 0.873084
C15   C     C_R   0.500777 0.501796 0.389219 0.871491
C16   C     C_R   0.420638 0.401887 0.124315 0.578638
C17   C     C_R   0.579219 0.590069 0.875699 0.565390
C18   C     C_R   0.591720 0.570253 0.113298 0.553771
C19   C     C_R   0.408345 0.421539 0.886675 0.554367
C20   C     C_R   0.591027 0.576517 0.053883 -0.016496
C21   C     C_R   0.409336 0.414989 0.946067 -0.015182
C22   C     C_R   0.501949 0.493088 0.029772 -0.015985
C23   C     C_R   0.591516 0.447678 0.757867 -0.155965
C24   C     C_R   0.498447 0.498386 0.970181 -0.015368
C25   C     C_R   0.416038 0.404663 0.065138 -0.022148
C26   C     C_R   0.584213 0.586941 0.934833 -0.019764
C27   C     C_R   0.676120 0.664299 0.018312 -0.142485
C28   C     C_R   0.324338 0.327127 0.981630 -0.142903
C29   C     C_R   0.672769 0.669446 0.959254 -0.143160
C30   C     C_R   0.327610 0.322050 0.040701 -0.142644
C31   C     C_2   0.118998 0.649894 0.560825 1.005100
C32   C     C_2   0.881083 0.350720 0.438793 1.003370
C33   C     C_R   0.697321 0.366755 0.664895 0.125876
C34   C     C_R   0.405956 0.543990 0.241875 -0.156327
C35   C     C_R   0.658992 0.260526 0.635319 -0.094967
C36   C     C_R   0.756463 0.193441 0.603247 -0.104734
C37   C     C_R   0.892541 0.231044 0.600978 -0.069277
C38   C     C_R   0.931445 0.335765 0.630777 -0.137681
C39   C     C_R   0.834346 0.403412 0.662721 -0.151017
C40   C     C_R   0.298287 0.625935 0.334247 0.125396
C41   C     C_R   0.161914 0.586399 0.336443 -0.149133
C42   C     C_R   0.062911 0.653343 0.367503 -0.138537
C43   C     C_R   0.099225 0.760178 0.396425 -0.068443
C44   C     C_R   0.234609 0.800685 0.394083 -0.104699
C45   C     C_R   0.594543 0.439188 0.698469 -0.020607
C46   C     C_R   0.333999 0.734292 0.362906 -0.096084
C47   C     C_2   0.289405 0.633518 0.803210 0.948774
C48   C     C_2   0.712437 0.363989 0.197131 0.953940
C49   C     C_R   0.403044 0.554815 0.301194 -0.020592
C50   C     C_R   0.497651 0.496518 0.673301 -0.114445
C51   C     C_R   0.501869 0.501149 0.326663 -0.110731
C52   C     C_R   0.398973 0.558068 0.708406 -0.252895
H1    H     H_    0.745348 0.729259 0.035963 0.197356
H2    H     H_    0.382349 0.896599 0.504599 0.198517
H3    H     H_    0.308098 0.097984 0.513963 0.158127
H4    H     H_    0.692080 0.902033 0.484501 0.157626
H5    H     H_    0.115309 0.430473 0.462145 0.196288
H6    H     H_    0.884567 0.568461 0.538312 0.195327
H7    H     H_    0.030651 0.809268 0.572303 0.336124
H8    H     H_    0.969213 0.191324 0.426730 0.336863
H9    H     H_    0.553861 0.230447 0.636774 0.120180
H10   H     H_    0.726523 0.112259 0.580185 0.137234
H11   H     H_    0.967867 0.179096 0.576103 0.157714
H12   H     H_    0.255119 0.262162 0.963976 0.196847
H13   H     H_    0.036866 0.364924 0.628861 0.161977
H14   H     H_    0.865786 0.484959 0.685246 0.168153
H15   H     H_    0.132458 0.503289 0.314543 0.171565
H16   H     H_    0.958018 0.622082 0.369377 0.164589
H17   H     H_    0.022434 0.811582 0.420628 0.156733
H18   H     H_    0.262486 0.883707 0.416319 0.135896
H19   H     H_    0.438564 0.766725 0.361334 0.121844
H20   H     H_    0.115140 0.711892 0.806704 0.361567
H21   H     H_    0.779574 0.280167 0.122371 0.355724
H22   H     H_    0.739616 0.738130 0.932871 0.195949
H23   H     H_    0.260716 0.253408 0.067089 0.198181
H24   H     H_    0.664055 0.403389 0.778027 0.150472
H25   H     H_    0.332196 0.585844 0.221465 0.152233
H26   H     H_    0.326086 0.602944 0.688826 0.241115
H27   H     H_    0.676376 0.398278 0.311582 0.235176
H28   H     H_    0.617366 0.103496 0.483758 0.200512
N1    N     N_R   0.507702 0.483698 0.146814 -0.336897
N2    N     N_R   0.492063 0.508359 0.853208 -0.340179
N3    N     N_2   0.842710 0.448880 0.476480 -0.170192
N4    N     N_2   0.157290 0.551120 0.523520 -0.170551
O1    O     O_R   0.431060 0.692470 0.504730 -0.615377
O2    O     O_2   0.660455 0.673681 0.840788 -0.546336
O3    O     O_2   0.674820 0.650088 0.137654 -0.549999
O4    O     O_2   0.325125 0.341854 0.862307 -0.549477
O5    O     O_2   0.156556 0.657601 0.607659 -0.618501
O6    O     O_R   0.048356 0.742927 0.542312 -0.860421
O7    O     O_2   0.843810 0.344003 0.391885 -0.623486
O8    O     O_R   0.951449 0.257133 0.456985 -0.860543
O9    O     O_2   0.297089 0.662228 0.853058 -0.614986
O10   O     O_R   0.180342 0.666060 0.778806 -0.784927
O11   O     O_2   0.811817 0.342457 0.217333 -0.598838
O12   O     O_R   0.568940 0.307530 0.495270 -0.615952
O13   O     O_R   0.699999 0.324091 0.141409 -0.799963
O14   O     O_R   0.651120 0.659650 0.489640 -0.619766
O15   O     O_R   0.348880 0.340350 0.510360 -0.619637
O16   O     O_R   0.389950 0.516450 0.591390 -0.590172
O17   O     O_R   0.610050 0.483550 0.408610 -0.591378
O18   O     O_R   0.610020 0.483630 0.576300 -0.619483
O19   O     O_R   0.389980 0.516370 0.423700 -0.620554
O20   O     O_2   0.339157 0.318496 0.159255 -0.537241
Zn1   Zn    Zn3+2 0.353060 0.521920 0.510080 0.983693
Zn2   Zn    Zn3+2 0.646940 0.478080 0.489920 0.982938

loop_
_geom_bond_atom_site_label_1
_geom_bond_atom_site_label_2
_ccdc_geom_bond_type
C23   C45   A    
C48   O11   D    
C27   C29   A    
C33   C45   S    
C41   C42   A    
C35   C36   A    
C23   H24   S    
C49   C51   A    
C41   H15   S    
C32   O8    S    
C40   C46   A    
C48   O13   S    
C13   N4    D    
O16   Zn1   S    
C33   C39   A    
C17   C26   A    
C36   C37   A    
C19   C21   A    
C24   C26   A    
C34   H25   S    
C38   C39   A    
C52   H26   S    
C14   O18   A    
C32   O7    D    
C13   H5    S    
C40   C49   S    
O17   Zn2   S    
C18   N1    A    
C17   N2    A    
C12   O15   A    
C2    H27   S    
C16   O20   S    
C31   O5    D    
C22   C25   A    
C50   C52   A    
C44   H18   S    
C15   C51   S    
C19   N2    A    
C9    C10   S    
H20   O10   S    
C43   H17   S    
C6    N1    S    
C42   H16   S    
C7    H4    S    
O1    Zn1   S    
C8    H3    S    
C37   H11   S    
C44   C46   A    
H8    O8    S    
C1    O1    A    
O15   Zn1   S    
C17   O2    S    
C4    C6    A    
C19   O4    S    
C10   H28   S    
C29   H22   S    
C11   N3    D    
C31   N4    S    
C6    C34   A    
C36   H10   S    
H7    O6    S    
C2    C4    A    
C43   C44   A    
C37   C38   A    
C16   C25   A    
C5    C23   A    
C38   H13   S    
C8    C12   S    
C31   O6    S    
N4    Zn1   S    
C47   O9    D    
O19   Zn1   S    
C15   O17   A    
C46   H19   S    
C28   H12   S    
C40   C41   A    
C21   C28   A    
C20   C22   A    
H21   O13   S    
C39   H14   S    
C22   C24   A    
C42   C43   A    
C11   H6    S    
C4    C48   S    
C25   C30   A    
C7    C9    D    
C32   N3    S    
O12   Zn2   S    
C34   C49   A    
C1    C7    S    
C3    C5    A    
C1    O14   A    
C3    C52   A    
C27   H1    S    
C14   O16   A    
C20   C27   A    
C18   O3    S    
O14   Zn2   S    
N3    Zn2   S    
C28   C30   A    
C5    N2    S    
C11   C13   S    
C14   C50   S    
C45   C50   A    
C35   H9    S    
C3    C47   S    
C16   N1    A    
C33   C35   A    
C47   O10   S    
O18   Zn2   S    
C18   C20   A    
C2    C51   A    
C30   H23   S    
C26   C29   A    
C8    C10   D    
C21   C24   A    
C12   O12   A    
C9    H2    S    
C15   O19   A    
