data_mof_unit_3644.cif
_audit_creation_date              2012-10-26T21:06:57-0400
_audit_creation_method            fapswitch 2.2
_symmetry_space_group_name_H-M    P1
_symmetry_Int_Tables_number       1
_space_group_crystal_system       triclinic
_cell_length_a                    10.764957
_cell_length_b                    8.771628
_cell_length_c                    7.53628
_cell_angle_alpha                 103.175513
_cell_angle_beta                  95.022417
_cell_angle_gamma                 94.90599
_cell_volume                      686.136208098

loop_
_atom_site_label
_atom_site_type_symbol
_atom_type_description
_atom_site_fract_x
_atom_site_fract_y
_atom_site_fract_z
_atom_type_partial_charge
C1    C     C_R   0.493609 0.200253 0.452813 0.514141
C2    C     C_3   0.080869 0.498194 0.700297 -0.051971
C3    C     C_3   0.937986 0.500065 0.694665 -0.240535
C4    C     C_3   0.077178 0.639649 0.438265 -0.239878
C5    C     C_3   0.056555 0.343962 0.371005 -0.249326
C6    C     C_3   0.122310 0.497199 0.505207 0.009235
C7    C     C_2   0.145843 0.629077 0.856616 0.584931
C8    C     C_1   0.852020 0.308762 0.178571 0.217189
C9    C     C_1   0.452024 0.946082 0.232560 0.244228
C10   C     C_2   0.636508 0.664742 0.045515 0.773157
C11   C     C_3   0.877466 0.492078 0.497160 0.003333
C12   C     C_3   0.934160 0.638020 0.436409 -0.234830
C13   C     C_3   0.911842 0.337754 0.369163 -0.122660
C14   C     C_2   0.484064 0.032375 0.422667 -0.069014
C15   C     C_2   0.503418 0.967144 0.566921 -0.154374
C16   C     C_R   0.260236 0.498990 0.501531 0.520383
C17   C     C_R   0.502032 0.799651 0.545945 0.561752
C18   C     C_R   0.739445 0.495606 0.498513 0.556143
Cu1   Cu    Cu3+1 0.514070 0.517380 0.684380 1.067380
Cu2   Cu    Cu3+1 0.485930 0.482620 0.315620 1.045408
H1    H     H_    0.101218 0.633894 0.297085 0.153359
H2    H     H_    0.085109 0.337607 0.231025 0.168580
H3    H     H_    0.088727 0.239019 0.413559 0.100877
H4    H     H_    0.877688 0.235659 0.423199 0.101359
H5    H     H_    0.247575 0.684013 0.104233 0.347720
H6    H     H_    0.739372 0.811512 0.263623 0.292902
H7    H     H_    0.893331 0.635848 0.295226 0.160030
H8    H     H_    0.523920 0.039941 0.705757 0.150387
H9    H     H_    0.399322 0.376451 0.949024 0.236475
H10   H     H_    0.103761 0.385497 0.733346 0.115683
H11   H     H_    0.897953 0.397653 0.743328 0.137838
H12   H     H_    0.913822 0.607775 0.790087 0.187903
H13   H     H_    0.125125 0.752663 0.524698 0.162830
H14   H     H_    0.911705 0.748093 0.528906 0.143175
N1    N     N_2   0.464720 0.456420 0.038520 -0.232185
N2    N     N_2   0.535280 0.543580 0.961480 -0.134066
N3    N     N_1   0.804985 0.285736 0.029448 -0.291444
N4    N     N_1   0.426888 0.881856 0.079901 -0.239825
O1    O     O_R   0.509140 0.286130 0.619770 -0.534820
O2    O     O_R   0.213518 0.588938 0.002742 -0.696811
O3    O     O_2   0.692820 0.730665 0.945584 -0.508224
O4    O     O_R   0.673113 0.717144 0.231395 -0.673647
O5    O     O_R   0.485380 0.256770 0.308360 -0.501096
O6    O     O_R   0.329570 0.514650 0.655700 -0.498498
O7    O     O_R   0.305810 0.485300 0.344290 -0.505645
O8    O     O_R   0.514620 0.743230 0.691640 -0.449748
O9    O     O_R   0.490860 0.713870 0.380230 -0.460087
O10   O     O_R   0.694190 0.514700 0.655710 -0.487883
O11   O     O_R   0.670430 0.485350 0.344300 -0.451751
O12   O     O_2   0.136680 0.767391 0.858314 -0.528080

loop_
_geom_bond_atom_site_label_1
_geom_bond_atom_site_label_2
_ccdc_geom_bond_type
C16   O7    A    
C9    C14   S    
C11   C18   S    
Cu2   O11   S    
C4    C12   S    
C16   O6    A    
C7    O2    S    
C5    C13   S    
N1    N2    D    
C5    H3    S    
C2    H10   S    
C2    C3    S    
Cu1   O8    S    
C17   O8    A    
C10   O3    D    
C3    H11   S    
C4    H1    S    
C11   C13   S    
H6    O4    S    
C15   H8    S    
C2    C6    S    
Cu1   O1    S    
C5    C6    S    
C9    N4    T    
Cu1   N2    S    
H5    O2    S    
C3    H12   S    
C13   H4    S    
Cu2   O9    S    
C10   O4    S    
C8    N3    T    
C1    O1    A    
C12   H7    S    
C6    C16   S    
C8    C13   S    
C17   O9    A    
Cu2   O5    S    
C3    C11   S    
Cu1   O6    S    
C18   O11   A    
C4    C6    S    
Cu2   O7    S    
C7    O12   D    
C15   C17   S    
C4    H13   S    
H9    N1    S    
C14   C15   D    
C10   N2    S    
C1    C14   S    
C2    C7    S    
Cu1   O10   S    
Cu2   N1    S    
C12   H14   S    
C1    O5    A    
C5    H2    S    
Cu1   Cu2   S    
C11   C12   S    
C18   O10   A    
