data_mof_unit_4766.cif
_audit_creation_date              2013-03-05T15:44:23-0500
_audit_creation_method            fapswitch 2.2
_symmetry_space_group_name_H-M    P1
_symmetry_Int_Tables_number       1
_space_group_crystal_system       triclinic
_cell_length_a                    18.98802
_cell_length_b                    10.908205
_cell_length_c                    18.78361
_cell_angle_alpha                 89.996542
_cell_angle_beta                  90.163005
_cell_angle_gamma                 90.00038
_cell_volume                      3890.54350216

loop_
_atom_site_label
_atom_site_type_symbol
_atom_site_description
_atom_site_fract_x
_atom_site_fract_y
_atom_site_fract_z
_atom_type_partial_charge
O1    O     O_R   0.784320 0.290430 0.830510 -0.523203
O2    O     O_R   0.215680 0.290430 0.169490 -0.524101
O3    O     O_R   0.284320 0.790430 0.830510 -0.533694
O4    O     O_R   0.715680 0.790430 0.169490 -0.532643
O5    O     O_R   0.762640 0.040960 0.825200 -0.496146
O6    O     O_R   0.237360 0.040960 0.174800 -0.492169
O7    O     O_R   0.262640 0.540960 0.825200 -0.488814
O8    O     O_R   0.737360 0.540960 0.174800 -0.494853
C1    C     C_R   0.725775 0.958514 0.854949 0.551241
C2    C     C_R   0.274228 0.958529 0.145048 0.560880
C3    C     C_R   0.208907 0.502126 0.861133 0.562513
C4    C     C_R   0.791084 0.502108 0.138864 0.559474
O9    O     O_R   0.667400 0.923970 0.829950 -0.527448
O10   O     O_R   0.332600 0.923970 0.170050 -0.521932
O11   O     O_R   0.167400 0.423970 0.829950 -0.505844
O12   O     O_R   0.832600 0.423970 0.170050 -0.513496
O13   O     O_R   0.553960 0.081340 0.821780 -0.501911
O14   O     O_R   0.446040 0.081340 0.178220 -0.501473
O15   O     O_R   0.053960 0.581340 0.821780 -0.515973
O16   O     O_R   0.946040 0.581340 0.178220 -0.516318
C5    C     C_R   0.529616 0.177544 0.850797 0.557172
C6    C     C_R   0.470384 0.177548 0.149203 0.557858
C7    C     C_R   0.029225 0.677680 0.850596 0.546421
C8    C     C_R   0.970770 0.677685 0.149400 0.545853
O17   O     O_R   0.543180 0.283240 0.826740 -0.506620
O18   O     O_R   0.456820 0.283240 0.173260 -0.504489
O19   O     O_R   0.043180 0.783240 0.826740 -0.508968
O20   O     O_R   0.956820 0.783240 0.173260 -0.510960
O21   O     O_R   0.678360 0.375140 0.822710 -0.504269
O22   O     O_R   0.321640 0.375140 0.177290 -0.501162
O23   O     O_R   0.178360 0.875140 0.822710 -0.504018
O24   O     O_R   0.821640 0.875140 0.177290 -0.507145
C9    C     C_R   0.739196 0.366506 0.851999 0.544069
C10   C     C_R   0.260804 0.366511 0.148001 0.545664
C11   C     C_R   0.238307 0.864828 0.852515 0.539868
C12   C     C_R   0.761694 0.864832 0.147485 0.538144
O25   O     O_R   0.785050 0.289380 0.670560 -0.523860
O26   O     O_R   0.214950 0.289380 0.329440 -0.530227
O27   O     O_R   0.285050 0.789380 0.670560 -0.529030
O28   O     O_R   0.714950 0.789380 0.329440 -0.522275
O29   O     O_R   0.763320 0.039990 0.676930 -0.487068
O30   O     O_R   0.236680 0.039990 0.323070 -0.473532
O31   O     O_R   0.263320 0.539990 0.676930 -0.466320
O32   O     O_R   0.736680 0.539990 0.323070 -0.481634
C13   C     C_R   0.727896 0.955370 0.647364 0.561943
C14   C     C_R   0.290602 0.002372 0.360086 0.564728
C15   C     C_R   0.209405 0.502366 0.639910 0.567664
C16   C     C_R   0.772103 0.455354 0.352634 0.571873
O33   O     O_R   0.668130 0.922920 0.670000 -0.523736
O34   O     O_R   0.331870 0.922920 0.330000 -0.504451
O35   O     O_R   0.168130 0.422920 0.670000 -0.497723
O36   O     O_R   0.831870 0.422920 0.330000 -0.519618
O37   O     O_R   0.554640 0.080370 0.673500 -0.514245
O38   O     O_R   0.445360 0.080370 0.326500 -0.534448
O39   O     O_R   0.054640 0.580370 0.673500 -0.533781
O40   O     O_R   0.945360 0.580370 0.326500 -0.513641
C17   C     C_R   0.528823 0.176460 0.644618 0.570241
C18   C     C_R   0.472775 0.176426 0.354064 0.561765
C19   C     C_R   0.027268 0.676453 0.645896 0.561727
C20   C     C_R   0.971243 0.676435 0.355325 0.570727
O41   O     O_R   0.543920 0.282180 0.666790 -0.444089
O42   O     O_R   0.456080 0.282180 0.333210 -0.443575
O43   O     O_R   0.043920 0.782180 0.666790 -0.442478
O44   O     O_R   0.956080 0.782180 0.333210 -0.443022
O45   O     O_R   0.679040 0.374160 0.674430 -0.492716
O46   O     O_R   0.320960 0.374160 0.325570 -0.495214
O47   O     O_R   0.179040 0.874160 0.674430 -0.491462
O48   O     O_R   0.820960 0.874160 0.325570 -0.489273
C21   C     C_R   0.739072 0.360285 0.645426 0.542763
C22   C     C_R   0.259763 0.364748 0.353110 0.534107
C23   C     C_R   0.240244 0.864756 0.646892 0.537452
C24   C     C_R   0.760942 0.860238 0.354587 0.546238
Cr1   Cr    Cr6+3 0.769270 0.163730 0.750710 1.049918
Cr2   Cr    Cr6+3 0.230730 0.163730 0.249290 1.048355
Cr3   Cr    Cr6+3 0.269270 0.663730 0.750710 1.046658
Cr4   Cr    Cr6+3 0.730730 0.663730 0.249290 1.047897
Cr5   Cr    Cr6+3 0.612620 0.009790 0.748780 1.025474
Cr6   Cr    Cr6+3 0.387380 0.009790 0.251220 1.023480
Cr7   Cr    Cr6+3 0.112620 0.509790 0.748780 1.020566
Cr8   Cr    Cr6+3 0.887380 0.509790 0.251220 1.021719
Cr9   Cr    Cr6+3 0.614160 0.322500 0.747710 1.077207
Cr10  Cr    Cr6+3 0.385840 0.322500 0.252290 1.073323
Cr11  Cr    Cr6+3 0.114160 0.822500 0.747710 1.066412
Cr12  Cr    Cr6+3 0.885840 0.822500 0.252290 1.070114
O49   O     O_3   0.665350 0.165340 0.749070 -0.261831
O50   O     O_3   0.334650 0.165340 0.250930 -0.282834
O51   O     O_3   0.165350 0.665340 0.749070 -0.302492
O52   O     O_3   0.834650 0.665340 0.250930 -0.281444
C25   C     C_2   0.497384 0.168616 0.921155 -0.102676
C26   C     C_2   0.502617 0.168625 0.078847 -0.103658
C27   C     C_2   0.997277 0.670110 0.921218 -0.106771
C28   C     C_2   0.002708 0.670120 0.078773 -0.105798
C29   C     C_2   0.492919 0.068394 0.038421 -0.164364
C30   C     C_2   0.507086 0.068391 0.961590 -0.164245
C31   C     C_2   0.995363 0.568780 0.038918 -0.165134
C32   C     C_2   0.004622 0.568775 0.961082 -0.165297
H1    H     H_    0.473355 0.984070 0.061685 0.141984
H2    H     H_    0.526648 0.984067 0.938332 0.141837
H3    H     H_    0.981740 0.482606 0.063924 0.136340
H4    H     H_    0.018247 0.482601 0.936086 0.136483
H5    H     H_    0.525213 0.251305 0.056129 0.112243
H6    H     H_    0.474787 0.251294 0.943866 0.112505
H7    H     H_    0.021838 0.754795 0.055381 0.106257
H8    H     H_    0.978142 0.754783 0.944602 0.106071
C33   C     C_R   0.704263 0.492104 0.957631 -0.138402
C34   C     C_R   0.295725 0.492142 0.042369 -0.137460
C35   C     C_R   0.190769 0.952226 0.964271 -0.133364
C36   C     C_R   0.809247 0.952169 0.035715 -0.133961
H9    H     H_    0.653974 0.514519 0.933602 0.127845
H10   H     H_    0.346015 0.514558 0.066396 0.128416
H11   H     H_    0.140139 0.970014 0.939653 0.133320
H12   H     H_    0.859884 0.969919 0.060326 0.132908
C37   C     C_R   0.716455 0.521629 0.028951 -0.128491
C38   C     C_R   0.283528 0.521677 0.971050 -0.128364
C39   C     C_R   0.197314 0.962782 0.037819 -0.136395
C40   C     C_R   0.802701 0.962711 0.962165 -0.136187
H13   H     H_    0.675918 0.569878 0.058147 0.137623
H14   H     H_    0.324063 0.569935 0.941851 0.137370
H15   H     H_    0.153013 0.995350 0.068715 0.126942
H16   H     H_    0.847008 0.995233 0.931261 0.126872
C41   C     C_R   0.778802 0.482277 0.062858 0.028034
C42   C     C_R   0.221183 0.482314 0.937144 0.026830
C43   C     C_R   0.260935 0.930340 0.070848 0.033173
C44   C     C_R   0.739069 0.930314 0.929146 0.034879
C45   C     C_R   0.831016 0.424280 0.023196 -0.131429
C46   C     C_R   0.168972 0.424309 0.976810 -0.131399
C47   C     C_R   0.318389 0.892448 0.029697 -0.131697
C48   C     C_R   0.681607 0.892476 0.970307 -0.131056
H17   H     H_    0.878977 0.392218 0.047871 0.122348
H18   H     H_    0.121013 0.392239 0.952136 0.122266
H19   H     H_    0.368609 0.868816 0.053329 0.127857
H20   H     H_    0.631380 0.868877 0.946681 0.127896
C49   C     C_R   0.820507 0.400394 0.951966 -0.122618
C50   C     C_R   0.179484 0.400417 0.048040 -0.122309
C51   C     C_R   0.313067 0.888115 0.956960 -0.133127
C52   C     C_R   0.686931 0.888161 0.043044 -0.133414
H21   H     H_    0.861828 0.352008 0.923937 0.136824
H22   H     H_    0.138166 0.352023 0.076072 0.136574
H23   H     H_    0.358613 0.857739 0.927105 0.133452
H24   H     H_    0.641379 0.857829 0.072908 0.133601
C53   C     C_R   0.755447 0.427070 0.919562 0.028079
C54   C     C_R   0.244546 0.427092 0.080441 0.028620
C55   C     C_R   0.248491 0.912204 0.923845 0.033696
C56   C     C_R   0.751516 0.912207 0.076151 0.033108
C57   C     C_R   0.496527 0.282762 0.534173 0.197059
C58   C     C_R   0.511223 0.282880 0.461924 0.198696
C59   C     C_R   0.989413 0.783016 0.537832 0.199053
C60   C     C_R   0.004084 0.782660 0.465591 0.197290
C61   C     C_R   0.504944 0.171158 0.424333 -0.014082
C62   C     C_R   0.502305 0.170950 0.571982 -0.016176
C63   C     C_R   0.997977 0.670839 0.427871 -0.017098
C64   C     C_R   0.995316 0.671303 0.575524 -0.015290
C65   C     C_R   0.505303 0.059640 0.461125 -0.195505
C66   C     C_R   0.506615 0.059620 0.534874 -0.189168
C67   C     C_R   0.993473 0.559590 0.465055 -0.189487
C68   C     C_R   0.994760 0.559726 0.538806 -0.195902
H25   H     H_    0.502712 0.973144 0.432940 0.149760
H26   H     H_    0.511732 0.973116 0.562750 0.156179
H27   H     H_    0.988141 0.473069 0.437240 0.156133
H28   H     H_    0.997123 0.473260 0.567053 0.149676
C69   C     C_R   0.798554 0.329354 0.532030 -0.133799
C70   C     C_R   0.177585 0.403203 0.452151 -0.126509
C71   C     C_R   0.322401 0.902922 0.547796 -0.126762
C72   C     C_R   0.701607 0.829019 0.468036 -0.134014
H29   H     H_    0.836012 0.267889 0.556853 0.147927
H30   H     H_    0.135803 0.356698 0.423519 0.147147
H31   H     H_    0.364133 0.856176 0.576375 0.147293
H32   H     H_    0.664239 0.767357 0.443246 0.147897
C73   C     C_R   0.799720 0.337924 0.459259 -0.140104
C74   C     C_R   0.166712 0.431104 0.523077 -0.129792
C75   C     C_R   0.333270 0.930849 0.476876 -0.129854
C76   C     C_R   0.700435 0.837673 0.540806 -0.139949
H33   H     H_    0.839214 0.285908 0.430680 0.145826
H34   H     H_    0.117012 0.406174 0.547056 0.140191
H35   H     H_    0.382922 0.905711 0.452864 0.140304
H36   H     H_    0.661031 0.785504 0.569425 0.145406
C77   C     C_R   0.754313 0.419116 0.424542 0.041160
C78   C     C_R   0.220570 0.484409 0.563512 0.018191
C79   C     C_R   0.279463 0.984429 0.436488 0.019518
C80   C     C_R   0.745712 0.919139 0.575467 0.042525
C81   C     C_R   0.704172 0.485636 0.463608 -0.083724
C82   C     C_R   0.283608 0.519608 0.530122 -0.093193
C83   C     C_R   0.216507 0.019920 0.469936 -0.092905
C84   C     C_R   0.795742 0.985859 0.536356 -0.082497
H37   H     H_    0.669384 0.550436 0.437795 0.174212
H38   H     H_    0.324990 0.565580 0.559560 0.184602
H39   H     H_    0.175176 0.066123 0.440538 0.184698
H40   H     H_    0.830405 0.050912 0.562121 0.174219
C85   C     C_R   0.700723 0.472434 0.537093 -0.121884
C86   C     C_R   0.295248 0.488926 0.459011 -0.111772
C87   C     C_R   0.204883 0.989264 0.541057 -0.111252
C88   C     C_R   0.799244 0.972514 0.462886 -0.121490
H41   H     H_    0.661333 0.522543 0.566767 0.168139
H42   H     H_    0.345845 0.509011 0.435395 0.186196
H43   H     H_    0.154366 0.009665 0.564744 0.187146
H44   H     H_    0.838605 0.022690 0.433193 0.168004
C89   C     C_R   0.748477 0.394838 0.571605 0.021523
C90   C     C_R   0.243308 0.425528 0.420595 0.017669
C91   C     C_R   0.256736 0.925537 0.579409 0.017686
C92   C     C_R   0.751572 0.894705 0.428420 0.021189
N1    N     N_R   0.478347 0.395384 0.569550 0.110614
O53   O     O_R   0.521882 0.487510 0.569719 -0.318613
O54   O     O_R   0.423398 0.398817 0.610727 -0.340347
N2    N     N_R   0.527854 0.395730 0.425742 0.104533
O55   O     O_R   0.486615 0.490524 0.431124 -0.315506
O56   O     O_R   0.577085 0.396486 0.377686 -0.354587
N3    N     N_R   0.973090 0.896107 0.573873 0.105590
O57   O     O_R   0.014764 0.990367 0.568718 -0.315653
O58   O     O_R   0.923192 0.897838 0.621288 -0.358278
N4    N     N_R   0.022324 0.895155 0.430096 0.110478
O59   O     O_R   0.978941 0.987510 0.430059 -0.317563
O60   O     O_R   0.077175 0.898316 0.388773 -0.343455

loop_
_geom_bond_atom_site_label_1
_geom_bond_atom_site_label_2
_geom_bond_distance
_ccdc_geom_bond_type
C18   O42   1.258548 A    
Cr11  O51   1.970849 S    
O4    C12   1.262896 A    
O47   Cr11  1.933759 S    
C29   C30   1.468774 S    
C85   H41   1.082249 S    
O39   C19   1.279011 A    
C25   H6    1.086530 S    
O20   Cr12  2.053047 S    
N1    O53   1.301224 A    
O15   C7    1.272586 A    
C31   C32   1.473072 S    
C60   C63   1.415236 A    
C27   H8    1.085809 S    
C52   H24   1.083968 S    
C61   C65   1.399035 A    
Cr6   O50   1.970160 S    
O26   C22   1.263140 A    
C57   C58   1.386278 A    
O1    C9    1.260059 A    
O27   Cr3   2.058455 S    
C5    C25   1.461226 S    
C19   C64   1.453948 S    
O7    C3    1.296097 A    
O5    C1    1.270108 A    
C34   C38   1.396508 A    
C88   H44   1.082389 S    
C33   C37   1.396506 A    
C87   C91   1.402684 A    
C66   H26   1.083350 S    
C15   C78   1.464370 S    
C60   N4    1.439276 S    
C48   C52   1.370513 A    
C82   H38   1.082697 S    
C52   C56   1.398254 A    
C31   H3    1.082475 S    
C24   C92   1.448386 S    
C76   C80   1.396272 A    
C30   H2    1.084381 S    
C45   C49   1.377070 A    
C77   C81   1.405523 A    
O21   C9    1.281521 A    
O8    Cr4   1.941205 S    
C1    C44   1.448680 S    
O23   Cr11  1.946973 S    
O30   C14   1.302330 A    
C73   C77   1.396327 A    
C25   C30   1.343562 D    
O32   Cr4   1.937564 S    
C1    O9    1.260227 A    
O44   Cr12  2.066627 S    
C58   N2    1.441550 S    
C59   C60   1.386028 A    
C27   C32   1.342137 D    
C70   H30   1.083321 S    
C3    O11   1.299424 A    
O11   Cr7   2.067299 S    
C4    C41   1.462029 S    
C64   C68   1.399000 A    
O28   Cr4   2.058578 S    
C84   C88   1.389484 A    
C34   C54   1.401130 A    
C7    O19   1.263923 A    
C71   C75   1.382566 A    
C40   H16   1.083220 S    
Cr4   O52   1.973466 S    
O47   C23   1.277531 A    
C57   C62   1.415437 A    
O2    Cr2   2.058131 S    
C18   C61   1.453958 S    
O48   C24   1.273737 A    
C44   C48   1.401185 A    
C69   C73   1.370339 A    
Cr9   O49   1.970849 S    
O2    C10   1.260045 A    
C51   C55   1.398256 A    
O42   Cr10  2.066627 S    
C71   C91   1.404411 A    
C22   C90   1.465052 S    
C21   C89   1.448459 S    
N1    O54   1.301112 A    
C75   C79   1.398754 A    
C81   C85   1.389523 A    
C48   H20   1.081846 S    
Cr7   O51   1.970149 S    
C16   C77   1.448193 S    
C14   O34   1.298877 A    
O6    Cr2   1.941205 S    
C79   C83   1.406369 A    
C23   C91   1.465105 S    
O31   Cr3   1.937679 S    
O24   Cr12  1.946928 S    
O16   Cr8   1.933530 S    
O9    Cr5   2.067299 S    
O30   Cr2   1.937564 S    
C39   C43   1.401869 A    
O22   C10   1.281534 A    
C67   H27   1.083386 S    
N3    O57   1.301222 A    
O48   Cr12  1.933814 S    
C4    O12   1.299380 A    
C72   H32   1.082051 S    
C2    C43   1.448720 S    
C2    O10   1.260224 A    
C81   H37   1.081296 S    
C88   C92   1.398422 A    
O7    Cr3   1.941086 S    
O26   Cr2   2.058578 S    
C9    C53   1.462900 S    
Cr10  O50   1.970841 S    
C75   H35   1.081621 S    
C28   C31   1.342156 D    
O13   C5    1.270248 A    
C36   H12   1.083129 S    
C84   H40   1.081293 S    
O12   Cr8   2.067377 S    
C20   C63   1.454079 S    
C42   C46   1.393726 A    
C71   H31   1.083346 S    
C26   H5    1.086532 S    
C41   C45   1.393732 A    
C83   H39   1.082744 S    
C50   C54   1.406054 A    
C58   C61   1.413361 A    
O39   Cr7   1.948147 S    
O25   C21   1.257342 A    
C43   C47   1.401184 A    
C70   C74   1.382648 A    
O3    C11   1.262892 A    
O8    C4    1.296086 A    
Cr1   O49   1.973466 S    
C17   C62   1.454217 S    
O13   Cr5   1.933602 S    
C13   O33   1.263597 A    
C6    C26   1.461225 S    
C72   C92   1.403992 A    
C78   C82   1.406326 A    
O29   C13   1.269177 A    
Cr2   O50   1.973466 S    
O15   Cr7   1.933602 S    
C35   C39   1.391514 A    
C38   H14   1.082891 S    
C40   C44   1.401856 A    
C37   H13   1.082894 S    
Cr3   O51   1.973466 S    
O14   Cr6   1.933530 S    
N2    O56   1.301351 A    
O21   Cr9   1.946973 S    
C39   H15   1.083219 S    
C45   H17   1.078933 S    
C62   C66   1.402773 A    
O37   Cr5   1.948147 S    
O38   C18   1.278849 A    
C8    C28   1.462578 S    
C7    C27   1.462561 S    
C19   O43   1.258345 A    
C13   C80   1.448134 S    
C3    C42   1.462047 S    
C35   C55   1.404721 A    
C29   H1    1.084390 S    
C36   C56   1.404726 A    
C8    O20   1.263935 A    
O3    Cr3   2.058249 S    
C86   C90   1.402709 A    
C26   C29   1.343582 D    
C34   H10   1.082992 S    
O25   Cr1   2.058455 S    
C85   C89   1.398390 A    
C5    O17   1.265080 A    
C10   C54   1.462894 S    
O27   C23   1.263062 A    
O22   Cr10  1.946928 S    
O28   C24   1.257329 A    
C87   H43   1.081670 S    
O14   C6    1.270224 A    
C35   H11   1.083126 S    
C14   C79   1.464343 S    
O5    Cr1   1.941086 S    
Cr12  O52   1.970841 S    
C47   C51   1.370517 A    
O17   Cr9   2.053009 S    
O37   C17   1.277377 A    
C50   H22   1.083395 S    
C15   O35   1.298901 A    
O24   C12   1.272042 A    
C17   O41   1.258926 A    
C83   C87   1.395286 A    
C74   H34   1.081581 S    
C37   C41   1.409641 A    
C70   C90   1.404361 A    
N4    O60   1.301163 A    
C63   C67   1.402868 A    
O40   Cr8   1.948209 S    
C69   C89   1.403945 A    
C20   O44   1.259072 A    
C51   H23   1.083964 S    
O1    Cr1   2.058249 S    
C28   H7    1.085809 S    
C47   H19   1.081846 S    
O19   Cr11  2.053009 S    
C59   C64   1.413581 A    
C12   C56   1.448521 S    
Cr8   O52   1.970160 S    
O32   C16   1.269238 A    
O41   Cr9   2.066663 S    
O46   Cr10  1.933814 S    
C57   N1    1.439215 S    
C73   H33   1.083888 S    
C36   C40   1.391507 A    
O46   C22   1.277423 A    
C33   H9    1.082994 S    
Cr5   O49   1.970149 S    
O45   C21   1.273812 A    
C32   H4    1.082471 S    
O34   Cr6   2.051176 S    
C59   N3    1.441337 S    
O33   Cr5   2.051265 S    
O23   C11   1.272050 A    
O10   Cr6   2.067377 S    
C65   H25   1.082974 S    
C68   H28   1.083023 S    
C33   C53   1.401140 A    
O35   Cr7   2.051265 S    
O4    Cr4   2.058131 S    
C49   H21   1.083392 S    
C72   C76   1.370373 A    
O6    C2    1.270116 A    
C86   H42   1.081770 S    
O29   Cr1   1.937679 S    
C38   C42   1.409651 A    
C76   H36   1.083916 S    
C16   O36   1.263557 A    
O40   C20   1.277240 A    
N2    O55   1.301184 A    
C46   C50   1.377076 A    
O18   Cr10  2.053047 S    
N4    O59   1.301342 A    
C6    O18   1.265086 A    
O43   Cr11  2.066663 S    
C67   C68   1.385446 A    
N3    O58   1.302329 A    
C46   H18   1.078930 S    
O45   Cr9   1.933759 S    
C49   C53   1.406045 A    
C82   C86   1.395248 A    
O38   Cr6   1.948209 S    
C65   C66   1.385420 A    
O36   Cr8   2.051176 S    
O31   C15   1.302307 A    
O16   C8    1.272562 A    
C69   H29   1.082078 S    
C80   C84   1.405603 A    
C11   C55   1.448531 S    
C74   C78   1.398718 A    
