data_mof_unit_2290.cif
_audit_creation_date              2012-12-10T17:03:39-0500
_audit_creation_method            fapswitch 2.2
_symmetry_space_group_name_H-M    P1
_symmetry_Int_Tables_number       1
_space_group_crystal_system       triclinic
_cell_length_a                    10.023914
_cell_length_b                    10.629193
_cell_length_c                    13.051657
_cell_angle_alpha                 90.369215
_cell_angle_beta                  70.259385
_cell_angle_gamma                 88.629601
_cell_volume                      1308.34928605

loop_
_atom_site_label
_atom_site_type_symbol
_atom_type_description
_atom_site_fract_x
_atom_site_fract_y
_atom_site_fract_z
_atom_type_partial_charge
Br1   Br    Br    0.368138 0.924386 0.393399 -0.446499
Br2   Br    Br    0.536136 0.782653 0.729307 -0.476866
C1    C     C_R   0.503485 0.736572 0.487728 0.942220
C2    C     C_R   0.367228 0.522292 0.823469 -0.075970
C3    C     C_2   0.627454 0.063675 0.428142 0.010241
C4    C     C_R   0.420981 0.507003 0.704636 0.909211
C5    C     C_2   0.512237 0.128513 0.492828 -0.334760
C6    C     C_2   0.628282 0.929117 0.443249 -0.228054
C7    C     C_2   0.513639 0.863504 0.449700 0.087216
C8    C     C_2   0.089272 0.402505 0.472730 -0.081712
C9    C     C_2   0.941282 0.404236 0.468116 -0.034477
C10   C     C_R   0.503245 0.262081 0.497087 0.953488
C11   C     C_R   0.578625 0.499318 0.295280 0.910066
C12   C     C_R   0.420755 0.546940 0.989759 -0.006119
C13   C     C_R   0.765171 0.632814 0.021726 -0.139009
C14   C     C_R   0.625211 0.517703 0.178223 -0.039940
C15   C     C_R   0.238074 0.468353 0.882173 -0.191316
C16   C     C_R   0.192012 0.467913 0.995078 -0.174515
C17   C     C_R   0.280630 0.509155 0.050934 -0.011577
C18   C     C_2   0.787842 0.759955 0.819280 0.951286
C19   C     C_2   0.215187 0.532010 0.170117 0.877675
C20   C     C_2   0.752637 0.119142 0.345301 0.946527
C21   C     C_R   0.450070 0.577023 0.879849 0.003459
C22   C     C_R   0.533432 0.554990 0.031763 0.097625
C23   C     C_R   0.657688 0.621318 0.974885 0.031685
C24   C     C_R   0.666897 0.680193 0.876368 -0.093736
C25   C     C_R   0.559290 0.662113 0.831661 0.195737
C26   C     C_R   0.528416 0.492353 0.126294 -0.143080
C27   C     C_R   0.746881 0.584315 0.124407 -0.184709
H1    H     H_    0.823650 0.604403 0.163692 0.177060
H2    H     H_    0.171439 0.428279 0.840784 0.178163
H3    H     H_    0.086283 0.436119 0.038837 0.186469
H4    H     H_    0.858459 0.934640 0.777252 0.353657
H5    H     H_    0.205395 0.639533 0.300649 0.360760
H6    H     H_    0.961296 0.101571 0.258436 0.360067
H7    H     H_    0.423331 0.081113 0.550067 0.185248
H8    H     H_    0.717815 0.887084 0.461010 0.207143
H9    H     H_    0.150381 0.314884 0.450823 0.186044
H10   H     H_    0.093427 0.583304 0.515090 0.187980
H11   H     H_    0.907273 0.320004 0.437773 0.179979
H12   H     H_    0.881545 0.576624 0.532141 0.185789
H13   H     H_    0.859919 0.684883 0.982582 0.171457
H14   H     H_    0.443900 0.428856 0.164634 0.146479
N1    N     N_2   0.148270 0.498670 0.498870 -0.193824
N2    N     N_2   0.852610 0.498640 0.498840 -0.187652
O1    O     O_R   0.386950 0.680940 0.500020 -0.570040
O2    O     O_R   0.768061 0.890518 0.818967 -0.739475
O3    O     O_2   0.118992 0.466324 0.224304 -0.641911
O4    O     O_R   0.259600 0.632097 0.219684 -0.751947
O5    O     O_2   0.740165 0.216327 0.299318 -0.625022
O6    O     O_R   0.884382 0.055924 0.316196 -0.789117
O7    O     O_R   0.613110 0.680900 0.499980 -0.612290
O8    O     O_R   0.330780 0.500000 0.653640 -0.597817
O9    O     O_R   0.556930 0.499960 0.653610 -0.592133
O10   O     O_R   0.386890 0.319100 0.500020 -0.609992
O11   O     O_R   0.613050 0.319060 0.499980 -0.601909
O12   O     O_R   0.443070 0.500040 0.346390 -0.601946
O13   O     O_R   0.669220 0.500000 0.346360 -0.584911
O14   O     O_2   0.904711 0.711168 0.773005 -0.641178
Zn1   Zn    Zn3+2 0.349000 0.500030 0.500020 1.011531
Zn2   Zn    Zn3+2 0.651000 0.499970 0.499980 1.009245

loop_
_geom_bond_atom_site_label_1
_geom_bond_atom_site_label_2
_ccdc_geom_bond_type
C12   C21   A    
C14   C26   A    
C3    C6    S    
C1    O7    A    
Br2   C25   S    
C1    C7    S    
O9    Zn2   S    
C21   C25   A    
C27   H1    S    
C5    H7    S    
C1    O1    A    
C8    H9    S    
C20   O5    D    
C19   O3    D    
O13   Zn2   S    
C19   O4    S    
C15   C16   A    
C23   C24   A    
Br1   C7    S    
O10   Zn1   S    
C18   O14   D    
C24   C25   A    
C10   O11   A    
C18   C24   S    
N1    Zn1   S    
C26   H14   S    
H4    O2    S    
C2    C15   A    
N2    Zn2   S    
C17   C19   S    
O8    Zn1   S    
C4    O9    A    
C13   C27   A    
O7    Zn2   S    
H6    O6    S    
C5    C10   S    
C15   H2    S    
C9    N2    D    
C10   O10   A    
C16   H3    S    
C8    C9    S    
H10   N1    S    
C8    N1    D    
C9    H11   S    
C18   O2    S    
C11   O12   A    
C22   C23   A    
C13   C23   A    
C2    C4    S    
C16   C17   A    
C6    H8    S    
C11   C14   S    
C12   C22   A    
C3    C5    D    
C2    C21   A    
H12   N2    S    
O11   Zn2   S    
C6    C7    D    
O12   Zn1   S    
C11   O13   A    
C4    O8    A    
O1    Zn1   S    
C14   C27   A    
C12   C17   A    
C3    C20   S    
C22   C26   A    
C13   H13   S    
C20   O6    S    
H5    O4    S    
