data_mof_unit_3150.cif
_audit_creation_date              2012-12-11T14:11:04-0500
_audit_creation_method            fapswitch 2.2
_symmetry_space_group_name_H-M    P1
_symmetry_Int_Tables_number       1
_space_group_crystal_system       triclinic
_cell_length_a                    19.729144
_cell_length_b                    17.220891
_cell_length_c                    15.427223
_cell_angle_alpha                 89.998821
_cell_angle_beta                  52.482033
_cell_angle_gamma                 90.000581
_cell_volume                      4157.32271181

loop_
_atom_site_label
_atom_site_type_symbol
_atom_type_description
_atom_site_fract_x
_atom_site_fract_y
_atom_site_fract_z
_atom_type_partial_charge
C1    C     C_R   0.339326 0.175150 0.048812 -0.110009
C2    C     C_3   0.663482 0.721184 0.466977 0.116011
C3    C     C_3   0.753679 0.226026 0.447740 0.123046
C4    C     C_3   0.246202 0.774282 0.552457 0.123055
C5    C     C_3   0.746393 0.726188 0.552169 0.123052
C6    C     C_3   0.253628 0.273865 0.447795 0.123047
C7    C     C_3   0.163776 0.778348 0.466573 0.115954
C8    C     C_3   0.836438 0.221329 0.533151 0.115971
C9    C     C_2   0.286135 0.687693 0.954807 -0.201075
C10   C     C_2   0.713861 0.312310 0.045200 -0.201065
C11   C     C_2   0.808891 0.742941 0.905817 -0.201119
C12   C     C_R   0.660675 0.824851 0.951187 -0.110013
C13   C     C_2   0.191110 0.257059 0.094182 -0.201061
C14   C     C_2   0.691103 0.242940 0.094191 -0.201040
C15   C     C_2   0.308893 0.757061 0.905816 -0.201039
C16   C     C_2   0.213868 0.187693 0.045188 -0.201059
C17   C     C_2   0.786133 0.812307 0.954810 -0.201042
C18   C     C_R   0.348039 0.828956 0.221178 -0.137981
C19   C     C_R   0.651947 0.171060 0.778809 -0.138060
C20   C     C_R   0.609003 0.802806 0.786190 -0.139447
C21   C     C_R   0.390989 0.197192 0.213813 -0.139432
C22   C     C_R   0.890979 0.302809 0.213820 -0.139419
C23   C     C_R   0.625897 0.196896 0.004691 -0.117228
C24   C     C_R   0.109067 0.697180 0.786161 -0.139381
C25   C     C_R   0.151931 0.328924 0.778804 -0.138082
C26   C     C_R   0.848070 0.671077 0.221199 -0.138089
C27   C     C_R   0.365235 0.890021 0.897169 -0.157498
C28   C     C_R   0.634764 0.109980 0.102832 -0.157498
C29   C     C_R   0.670068 0.913099 0.049008 -0.151614
C30   C     C_R   0.329932 0.086901 0.950991 -0.151592
C31   C     C_R   0.829931 0.413100 0.950995 -0.151568
C32   C     C_R   0.170067 0.586901 0.049009 -0.151500
C33   C     C_R   0.134766 0.390019 0.102830 -0.157522
C34   C     C_R   0.374104 0.803103 0.995307 -0.117211
C35   C     C_R   0.865235 0.609981 0.897169 -0.157520
C36   C     C_R   0.397915 0.104965 0.310013 -0.136681
C37   C     C_R   0.602074 0.895032 0.689992 -0.136647
C38   C     C_R   0.643202 0.079119 0.683106 -0.117669
C39   C     C_R   0.356776 0.920893 0.316885 -0.117751
C40   C     C_R   0.856819 0.579134 0.316903 -0.117605
C41   C     C_R   0.143183 0.420865 0.683097 -0.117631
C42   C     C_R   0.102161 0.604953 0.689947 -0.136747
C43   C     C_R   0.897900 0.395034 0.310022 -0.136666
C44   C     C_R   0.287589 0.148150 0.023035 0.155321
C45   C     C_R   0.874101 0.696895 0.995311 -0.117228
C46   C     C_R   0.712412 0.851850 0.976963 0.155325
C47   C     C_R   0.653465 0.185554 0.066817 0.153281
C48   C     C_R   0.346535 0.814446 0.933184 0.153297
C49   C     C_R   0.846532 0.685554 0.933186 0.153283
C50   C     C_R   0.153469 0.314446 0.066813 0.153283
C51   C     C_R   0.212411 0.648152 0.976966 0.155311
C52   C     C_R   0.787585 0.351851 0.023042 0.155320
C53   C     C_R   0.306591 0.862252 0.323328 0.055642
C54   C     C_R   0.693370 0.137779 0.676653 0.055671
C55   C     C_R   0.625100 0.819924 0.688313 0.064772
C56   C     C_R   0.125899 0.303105 0.004689 -0.117223
C57   C     C_R   0.374882 0.180071 0.311696 0.064776
C58   C     C_R   0.874858 0.319929 0.311709 0.064779
C59   C     C_R   0.125245 0.680048 0.688241 0.064803
C60   C     C_R   0.193340 0.362194 0.676641 0.055676
C61   C     C_R   0.806664 0.637808 0.323362 0.055681
C62   C     C_3   0.301143 0.204078 0.519189 -0.233949
C63   C     C_3   0.698782 0.795900 0.480834 -0.233945
C64   C     C_3   0.789364 0.151545 0.460864 -0.233084
C65   C     C_3   0.210321 0.848552 0.539172 -0.233096
C66   C     C_3   0.710804 0.651604 0.539123 -0.233068
C67   C     C_R   0.160673 0.675154 0.951192 -0.110040
C68   C     C_3   0.289252 0.348411 0.460872 -0.233072
C69   C     C_3   0.199372 0.703958 0.480657 -0.233957
C70   C     C_3   0.801040 0.295939 0.519220 -0.233944
C71   C     C_3   0.625616 0.694256 0.584255 -0.203974
C72   C     C_3   0.374401 0.305701 0.415785 -0.203943
C73   C     C_3   0.283257 0.746631 0.437388 -0.198545
C74   C     C_3   0.716933 0.253593 0.562737 -0.198679
C75   C     C_3   0.216970 0.246321 0.562773 -0.198735
C76   C     C_3   0.782994 0.753716 0.437204 -0.198762
C77   C     C_3   0.874449 0.194360 0.415843 -0.203910
C78   C     C_R   0.839324 0.324850 0.048816 -0.110013
C79   C     C_3   0.125453 0.805405 0.583950 -0.203797
C80   C     C_3   0.663073 0.768113 0.596264 0.111061
C81   C     C_3   0.336909 0.231882 0.403744 0.111052
C82   C     C_3   0.246664 0.820503 0.423617 0.111716
C83   C     C_3   0.753331 0.179501 0.576350 0.111772
C84   C     C_3   0.253307 0.320480 0.576339 0.111793
C85   C     C_3   0.746692 0.679517 0.423668 0.111800
C86   C     C_3   0.836896 0.268110 0.403755 0.111040
C87   C     C_3   0.163200 0.731876 0.596198 0.110990
C88   C     C_1   0.380613 0.282947 0.582400 0.021595
C89   C     C_3   0.336478 0.278755 0.533075 0.115983
C90   C     C_1   0.619314 0.716929 0.417699 0.021600
C91   C     C_1   0.706596 0.228795 0.402102 0.009780
C92   C     C_1   0.293113 0.771864 0.598342 0.009591
C93   C     C_1   0.793553 0.729128 0.597695 0.009862
C94   C     C_1   0.206500 0.270988 0.402223 0.009830
C95   C     C_1   0.119867 0.782078 0.416922 0.021343
C96   C     C_1   0.880525 0.217246 0.582546 0.021533
H1    H     H_    0.329475 0.224487 0.098225 0.092509
H2    H     H_    0.671626 0.221910 0.799228 0.103009
H3    H     H_    0.610758 0.746064 0.814793 0.092924
H4    H     H_    0.389236 0.253934 0.185210 0.092929
H5    H     H_    0.889230 0.246065 0.185217 0.092944
H6    H     H_    0.110804 0.753926 0.814768 0.092990
H7    H     H_    0.171607 0.278073 0.799226 0.103001
H8    H     H_    0.828392 0.721928 0.200778 0.102994
H9    H     H_    0.361491 0.916111 0.836405 0.095683
H10   H     H_    0.638507 0.083890 0.163597 0.095630
H11   H     H_    0.690357 0.946764 0.088686 0.098617
H12   H     H_    0.670526 0.775514 0.901772 0.092504
H13   H     H_    0.309643 0.053236 0.911313 0.098626
H14   H     H_    0.809642 0.446768 0.911317 0.098609
H15   H     H_    0.190355 0.553233 0.088688 0.098613
H16   H     H_    0.138510 0.416107 0.163594 0.095628
H17   H     H_    0.861491 0.583893 0.836405 0.095615
H18   H     H_    0.403422 0.077005 0.368215 0.089472
H19   H     H_    0.596565 0.922993 0.631793 0.089455
H20   H     H_    0.654145 0.045129 0.616857 0.094781
H21   H     H_    0.345825 0.954872 0.383148 0.094854
H22   H     H_    0.845883 0.545142 0.383148 0.094735
H23   H     H_    0.618737 0.251551 0.976753 0.079499
H24   H     H_    0.154118 0.454849 0.616848 0.094731
H25   H     H_    0.096659 0.577009 0.631731 0.089504
H26   H     H_    0.903409 0.422989 0.368224 0.089461
H27   H     H_    0.559979 0.671912 0.646522 0.133255
H28   H     H_    0.440059 0.328010 0.353543 0.133271
H29   H     H_    0.348735 0.723236 0.376670 0.131407
H30   H     H_    0.651573 0.277181 0.623587 0.131336
H31   H     H_    0.151644 0.222673 0.623661 0.131314
H32   H     H_    0.848299 0.777399 0.376290 0.131303
H33   H     H_    0.940141 0.172111 0.353640 0.133288
H34   H     H_    0.381267 0.748449 0.023242 0.079502
H35   H     H_    0.059648 0.827465 0.646017 0.133345
H36   H     H_    0.306187 0.144750 0.542927 0.119822
H37   H     H_    0.693684 0.855213 0.457106 0.119808
H38   H     H_    0.784116 0.091947 0.438046 0.121645
H39   H     H_    0.215283 0.908238 0.562024 0.121736
H40   H     H_    0.716187 0.592049 0.561928 0.121598
H41   H     H_    0.283918 0.407982 0.438060 0.121600
H42   H     H_    0.194731 0.644516 0.456838 0.119830
H43   H     H_    0.805992 0.355294 0.542975 0.119807
H44   H     H_    0.309681 0.666581 0.998183 0.123900
H45   H     H_    0.881260 0.751548 0.023250 0.079505
H46   H     H_    0.690318 0.333420 0.001822 0.123882
H47   H     H_    0.787254 0.722573 0.859950 0.134586
H48   H     H_    0.212748 0.277428 0.140047 0.134597
H49   H     H_    0.712743 0.222568 0.140053 0.134621
H50   H     H_    0.287249 0.777435 0.859960 0.134714
H51   H     H_    0.190326 0.166585 0.001808 0.123885
H52   H     H_    0.809674 0.833415 0.998192 0.123885
H53   H     H_    0.118739 0.248452 0.976751 0.079501
H54   H     H_    0.170523 0.724497 0.901785 0.092568
H55   H     H_    0.829471 0.275511 0.098231 0.092523
H56   H     H_    0.328366 0.778103 0.200757 0.103038
N1    N     N_R   0.408680 0.130810 0.995780 -0.048274
N2    N     N_R   0.578590 0.132790 0.846380 -0.043488
N3    N     N_R   0.578590 0.867210 0.846380 -0.038643
N4    N     N_R   0.421410 0.132790 0.153620 -0.038643
N5    N     N_R   0.921410 0.367210 0.153620 -0.038651
N6    N     N_R   0.078590 0.632790 0.846380 -0.038661
N7    N     N_R   0.078590 0.367210 0.846380 -0.043481
N8    N     N_R   0.921410 0.632790 0.153620 -0.043477
N9    N     N_R   0.403840 0.921910 0.935760 -0.039047
N10   N     N_R   0.596160 0.078090 0.064240 -0.039039
N11   N     N_R   0.596160 0.921910 0.064240 -0.043267
N12   N     N_R   0.591320 0.869190 0.004220 -0.048275
N13   N     N_R   0.403840 0.078090 0.935760 -0.043267
N14   N     N_R   0.903840 0.421910 0.935760 -0.043266
N15   N     N_R   0.096160 0.578090 0.064240 -0.043268
N16   N     N_R   0.096160 0.421910 0.064240 -0.039046
N17   N     N_R   0.903840 0.578090 0.935760 -0.039042
N18   N     N_R   0.426250 0.076100 0.213650 -0.037151
N19   N     N_R   0.573750 0.923900 0.786350 -0.037158
N20   N     N_R   0.573750 0.076100 0.786350 -0.042705
N21   N     N_R   0.426250 0.923900 0.213650 -0.042711
N22   N     N_R   0.926250 0.576100 0.213650 -0.042696
N23   N     N_R   0.591320 0.130810 0.004220 -0.042064
N24   N     N_R   0.073750 0.423900 0.786350 -0.042696
N25   N     N_R   0.073750 0.576100 0.786350 -0.037152
N26   N     N_R   0.926250 0.423900 0.213650 -0.037161
N27   N     N_1   0.415403 0.286232 0.621382 -0.083405
N28   N     N_1   0.584497 0.713593 0.378755 -0.083446
N29   N     N_1   0.669529 0.231018 0.366119 -0.095777
N30   N     N_1   0.330048 0.769919 0.634516 -0.096014
N31   N     N_1   0.830680 0.731486 0.633590 -0.095693
N32   N     N_1   0.169397 0.268680 0.366292 -0.095714
N33   N     N_1   0.085256 0.784998 0.377681 -0.083440
N34   N     N_R   0.408680 0.869190 0.995780 -0.042068
N35   N     N_1   0.915278 0.214045 0.621584 -0.083409
N36   N     N_R   0.908680 0.630810 0.995780 -0.042069
N37   N     N_R   0.091320 0.369190 0.004220 -0.042067
N38   N     N_R   0.091320 0.630810 0.004220 -0.048275
N39   N     N_R   0.908680 0.369190 0.995780 -0.048275
N40   N     N_R   0.421410 0.867210 0.153620 -0.043507
Ni1   Ni    Ni4+2 0.500000 0.131570 0.000000 0.207569
Ni2   Ni    Ni4+2 0.500000 0.868430 0.000000 0.207562
Ni3   Ni    Ni4+2 0.000000 0.631570 0.000000 0.207576
Ni4   Ni    Ni4+2 1.000000 0.368430 0.000000 0.207567
Ni5   Ni    Ni4+2 0.488900 0.000000 0.862310 0.212915
Ni6   Ni    Ni4+2 0.511100 0.000000 0.137690 0.212901
Ni7   Ni    Ni4+2 0.988900 0.500000 0.862310 0.212910
Ni8   Ni    Ni4+2 0.011100 0.500000 0.137690 0.212926

loop_
_geom_bond_atom_site_label_1
_geom_bond_atom_site_label_2
_ccdc_geom_bond_type
C27   C48   A    
C40   H22   S    
C28   C47   A    
C65   C79   S    
C20   N3    A    
C36   N18   A    
N5    Ni4   S    
C93   N31   T    
C64   C77   S    
C29   N11   A    
C62   C81   S    
N11   N12   A    
C9    C51   S    
C74   C83   S    
C39   N21   A    
C10   C52   S    
C66   C85   S    
C79   C87   S    
C67   N38   A    
C28   N10   A    
C6    C75   S    
C43   N26   A    
C4    C87   S    
C39   C53   A    
C3    C64   S    
C14   H49   S    
C18   N40   A    
C22   H5    S    
C16   H51   S    
C63   H37   S    
C71   H27   S    
C32   H15   S    
C26   C61   A    
C23   H23   S    
C4    C65   S    
C9    H44   S    
C24   N6    A    
C75   C84   S    
C23   N23   A    
C63   C76   S    
C27   H9    S    
C42   N25   A    
C8    C83   S    
C62   C89   S    
C8    C70   S    
C52   C78   A    
C2    C85   S    
C3    C91   S    
N14   N39   A    
C10   H46   S    
C13   H48   S    
C2    C90   S    
C3    C74   S    
C70   C74   S    
C71   C80   S    
C18   C53   A    
C26   H8    S    
N39   Ni4   S    
N2    Ni1   S    
C21   N4    A    
N36   Ni3   S    
C28   H10   S    
C6    C94   S    
C8    C96   S    
C35   C49   A    
N15   Ni8   S    
C26   N8    A    
C25   C60   A    
C16   C44   S    
C24   H6    S    
C72   C81   S    
C69   C87   S    
N17   Ni7   S    
C6    C68   S    
C36   H18   S    
C70   H43   S    
C6    C81   S    
C72   H28   S    
C3    C86   S    
C45   H45   S    
C96   N35   T    
C30   C44   A    
C68   H41   S    
C94   N32   T    
C15   C48   S    
C20   C55   A    
C18   H56   S    
C58   C86   S    
C54   C83   S    
C19   H2    S    
C78   H55   S    
C90   N28   T    
C63   C80   S    
N7    Ni4   S    
C64   H38   S    
C23   C47   A    
N14   Ni7   S    
C30   H13   S    
C68   C84   S    
C62   H36   S    
C17   H52   S    
C17   C46   S    
C30   N13   A    
C12   C46   A    
C36   C57   A    
C10   C14   D    
C1    H1    S    
C12   H12   S    
C21   H4    S    
C25   N7    A    
C25   H7    S    
C51   C67   A    
N10   N23   A    
C33   C50   A    
C39   H21   S    
C35   H17   S    
C50   C56   A    
N16   N37   A    
C53   C82   S    
N40   Ni2   S    
C1    N1    A    
C64   C83   S    
C21   C57   A    
N9    N34   A    
C11   C49   S    
N13   Ni5   S    
C12   N12   A    
C38   H20   S    
C1    C44   A    
C66   C71   S    
C38   C54   A    
C31   N14   A    
C45   C49   A    
C68   C72   S    
C79   H35   S    
N2    N20   A    
N20   Ni5   S    
C33   H16   S    
C77   H33   S    
C5    C80   S    
C69   C73   S    
C43   H26   S    
C4    C73   S    
C65   H39   S    
C61   C85   S    
N38   Ni3   S    
N8    Ni3   S    
C66   H40   S    
C19   C54   A    
N6    N25   A    
N17   N36   A    
C41   N24   A    
C77   C86   S    
N7    N24   A    
C91   N29   T    
C8    C77   S    
C35   N17   A    
C57   C81   S    
C62   C75   S    
C13   C16   D    
C33   N16   A    
C34   C48   A    
C84   C89   S    
N24   Ni7   S    
C2    C71   S    
C70   C86   S    
C67   H54   S    
C73   C82   S    
N18   Ni6   S    
C2    C63   S    
C95   N33   T    
C88   N27   T    
C7    C79   S    
C22   C58   A    
C32   C51   A    
C69   H42   S    
N15   N38   A    
N26   Ni8   S    
C56   N37   A    
C11   C17   D    
N16   Ni8   S    
N1    N13   A    
N21   Ni6   S    
N8    N22   A    
N34   Ni2   S    
C78   N39   A    
C41   C60   A    
C5    C66   S    
C42   C59   A    
C37   N19   A    
C15   H50   S    
C5    C93   S    
C45   N36   A    
C38   N20   A    
C14   C47   S    
C37   H19   S    
C22   N5    A    
C7    C95   S    
N10   Ni6   S    
N21   N40   A    
N22   Ni8   S    
N6    Ni3   S    
C31   C52   A    
N9    Ni5   S    
C29   C46   A    
C5    C76   S    
C7    C69   S    
C9    C15   D    
N19   Ni5   S    
N3    Ni2   S    
C92   N30   T    
C27   N9    A    
C40   N22   A    
C55   C80   S    
C60   C84   S    
N37   Ni4   S    
C75   H31   S    
C65   C82   S    
C74   H30   S    
C20   H3    S    
C24   C59   A    
C73   H29   S    
N11   Ni6   S    
N4    N18   A    
C31   H14   S    
N4    Ni1   S    
N12   Ni2   S    
N5    N26   A    
C41   H24   S    
C59   C87   S    
C40   C61   A    
C13   C50   S    
C37   C55   A    
N3    N19   A    
C7    C82   S    
N1    Ni1   S    
C88   C89   S    
C34   H34   S    
N25   Ni7   S    
C32   N15   A    
C34   N34   A    
C19   N2    A    
C43   C58   A    
C29   H11   S    
C72   C89   S    
C56   H53   S    
C11   H47   S    
C76   C85   S    
N23   Ni1   S    
C42   H25   S    
C4    C92   S    
C76   H32   S    
