data_mof_unit_1728.cif
_audit_creation_date              2012-12-11T14:52:49-0500
_audit_creation_method            fapswitch 2.2
_symmetry_space_group_name_H-M    P1
_symmetry_Int_Tables_number       1
_space_group_crystal_system       triclinic
_cell_length_a                    20.749991
_cell_length_b                    7.259269
_cell_length_c                    20.132517
_cell_angle_alpha                 90.000495
_cell_angle_beta                  101.677741
_cell_angle_gamma                 89.998782
_cell_volume                      2969.78702013

loop_
_atom_site_label
_atom_site_type_symbol
_atom_type_description
_atom_site_fract_x
_atom_site_fract_y
_atom_site_fract_z
_atom_type_partial_charge
O1    O     O_R   0.673670 0.377510 0.185950 -0.534717
O2    O     O_R   0.326330 0.622490 0.814050 -0.535141
O3    O     O_R   0.826330 0.877510 0.314050 -0.534718
O4    O     O_R   0.173670 0.122490 0.685950 -0.535138
O5    O     O_R   0.806260 0.705340 0.185590 -0.529987
O6    O     O_R   0.193740 0.294660 0.814410 -0.530005
O7    O     O_R   0.693740 0.205340 0.314410 -0.529996
O8    O     O_R   0.306260 0.794660 0.685590 -0.530014
C1    C     C_R   0.825288 0.538795 0.170533 0.701705
C2    C     C_R   0.174271 0.461239 0.829014 0.700239
C3    C     C_R   0.674712 0.038798 0.329468 0.701697
C4    C     C_R   0.325730 0.961236 0.670986 0.700231
O9    O     O_R   0.672940 0.707120 0.178050 -0.535999
O10   O     O_R   0.327060 0.292880 0.821950 -0.536273
O11   O     O_R   0.827060 0.207120 0.321950 -0.535995
O12   O     O_R   0.172940 0.792880 0.678050 -0.536272
O13   O     O_R   0.692060 0.879040 0.306460 -0.532902
O14   O     O_R   0.307940 0.120960 0.693540 -0.532777
O15   O     O_R   0.807940 0.379040 0.193540 -0.532902
O16   O     O_R   0.192060 0.620960 0.806460 -0.532776
C5    C     C_R   0.649278 0.539328 0.160625 0.711973
C6    C     C_R   0.350898 0.460541 0.839134 0.711479
C7    C     C_R   0.850723 0.039326 0.339373 0.711960
C8    C     C_R   0.149101 0.960543 0.660866 0.711476
O17   O     O_3   0.756430 0.544390 0.292140 -0.374623
O18   O     O_3   0.243570 0.455610 0.707860 -0.374455
O19   O     O_3   0.743570 0.044390 0.207860 -0.374615
O20   O     O_3   0.256430 0.955610 0.792140 -0.374450
V1    V     V_3+5 0.748810 0.818610 0.242180 1.463553
V2    V     V_3+5 0.251190 0.181390 0.757820 1.450997
V3    V     V_3+5 0.751190 0.318610 0.257820 1.463540
V4    V     V_3+5 0.248810 0.681390 0.742180 1.450985
C9    C     C_R   0.087765 0.962483 0.608095 -0.122969
C10   C     C_R   0.911822 0.036787 0.392469 -0.125787
C11   C     C_R   0.412234 0.462475 0.891906 -0.122986
C12   C     C_R   0.588181 0.536802 0.107526 -0.125802
C13   C     C_R   0.021044 0.164795 0.437318 0.448598
C14   C     C_R   0.978906 0.830270 0.562867 0.438063
C15   C     C_R   0.478970 0.664879 0.062663 0.448598
C16   C     C_R   0.521089 0.330233 0.937138 0.438089
C17   C     C_R   0.963007 0.158392 0.387228 -0.234501
C18   C     C_R   0.037012 0.839185 0.613233 -0.239577
C19   C     C_R   0.537008 0.658470 0.112753 -0.234486
C20   C     C_R   0.462981 0.339147 0.886774 -0.239594
C21   C     C_R   0.917975 0.924011 0.450074 -0.192912
C22   C     C_R   0.081418 0.074673 0.550483 -0.209493
C23   C     C_R   0.582021 0.423985 0.049930 -0.192905
C24   C     C_R   0.418587 0.574701 0.949510 -0.209438
C25   C     C_R   0.973964 0.936835 0.503330 0.014841
C26   C     C_R   0.025607 0.060382 0.497227 0.007072
C27   C     C_R   0.526035 0.436824 0.996670 0.014831
C28   C     C_R   0.474400 0.560414 0.002764 0.007048
H1    H     H_    0.121253 0.167611 0.546252 0.164672
H2    H     H_    0.877937 0.831744 0.454247 0.166073
H3    H     H_    0.378758 0.667667 0.953735 0.164688
H4    H     H_    0.622052 0.331676 0.045767 0.166097
H5    H     H_    0.042583 0.749908 0.657074 0.129742
H6    H     H_    0.958293 0.247742 0.343378 0.132575
H7    H     H_    0.457404 0.249849 0.842939 0.129741
H8    H     H_    0.541733 0.747870 0.156591 0.132559
C29   C     C_3   0.559498 0.068706 0.537444 0.435762
C30   C     C_3   0.445136 0.935863 0.467264 0.455729
C31   C     C_3   0.940519 0.568869 0.962573 0.435677
C32   C     C_3   0.054848 0.435722 0.032722 0.455746
C33   C     C_3   0.525872 0.889107 0.553545 0.211348
C34   C     C_3   0.478402 0.116025 0.451034 0.213404
C35   C     C_3   0.974108 0.389250 0.946424 0.211390
C36   C     C_3   0.021621 0.615905 0.049001 0.213376
C37   C     C_1   0.371846 0.969513 0.625809 -0.167126
C38   C     C_1   0.630073 0.031158 0.376193 -0.159842
C39   C     C_1   0.128155 0.469525 0.874192 -0.167099
C40   C     C_1   0.869927 0.531151 0.123808 -0.159803
C41   C     C_3   0.492667 0.170053 0.527117 0.441733
C42   C     C_3   0.511857 0.835301 0.477827 0.468590
C43   C     C_3   0.007375 0.670094 0.972934 0.441844
C44   C     C_3   0.988104 0.335284 0.022125 0.468984
C45   C     C_3   0.458958 0.989532 0.543396 -0.282629
C46   C     C_3   0.545380 0.015020 0.461294 -0.273736
C47   C     C_3   0.041044 0.489552 0.956607 -0.282780
C48   C     C_3   0.954621 0.515021 0.038708 -0.273872
C49   C     C_1   0.410984 0.977561 0.588545 0.198682
C50   C     C_1   0.592272 0.024823 0.414912 0.215757
C51   C     C_1   0.089018 0.477578 0.911457 0.198710
C52   C     C_1   0.907728 0.524818 0.085089 0.215831
O21   O     O_3   0.071925 0.281691 0.429753 -0.574304
C53   C     C_3   0.102264 0.217397 0.377032 0.064594
H9    H     H_    0.127996 0.336070 0.359237 0.154123
H10   H     H_    0.066414 0.167442 0.331731 0.122771
C54   C     C_3   0.153213 0.067075 0.402937 -0.343767
H11   H     H_    0.191186 0.122857 0.445118 0.202732
H12   H     H_    0.128874 0.948425 0.422587 0.200890
C55   C     C_3   0.186387 0.998338 0.346495 -0.776051
H13   H     H_    0.149721 0.930365 0.306059 0.232462
H14   H     H_    0.225235 0.896804 0.367470 0.258813
H15   H     H_    0.209323 0.114642 0.323985 0.231310
O22   O     O_3   0.928906 0.707269 0.568470 -0.572650
C56   C     C_3   0.906595 0.732252 0.630019 0.068988
H16   H     H_    0.852627 0.756570 0.617103 0.139928
H17   H     H_    0.928058 0.854482 0.660355 0.106675
C57   C     C_3   0.919275 0.556831 0.672980 -0.330157
H18   H     H_    0.887783 0.443789 0.646978 0.203722
H19   H     H_    0.971462 0.513872 0.678536 0.200765
C58   C     C_3   0.904434 0.585821 0.743469 -0.757389
H20   H     H_    0.938059 0.691131 0.771697 0.247125
H21   H     H_    0.911953 0.454651 0.772205 0.259165
H22   H     H_    0.852710 0.630812 0.739698 0.226186
O23   O     O_3   0.428095 0.781823 0.070215 -0.574316
C59   C     C_3   0.397778 0.717684 0.122973 0.064551
H23   H     H_    0.371982 0.836364 0.140681 0.154155
H24   H     H_    0.433652 0.668055 0.168311 0.122809
C60   C     C_3   0.346908 0.567089 0.097175 -0.343740
H25   H     H_    0.308912 0.622542 0.054945 0.202710
H26   H     H_    0.371311 0.448401 0.077624 0.200881
C61   C     C_3   0.313759 0.498561 0.153662 -0.776096
H27   H     H_    0.350458 0.430956 0.194167 0.232495
H28   H     H_    0.274979 0.396764 0.132766 0.258651
H29   H     H_    0.290740 0.614910 0.176061 0.231309
O24   O     O_3   0.571090 0.207222 0.931538 -0.572646
C62   C     C_3   0.593374 0.232100 0.869969 0.069019
H30   H     H_    0.647344 0.256377 0.882858 0.139949
H31   H     H_    0.571912 0.354316 0.839624 0.106664
C63   C     C_3   0.580663 0.056638 0.827034 -0.330304
H32   H     H_    0.612149 0.943595 0.853045 0.203748
H33   H     H_    0.528474 0.013730 0.821501 0.200754
C64   C     C_3   0.595486 0.085516 0.756533 -0.757173
H34   H     H_    0.561860 0.190815 0.728299 0.247093
H35   H     H_    0.587951 0.954319 0.727815 0.259206
H36   H     H_    0.647210 0.130471 0.760283 0.226252
O25   O     O_3   0.546474 0.767576 0.608486 -0.532306
C65   C     C_3   0.611327 0.707618 0.609545 0.171264
H37   H     H_    0.646266 0.824822 0.621513 0.148794
H38   H     H_    0.615734 0.645663 0.560049 0.184918
C66   C     C_3   0.629933 0.561505 0.664778 -0.273036
H39   H     H_    0.624406 0.619400 0.714438 0.176177
H40   H     H_    0.596263 0.441677 0.652941 0.277255
C67   C     C_3   0.700777 0.496606 0.670238 -0.787694
H41   H     H_    0.707225 0.434275 0.621619 0.274896
H42   H     H_    0.712913 0.391545 0.710940 0.233932
H43   H     H_    0.735228 0.614361 0.682905 0.207358
O26   O     O_3   0.455874 0.221160 0.391653 -0.543642
C68   C     C_3   0.412791 0.363842 0.402364 0.227549
H44   H     H_    0.410014 0.462835 0.359777 0.167353
H45   H     H_    0.431648 0.443915 0.448991 0.238470
C69   C     C_3   0.343219 0.292684 0.401993 -0.372844
H46   H     H_    0.325929 0.209008 0.355612 0.230130
H47   H     H_    0.343493 0.204930 0.447206 0.229655
C70   C     C_3   0.295701 0.452559 0.403450 -0.774975
H48   H     H_    0.312464 0.538299 0.449413 0.275688
H49   H     H_    0.246034 0.398406 0.404680 0.224655
H50   H     H_    0.292330 0.539713 0.357512 0.246926
O27   O     O_3   0.953502 0.267787 0.891465 -0.532294
C71   C     C_3   0.888579 0.208257 0.890278 0.171035
H51   H     H_    0.853733 0.325592 0.878046 0.148847
H52   H     H_    0.883970 0.146892 0.939810 0.184460
C72   C     C_3   0.870052 0.061668 0.835208 -0.272859
H53   H     H_    0.875730 0.119027 0.785517 0.176147
H54   H     H_    0.903667 0.941792 0.847277 0.277554
C73   C     C_3   0.799166 0.997059 0.829639 -0.787857
H55   H     H_    0.792581 0.935165 0.878282 0.274633
H56   H     H_    0.787080 0.891711 0.789034 0.234040
H57   H     H_    0.764774 0.114874 0.816774 0.207355
O28   O     O_3   0.044189 0.720877 0.108414 -0.543672
C74   C     C_3   0.087253 0.863618 0.097718 0.227340
H58   H     H_    0.090144 0.962342 0.140404 0.166947
H59   H     H_    0.068301 0.943977 0.051185 0.238719
C75   C     C_3   0.156783 0.792462 0.097853 -0.372525
H60   H     H_    0.174162 0.708506 0.144144 0.230169
H61   H     H_    0.156391 0.704978 0.052548 0.229484
C76   C     C_3   0.204296 0.952340 0.096402 -0.774887
H62   H     H_    0.187437 0.038370 0.050534 0.275891
H63   H     H_    0.253924 0.898192 0.094985 0.224631
H64   H     H_    0.207798 0.039203 0.142430 0.246759
F1    F     F_    0.618308 0.139432 0.572952 -0.678352
F2    F     F_    0.386467 0.865894 0.431083 -0.681266
F3    F     F_    0.881723 0.639743 0.927087 -0.678270
F4    F     F_    0.113502 0.365622 0.068889 -0.681189
F5    F     F_    0.523054 0.664523 0.452098 -0.652467
F6    F     F_    0.484479 0.338825 0.556186 -0.641697
F7    F     F_    0.976857 0.164463 0.047788 -0.652177
F8    F     F_    0.015610 0.838907 0.943918 -0.641514

loop_
_geom_bond_atom_site_label_1
_geom_bond_atom_site_label_2
_ccdc_geom_bond_type
O17   V3    S    
C24   H3    S    
C75   H61   S    
C4    C37   S    
O1    C5    A    
O19   V1    S    
O13   V1    S    
C76   H62   S    
C30   C45   S    
O3    C7    A    
C70   H48   S    
C1    C40   S    
C48   C52   S    
C44   F7    S    
O15   V3    S    
C56   H16   S    
C3    C38   S    
C60   H26   S    
C5    C12   S    
O21   C53   S    
C36   C43   S    
O7    C3    A    
C6    C11   S    
C9    C18   A    
C32   C36   S    
O9    V1    S    
C74   H59   S    
C17   H6    S    
C14   C18   A    
C24   C28   A    
C69   C70   S    
O4    C8    A    
C53   H10   S    
C72   H54   S    
C20   H7    S    
C30   F2    S    
O1    V3    S    
C59   H23   S    
C12   C23   A    
O2    V4    S    
O3    V1    S    
O24   C62   S    
C55   H13   S    
C73   H57   S    
C1    O15   A    
C60   H25   S    
C2    O16   A    
O2    C6    A    
C66   C67   S    
O27   C71   S    
O14   V2    S    
C45   C49   S    
C54   H12   S    
C39   C51   T    
C2    C39   S    
O11   C7    A    
C15   C28   A    
O12   C8    A    
C72   C73   S    
C73   H56   S    
C9    C22   A    
C76   H63   S    
C75   H60   S    
C10   C17   A    
C58   H22   S    
O10   V2    S    
C67   H43   S    
C11   C24   A    
C18   H5    S    
C57   H19   S    
C56   H17   S    
C61   H27   S    
O5    V1    S    
C31   C48   S    
C62   H31   S    
C61   H29   S    
C34   C46   S    
C31   C35   S    
O7    V3    S    
C30   C34   S    
C35   O27   S    
C27   C28   A    
O8    V4    S    
C74   C75   S    
C35   C47   S    
O26   C68   S    
C67   H42   S    
C68   C69   S    
C14   C25   A    
C53   H9    S    
C69   H46   S    
C23   C27   A    
C29   C41   S    
C34   C41   S    
C57   C58   S    
C33   C42   S    
C4    O14   A    
C73   H55   S    
C65   H38   S    
O5    C1    A    
C43   F8    S    
C33   O25   S    
C64   H36   S    
C33   C45   S    
C16   O24   S    
C46   C50   S    
C61   H28   S    
C71   C72   S    
C21   C25   A    
C29   C46   S    
O8    C4    A    
C7    C10   S    
O22   C56   S    
C70   H50   S    
C55   H14   S    
C32   C44   S    
C29   F1    S    
C58   H21   S    
C10   C21   A    
C54   C55   S    
O11   V3    S    
C11   C20   A    
C40   C52   T    
C19   H8    S    
C41   F6    S    
C69   H47   S    
O6    V2    S    
C71   H52   S    
C21   H2    S    
C64   H34   S    
C32   C47   S    
C65   C66   S    
C32   F4    S    
O23   C59   S    
C63   H33   S    
C36   C48   S    
C54   H11   S    
C72   H53   S    
C56   C57   S    
C64   H35   S    
O28   C74   S    
O16   V4    S    
C62   C63   S    
C13   O21   S    
C3    O13   A    
C70   H49   S    
C44   C48   S    
C67   H41   S    
C53   C54   S    
C15   O23   S    
C15   C19   A    
C62   H30   S    
C31   F3    S    
O18   V4    S    
C36   O28   S    
O12   V4    S    
C16   C27   A    
C22   C26   A    
C8    C9    S    
C59   C60   S    
O10   C6    A    
C63   C64   S    
C68   H45   S    
C65   H37   S    
O25   C65   S    
C68   H44   S    
O9    C5    A    
C47   C51   S    
C13   C26   A    
C66   H39   S    
C42   F5    S    
C31   C43   S    
C22   H1    S    
O20   V2    S    
C57   H18   S    
C76   H64   S    
C59   H24   S    
C60   C61   S    
C55   H15   S    
C13   C17   A    
C38   C50   T    
C74   H58   S    
C37   C49   T    
O6    C2    A    
C29   C33   S    
C16   C20   A    
C34   O26   S    
C71   H51   S    
C75   C76   S    
C25   C26   A    
C42   C46   S    
C14   O22   S    
C58   H20   S    
C66   H40   S    
C41   C45   S    
C30   C42   S    
C12   C19   A    
C35   C44   S    
C63   H32   S    
C43   C47   S    
O4    V2    S    
C23   H4    S    
