data_mof_unit_3293.cif
_audit_creation_date              2013-03-05T16:07:51-0500
_audit_creation_method            fapswitch 2.2
_symmetry_space_group_name_H-M    P1
_symmetry_Int_Tables_number       1
_space_group_crystal_system       triclinic
_cell_length_a                    8.404844
_cell_length_b                    15.157705
_cell_length_c                    18.786453
_cell_angle_alpha                 102.032547
_cell_angle_beta                  91.706938
_cell_angle_gamma                 98.971069
_cell_volume                      2307.3293511

loop_
_atom_site_label
_atom_site_type_symbol
_atom_site_description
_atom_site_fract_x
_atom_site_fract_y
_atom_site_fract_z
_atom_type_partial_charge
P1    P     P_3+3 0.039440 0.410950 0.333260 0.564906
O1    O     O_2   0.871970 0.437290 0.322980 -0.380501
O2    O     O_3   0.121420 0.444460 0.412460 -0.320777
O3    O     O_3   0.661430 0.607560 0.372520 -0.439180
O4    O     O_2   0.789363 0.554201 0.251297 -0.313926
O5    O     O_3   0.993404 0.291678 0.311466 -0.462227
O6    O     O_3   0.684727 0.711210 0.266115 -0.494009
H1    H     H_    0.806650 0.762116 0.368049 0.123463
C1    C     C_3   0.735208 0.873158 0.324480 -0.905254
H2    H     H_    0.864478 0.900999 0.324238 0.247154
H3    H     H_    0.675936 0.878198 0.272251 0.307387
P2    P     P_3+3 0.676740 0.714970 0.563520 0.463862
P3    P     P_3+3 0.131253 0.777130 0.419471 0.447140
O7    O     O_2   0.852280 0.726960 0.542370 -0.353937
O8    O     O_3   0.083990 0.657360 0.410240 -0.395484
O9    O     O_2   0.021998 0.819887 0.476760 -0.416811
O10   O     O_3   0.697359 0.748886 0.658647 -0.566145
O11   O     O_3   0.072628 0.818088 0.342614 -0.632645
C2    C     C_3   0.099297 0.763817 0.274921 0.985565
H4    H     H_    0.042503 0.691363 0.270064 0.057765
C3    C     C_3   0.029472 0.801604 0.213351 -0.932318
H5    H     H_    0.054633 0.762130 0.159285 0.271989
H6    H     H_    0.897809 0.797037 0.213962 0.279627
C4    C     C_3   0.244182 0.743229 0.630563 0.384252
H7    H     H_    0.355571 0.717002 0.612881 0.085069
H8    H     H_    0.150396 0.724957 0.584690 0.130737
C5    C     C_3   0.281731 0.846693 0.654651 -0.875946
H9    H     H_    0.384784 0.866501 0.696233 0.289372
H10   H     H_    0.313479 0.877985 0.607877 0.189402
H11   H     H_    0.174538 0.873353 0.678239 0.284676
Ba1   Ba    Ba6+2 0.853510 0.540900 0.466480 1.621060
C6    C     C_3   0.124709 0.256847 0.278386 0.433174
H12   H     H_    0.233930 0.279971 0.315974 0.104380
H13   H     H_    0.145174 0.278881 0.226215 -0.027869
C7    C     C_3   0.090484 0.152658 0.260151 -0.835546
H14   H     H_    0.076711 0.125213 0.310250 0.275211
H15   H     H_    0.192327 0.125842 0.231470 0.203405
H16   H     H_    0.978683 0.128023 0.223993 0.241315
C8    C     C_3   0.736594 0.678592 0.690239 0.370289
H17   H     H_    0.831906 0.645637 0.660933 0.080482
H18   H     H_    0.626919 0.626305 0.687969 0.114511
C9    C     C_3   0.800203 0.721321 0.769430 -0.631501
H19   H     H_    0.934159 0.732798 0.773543 0.209054
H20   H     H_    0.761354 0.788767 0.787992 0.239176
P4    P     P_3+3 0.150270 0.589130 0.666750 0.455354
O12   O     O_2   0.317740 0.562750 0.677070 -0.372778
O13   O     O_3   0.068290 0.555610 0.587550 -0.398047
O14   O     O_3   0.528280 0.392520 0.627490 -0.371051
O15   O     O_3   0.188862 0.708528 0.690177 -0.573566
P5    P     P_3+3 0.059434 0.226573 0.595135 0.544956
O16   O     O_3   0.609300 0.386850 0.459730 -0.363268
O17   O     O_3   0.105720 0.342720 0.589770 -0.335305
O18   O     O_2   0.185670 0.178956 0.550702 -0.352501
O19   O     O_3   0.110280 0.214708 0.682929 -0.467746
Ba2   Ba    Ba6+2 0.336320 0.459170 0.533530 1.638593
P6    P     P_3+3 0.642489 0.598202 0.279222 0.558018
C10   C     C_3   0.706536 0.774092 0.334246 0.561355
H21   H     H_    0.599799 0.765973 0.365873 0.116020
H22   H     H_    0.687351 0.918048 0.370504 0.241192
O20   O     O_3   0.580410 0.613230 0.540280 -0.423472
C11   C     C_3   0.562918 0.293248 0.307523 0.446031
H23   H     H_    0.511402 0.357085 0.323158 0.006822
H24   H     H_    0.692741 0.307417 0.322440 0.199448
C12   C     C_3   0.539121 0.260154 0.224774 -0.756917
H25   H     H_    0.409425 0.247108 0.207009 0.182936
H26   H     H_    0.600326 0.314210 0.198491 0.188775
P7    P     P_3+3 0.516773 0.268965 0.437651 0.529895
O21   O     O_2   0.337420 0.273080 0.457680 -0.311746
O22   O     O_3   0.489919 0.226143 0.342958 -0.562857
H27   H     H_    0.082571 0.874667 0.218309 0.230042
C13   C     C_3   0.049180 0.280318 0.733676 0.441953
H28   H     H_    0.104922 0.350540 0.729880 0.107687
H29   H     H_    0.916007 0.271715 0.725222 -0.037634
C14   C     C_3   0.091641 0.266868 0.809435 -0.763697
H30   H     H_    0.223306 0.287799 0.822769 0.294574
H31   H     H_    0.028659 0.309124 0.850514 0.167570
H32   H     H_    0.055081 0.194109 0.812310 0.278661
P8    P     P_3+3 0.554908 0.399689 0.720707 0.470179
C15   C     C_3   0.545315 0.223842 0.690945 0.344422
H33   H     H_    0.653826 0.250939 0.664702 -0.094926
O23   O     O_2   0.441450 0.464307 0.757653 -0.372772
O24   O     O_3   0.474134 0.291899 0.735752 -0.497761
H34   H     H_    0.455680 0.185420 0.646364 0.112331
H35   H     H_    0.651069 0.104675 0.699486 0.056418
C16   C     C_3   0.596984 0.158186 0.735560 0.044283
H36   H     H_    0.690020 0.195723 0.779005 0.085054
C17   C     C_R   0.010792 0.438675 0.039643 0.080330
C18   C     C_R   0.926708 0.380738 0.080731 0.176226
C19   C     C_R   0.789550 0.318433 0.047771 -0.132833
C20   C     C_R   0.729016 0.319469 0.977617 -0.106205
C21   C     C_R   0.807917 0.380164 0.937673 0.163395
C22   C     C_R   0.952392 0.437765 0.967602 0.029017
C23   C     C_R   0.743429 0.385090 0.868930 -0.215249
C24   C     C_R   0.829086 0.439844 0.825451 -0.032689
C25   C     C_R   0.980589 0.493076 0.853261 0.006482
C26   C     C_R   0.036787 0.495330 0.925969 -0.038534
C27   C     C_R   0.769365 0.442461 0.754722 0.167227
C28   C     C_R   0.871950 0.483972 0.708809 -0.512211
C29   C     C_R   0.025150 0.534836 0.733943 0.234767
C30   C     C_R   0.074924 0.544905 0.809180 -0.037252
C31   C     C_R   0.153776 0.496832 0.070214 -0.009138
C32   C     C_R   0.214518 0.496989 0.141881 -0.026144
C33   C     C_R   0.116695 0.449216 0.187467 0.027232
C34   C     C_R   0.974571 0.389868 0.155084 -0.172126
H37   H     H_    0.724128 0.272187 0.077686 0.119312
H38   H     H_    0.619030 0.273518 0.954989 0.165183
H39   H     H_    0.828392 0.480251 0.653322 0.178282
H40   H     H_    0.628278 0.343760 0.849501 0.189395
H41   H     H_    0.902997 0.348200 0.186586 0.130623
C35   C     C_R   0.214526 0.605437 0.842287 -0.164201
C36   C     C_R   0.264595 0.611412 0.915664 0.127468
C37   C     C_R   0.178696 0.554129 0.956897 0.058501
C38   C     C_R   0.237611 0.554102 0.028570 -0.031483
C39   C     C_R   0.402233 0.672632 0.948318 -0.193656
C40   C     C_R   0.463811 0.669710 0.017567 -0.034647
C41   C     C_R   0.386842 0.606766 0.056406 0.025054
C42   C     C_R   0.375938 0.540530 0.165362 -0.143146
C43   C     C_R   0.467097 0.585312 0.115936 0.522821
C44   C     C_R   0.439917 0.533657 0.235281 0.352840
C45   C     C_R   0.335696 0.491403 0.280769 -0.484706
C46   C     C_R   0.170484 0.457112 0.261902 0.132486
H42   H     H_    0.285159 0.648660 0.811616 0.169042
H43   H     H_    0.466601 0.719999 0.918990 0.138353
H44   H     H_    0.576286 0.713715 0.039504 0.150571
H45   H     H_    0.385918 0.483763 0.331906 0.143401
C47   C     C_R   0.339505 0.824198 0.460501 0.283166
H46   H     H_    0.193389 0.958727 0.427760 0.189731
C48   C     C_R   0.578746 0.795078 0.521932 0.233927
C49   C     C_R   0.773895 0.213033 0.508242 0.185889
C50   C     C_R   0.849688 0.172084 0.556247 0.101306
C51   C     C_R   0.772998 0.086466 0.564638 -0.399283
C52   C     C_R   0.618962 0.047368 0.527649 0.066828
C53   C     C_R   0.532445 0.104689 0.494696 -0.077583
C54   C     C_R   0.553359 0.952393 0.517053 0.029999
C55   C     C_R   0.399690 0.918849 0.478185 0.006156
C56   C     C_R   0.311878 0.979933 0.455062 -0.125452
C57   C     C_R   0.379835 0.069540 0.460060 -0.065622
C58   C     C_R   0.638172 0.888780 0.540547 -0.282536
C59   C     C_R   0.434476 0.763706 0.479414 -0.461259
C60   C     C_R   0.607997 0.192971 0.490585 0.064581
H47   H     H_    0.750963 0.909615 0.572908 0.174215
H48   H     H_    0.838570 0.050832 0.596474 0.183725
H49   H     H_    0.311945 0.109227 0.433185 0.190105
C61   C     C_1   0.740272 0.664068 0.819921 0.118719
N1    N     N_1   0.692822 0.619664 0.860335 -0.045562
C62   C     C_1   0.606147 0.176021 0.199929 0.318059
N2    N     N_1   0.658326 0.109487 0.180196 -0.086066
S1    S     S_3+6 0.432054 0.102871 0.776638 0.006483
O25   O     O_2   0.478996 0.019974 0.798227 -0.275218
O26   O     O_2   0.394325 0.167388 0.843786 -0.263300
O27   O     O_3   0.267472 0.070844 0.718347 -0.462160
H50   H     H_    0.307468 0.043670 0.671052 0.325854
S2    S     S_3+6 0.660634 0.559840 0.096565 -0.054419
O28   O     O_2   0.790756 0.636017 0.134087 -0.308149
O29   O     O_2   0.674894 0.473753 0.121391 -0.315403
O30   O     O_3   0.680670 0.541741 0.006122 -0.554517
H51   H     H_    0.769203 0.589987 0.999210 0.355460
S3    S     S_3+6 0.308007 0.772368 0.265045 -0.089287
O31   O     O_2   0.359205 0.701615 0.300975 -0.396740
O32   O     O_2   0.348911 0.754733 0.186653 -0.345424
O33   O     O_3   0.396442 0.877879 0.307849 -0.566547
H52   H     H_    0.361395 0.919246 0.278326 0.350337
C63   C     C_1   0.384111 0.667927 0.455417 0.297760
N3    N     N_1   0.344505 0.590209 0.437012 -0.004053
S4    S     S_3+6 0.882455 0.236299 0.437026 -0.006006
O34   O     O_2   0.893087 0.336955 0.446300 -0.222902
O35   O     O_2   0.046230 0.210565 0.436833 -0.273828
O36   O     O_3   0.781938 0.177007 0.358565 -0.553083
H53   H     H_    0.775964 0.111824 0.360732 0.331444

loop_
_geom_bond_atom_site_label_1
_geom_bond_atom_site_label_2
_geom_bond_distance
_ccdc_geom_bond_type
O14   Ba2   2.796729 S    
O5    C6    1.403079 S    
C17   C18   1.409988 A    
S1    O27   1.681384 S    
C53   C57   1.394665 A    
C23   C24   1.416206 A    
C5    H10   1.102998 S    
C31   C38   1.409734 A    
O4    P6    1.547057 D    
C25   C26   1.423774 A    
C4    C5    1.518257 S    
C22   C26   1.414481 A    
O7    Ba1   2.884451 S    
C15   O24   1.411065 S    
O33   H52   0.990161 S    
C20   C21   1.405861 A    
C55   C56   1.397286 A    
C8    H18   1.111478 S    
P4    O12   1.539576 D    
C30   C35   1.410045 A    
C26   C37   1.402068 A    
S4    O34   1.487242 D    
C14   H31   1.100013 S    
P3    O11   1.771916 S    
O30   H51   0.990452 S    
C2    C3    1.533297 S    
C48   C59   1.392330 A    
C4    H8    1.110266 S    
C49   C50   1.388116 A    
C42   C44   1.434519 A    
C23   H40   1.075594 S    
C34   H41   1.081478 S    
C40   C41   1.409631 A    
P1    Ba1   3.423921 S    
O11   C2    1.408023 S    
C43   S2    1.760702 S    
P1    O1    1.539202 D    
O10   C8    1.399236 S    
O14   P8    1.737350 S    
C11   H24   1.094920 S    
C48   C58   1.396533 A    
C35   C36   1.409615 A    
P5    C50   1.881822 S    
S3    O33   1.677590 S    
C17   C31   1.403057 A    
O2    Ba2   2.811324 S    
O19   C13   1.398144 S    
C2    H4    1.111058 S    
C52   C53   1.435752 A    
C14   H32   1.110757 S    
O12   Ba2   2.845599 S    
P5    O17   1.767390 S    
O27   H50   0.990190 S    
C16   S1    1.786385 S    
H46   C56   1.076643 S    
S2    O29   1.494579 D    
C1    H2    1.103033 S    
C1    C10   1.533371 S    
C11   H23   1.108952 S    
O17   Ba2   2.796606 S    
C38   C41   1.399459 A    
C57   H49   1.076520 S    
S4    O35   1.487986 D    
Ba1   O13   2.810709 S    
Ba2   O20   2.836365 S    
O3    P6    1.729224 S    
C5    H11   1.110868 S    
S3    O32   1.501069 D    
C24   C25   1.417607 A    
C9    H20   1.111586 S    
O6    P6    1.764152 S    
C37   C38   1.420834 A    
C18   C34   1.414449 A    
C27   C28   1.408786 A    
C8    C9    1.536721 S    
P4    O13   1.568845 S    
C47   C59   1.396890 A    
P5    O18   1.543961 D    
C14   H30   1.108550 S    
P7    O21   1.571993 D    
O3    Ba1   2.797438 S    
C31   C32   1.425023 A    
C7    H16   1.109339 S    
C4    H7    1.106528 S    
C20   H38   1.082924 S    
P4    C29   1.902339 S    
C39   C40   1.397627 A    
C8    H17   1.109407 S    
C13   H29   1.109191 S    
Ba2   O21   2.884446 S    
C45   H45   1.073304 S    
C56   C57   1.371693 A    
C24   C27   1.416892 A    
C16   H36   1.109481 S    
C28   H39   1.081718 S    
P1    O5    1.746308 S    
O1    Ba1   2.844969 S    
P1    O2    1.568834 S    
C7    H14   1.107701 S    
C6    H13   1.109216 S    
Ba1   O20   2.955263 S    
P2    O10   1.748936 S    
C11   C12   1.527527 S    
C6    C7    1.523505 S    
H1    C10   1.099137 S    
C21   C23   1.406517 A    
P8    O24   1.751644 S    
C29   C30   1.432156 A    
P4    O15   1.746597 S    
P8    C27   1.863276 S    
O16   P7    1.791123 S    
H35   C16   1.108141 S    
S2    O30   1.681561 S    
O2    Ba1   2.963327 S    
P7    C60   1.900327 S    
C1    H3    1.109392 S    
C51   H48   1.077524 S    
P3    C47   1.862165 S    
S1    O26   1.501456 D    
C32   C42   1.426379 A    
O36   H53   0.990860 S    
P2    O7    1.532669 D    
C47   C55   1.410507 A    
S4    O36   1.682510 S    
P3    O8    1.767323 S    
P2    Ba1   3.445426 S    
C9    C61   1.463528 S    
S3    O31   1.489760 D    
P6    C44   1.896699 S    
C9    H19   1.109942 S    
C39   H43   1.083170 S    
C51   C52   1.430260 A    
C33   C46   1.431739 A    
C21   C22   1.406041 A    
C17   C22   1.422441 A    
C45   C46   1.411632 A    
C7    H15   1.110355 S    
O13   Ba2   2.964181 S    
C62   N2    1.156976 T    
C11   O22   1.402231 S    
C4    O15   1.395506 S    
C40   H44   1.083484 S    
C36   C37   1.411890 A    
C12   C62   1.467323 S    
C25   C30   1.430979 A    
C2    S3    1.756947 S    
Ba1   O16   2.836859 S    
C61   N1    1.155795 T    
C58   H47   1.077159 S    
C54   C58   1.416250 A    
C13   C14   1.519189 S    
C44   C45   1.416189 A    
O8    Ba1   2.796083 S    
C54   C55   1.429700 A    
P2    C48   1.852633 S    
C49   S4    1.707614 S    
C3    H27   1.111174 S    
Ba1   Ba2   4.637048 S    
C12   H25   1.105595 S    
C3    H6    1.098501 S    
C50   C51   1.398214 A    
S2    O28   1.499044 D    
C13   H28   1.111597 S    
P5    O19   1.743823 S    
C42   C43   1.432794 A    
C6    H12   1.105451 S    
C15   H34   1.109227 S    
P8    O23   1.548457 D    
C10   H21   1.095802 S    
C49   C60   1.394580 A    
C59   C63   1.419240 S    
C15   C16   1.530490 S    
C41   C43   1.409452 A    
C36   C39   1.400455 A    
O16   Ba2   2.954347 S    
S1    O25   1.502192 D    
C32   C33   1.431291 A    
P1    C46   1.933518 S    
C63   N3    1.148527 T    
C15   H33   1.112621 S    
P2    O20   1.591592 S    
C18   C19   1.406539 A    
P4    Ba2   3.424568 S    
C53   C60   1.407425 A    
C52   C54   1.429173 A    
C28   C29   1.406315 A    
P3    O9    1.541194 D    
C19   H37   1.082583 S    
C33   C34   1.414090 A    
P7    O22   1.756664 S    
C19   C20   1.402599 A    
C3    H5    1.110521 S    
C1    H22   1.110473 S    
O6    C10   1.415356 S    
C35   H42   1.081742 S    
C12   H26   1.110026 S    
C5    H9    1.109679 S    
