data_mof_unit_4684.cif
_audit_creation_date              2012-12-11T18:09:22-0500
_audit_creation_method            fapswitch 2.2
_symmetry_space_group_name_H-M    P1
_symmetry_Int_Tables_number       1
_space_group_crystal_system       triclinic
_cell_length_a                    8.367999
_cell_length_b                    12.764219
_cell_length_c                    19.133178
_cell_angle_alpha                 100.202803
_cell_angle_beta                  91.635112
_cell_angle_gamma                 98.938934
_cell_volume                      1983.58336324

loop_
_atom_site_label
_atom_site_type_symbol
_atom_type_description
_atom_site_fract_x
_atom_site_fract_y
_atom_site_fract_z
_atom_type_partial_charge
Ba1   Ba    Ba6+2 0.853180 0.547790 0.465300 1.633916
Ba2   Ba    Ba6+2 0.336650 0.452300 0.534710 1.636904
C1    C     C_3   0.675901 0.885272 0.234804 -0.401076
C2    C     C_R   0.023286 0.543597 0.727232 0.069118
C3    C     C_R   0.838821 0.434922 0.819317 -0.168435
C4    C     C_3   0.221859 0.838449 0.287178 0.309895
C5    C     C_R   0.776755 0.433799 0.750098 0.004685
C6    C     C_R   0.355508 0.570848 0.182404 -0.167180
C7    C     C_R   0.420065 0.543854 0.243685 0.020517
C8    C     C_R   0.096527 0.469506 0.200846 -0.114709
C9    C     C_R   0.162056 0.450217 0.266586 0.047206
C10   C     C_R   0.979418 0.508241 0.849390 -0.002081
C11   C     C_R   0.875331 0.480290 0.702978 -0.222042
C12   C     C_3   0.668013 0.799142 0.280672 0.383868
C13   C     C_R   0.191711 0.534163 0.156416 0.002820
C14   C     C_R   0.326595 0.477681 0.281321 -0.233687
C15   C     C_R   0.743772 0.507078 0.966330 -0.078237
C16   C     C_3   0.187524 0.862062 0.213590 -0.344877
C17   C     C_R   0.631014 0.483884 0.015495 -0.082936
C18   C     C_R   0.681418 0.496248 0.086075 -0.047881
C19   C     C_R   0.843332 0.533032 0.107090 -0.067252
C20   C     C_R   0.962828 0.532038 0.057724 0.005612
C21   C     C_R   0.912283 0.520054 0.983507 0.036959
C22   C     C_R   0.128780 0.556291 0.082448 -0.014271
C23   C     C_3   0.460686 0.255028 0.316741 0.303670
C24   C     C_R   0.233318 0.595503 0.031584 0.012129
C25   C     C_R   0.193759 0.560949 0.957051 0.022380
C26   C     C_R   0.029271 0.526105 0.930196 -0.005739
C27   C     C_R   0.366315 0.679324 0.051125 -0.107301
C28   C     C_3   0.179088 0.802792 0.632610 0.271616
C29   C     C_R   0.482733 0.704327 0.002830 0.232187
C30   C     C_R   0.461979 0.645290 0.933107 -0.080773
C31   C     C_R   0.321990 0.570605 0.911793 -0.148452
C32   C     C_R   0.763529 0.184334 0.530848 -0.277703
C33   C     C_R   0.414048 0.815019 0.487166 -0.053730
C34   C     C_3   0.444601 0.209860 0.237357 -0.382030
C35   C     C_R   0.393747 0.988078 0.457601 -0.125902
C36   C     C_R   0.326163 0.881328 0.456440 -0.027517
C37   C     C_R   0.569684 0.854161 0.519213 0.022415
C38   C     C_R   0.636116 0.965030 0.524553 -0.081965
C39   C     C_R   0.546858 0.032196 0.492296 -0.045700
C40   C     C_3   0.137279 0.913588 0.659586 -0.317346
C41   C     C_R   0.613629 0.141749 0.495153 0.058724
C42   C     C_R   0.854271 0.119099 0.560645 -0.005773
C43   C     C_R   0.789521 0.010516 0.559144 -0.103540
C44   C     C_3   0.961699 0.213358 0.383712 0.281834
C45   C     C_3   0.073910 0.243165 0.730402 0.375759
C46   C     C_3   0.962057 0.092543 0.371104 -0.347544
C47   C     C_3   0.588659 0.770101 0.688109 0.502663
C48   C     C_3   0.560102 0.881728 0.723158 -0.424736
C49   C     C_3   0.768835 0.730707 0.782270 -0.215533
C50   C     C_3   0.742514 0.812312 0.978386 -0.246970
C51   C     C_3   0.373744 0.635182 0.419627 0.011461
C52   C     C_3   0.091242 0.218204 0.804863 -0.379824
C53   C     C_3   0.548884 0.181831 0.708697 0.329842
C54   C     C_3   0.653343 0.143478 0.762031 -0.445654
C55   C     C_R   0.065185 0.567292 0.801148 -0.153030
H1    H     H_    0.748547 0.830607 0.329497 0.087100
H2    H     H_    0.479147 0.730650 0.655095 0.065937
H3    H     H_    0.637425 0.958785 0.265139 0.087782
H4    H     H_    0.668462 0.924110 0.757033 0.117707
H5    H     H_    0.454503 0.875614 0.756870 0.112776
H6    H     H_    0.536447 0.928839 0.681578 0.061338
H7    H     H_    0.540829 0.783329 0.296175 -0.109695
H8    H     H_    0.591591 0.855823 0.187285 0.104145
H9    H     H_    0.340590 0.273066 0.333887 0.022506
H10   H     H_    0.552901 0.329537 0.326099 0.066620
H11   H     H_    0.352709 0.135290 0.226160 0.117357
H12   H     H_    0.228306 0.959541 0.701712 0.118897
H13   H     H_    0.406101 0.270197 0.207985 0.065721
H14   H     H_    0.562915 0.190666 0.218562 0.129046
H15   H     H_    0.801050 0.905483 0.217853 0.132474
H16   H     H_    0.299474 0.865367 0.184076 0.063147
H17   H     H_    0.158707 0.318487 0.727960 0.092060
H18   H     H_    0.947516 0.255750 0.720429 -0.073795
H19   H     H_    0.217360 0.206926 0.816762 0.154271
H20   H     H_    0.061660 0.285786 0.844733 0.072811
H21   H     H_    0.007803 0.143240 0.809085 0.108774
H22   H     H_    0.624060 0.203171 0.664652 -0.029529
H23   H     H_    0.137956 0.957686 0.614694 0.109655
H24   H     H_    0.453614 0.113631 0.684136 0.068379
H25   H     H_    0.730654 0.212192 0.796335 0.112909
H26   H     H_    0.734261 0.091912 0.733102 0.083995
H27   H     H_    0.245544 0.754065 0.281658 -0.000307
H28   H     H_    0.575518 0.098456 0.796513 0.125384
H29   H     H_    0.162873 0.633093 0.819724 0.075121
H30   H     H_    0.770723 0.383220 0.850581 0.070198
H31   H     H_    0.443063 0.615251 0.155218 0.075435
H32   H     H_    0.974885 0.429426 0.184757 0.091361
H33   H     H_    0.831961 0.473101 0.648235 0.075751
H34   H     H_    0.015700 0.906446 0.681691 0.126955
H35   H     H_    0.380825 0.455184 0.326944 -0.023917
H36   H     H_    0.694996 0.517570 0.916084 0.071740
H37   H     H_    0.503187 0.463689 0.999782 0.080880
H38   H     H_    0.593776 0.482458 0.124613 0.082583
H39   H     H_    0.330253 0.896177 0.311949 -0.015741
H40   H     H_    0.876402 0.567432 0.161768 0.141249
H41   H     H_    0.375847 0.730217 0.102916 0.059280
H42   H     H_    0.552159 0.656210 0.894749 0.072115
H43   H     H_    0.311985 0.523467 0.859035 0.133245
H44   H     H_    0.324014 0.035091 0.430974 0.107853
H45   H     H_    0.839608 0.229837 0.397407 0.006625
H46   H     H_    0.860437 0.962733 0.584343 0.094253
H47   H     H_    0.814500 0.267893 0.531694 0.055818
H48   H     H_    0.092276 0.798186 0.183708 0.123531
H49   H     H_    0.146038 0.941427 0.218158 0.117579
H50   H     H_    0.299107 0.814821 0.610730 -0.064366
H51   H     H_    0.088251 0.759831 0.590761 0.096200
H52   H     H_    0.516960 0.693819 0.773119 0.194146
H53   H     H_    0.783452 0.811794 0.816317 0.079216
H54   H     H_    0.775261 0.670407 0.817017 0.084206
H55   H     H_    0.870244 0.727469 0.746314 0.136060
H56   H     H_    0.050384 0.250330 0.428883 0.083714
H57   H     H_    0.667349 0.783249 0.077568 0.202178
H58   H     H_    0.835245 0.879923 0.005963 0.112436
H59   H     H_    0.685848 0.839421 0.933032 0.112627
H60   H     H_    0.803654 0.742168 0.959260 0.106870
H61   H     H_    0.241238 0.686589 0.507561 0.202791
H62   H     H_    0.444798 0.573597 0.430002 0.149906
H63   H     H_    0.415099 0.681947 0.378110 -0.020426
H64   H     H_    0.264459 0.585087 0.396918 0.099874
H65   H     H_    0.878576 0.052349 0.325048 0.116366
H66   H     H_    0.922411 0.059136 0.418516 0.087924
H67   H     H_    0.086069 0.075825 0.359906 0.129996
N1    N     N_2   0.614172 0.705764 0.741861 -0.398528
N2    N     N_2   0.621074 0.784794 0.027330 -0.428690
N3    N     N_2   0.348351 0.705236 0.484344 -0.436979
O1    O     O_2   0.875110 0.423180 0.326290 -0.438107
O2    O     O_2   0.186835 0.123572 0.548650 -0.482639
O3    O     O_3   0.111863 0.156820 0.680822 -0.603332
O4    O     O_3   0.123410 0.433040 0.414950 -0.525499
O5    O     O_3   0.577950 0.634370 0.536140 -0.474149
O6    O     O_2   0.341900 0.231310 0.465740 -0.472128
O7    O     O_3   0.510040 0.178231 0.352763 -0.651802
O8    O     O_2   0.456227 0.470797 0.755221 -0.493448
O9    O     O_3   0.472649 0.265451 0.744144 -0.588888
O10   O     O_3   0.661010 0.625070 0.369680 -0.490784
O11   O     O_2   0.728710 0.505823 0.249915 -0.493923
O12   O     O_3   0.724628 0.779977 0.647270 -0.630491
O13   O     O_3   0.001540 0.250983 0.320903 -0.631346
O14   O     O_3   0.719256 0.706715 0.242204 -0.595796
O15   O     O_2   0.847800 0.768730 0.534310 -0.459629
O16   O     O_3   0.082250 0.684470 0.405440 -0.484859
O17   O     O_2   0.991891 0.873886 0.454711 -0.480202
O18   O     O_3   0.086826 0.852513 0.327239 -0.585453
O19   O     O_2   0.314600 0.576860 0.673750 -0.460911
O20   O     O_3   0.066300 0.567050 0.585060 -0.509504
O21   O     O_3   0.528700 0.375020 0.630330 -0.453216
O22   O     O_3   0.187016 0.748766 0.689591 -0.653356
O23   O     O_3   0.611760 0.365720 0.463870 -0.487960
O24   O     O_3   0.107460 0.315620 0.594570 -0.486945
P1    P     P_3+3 0.042930 0.392230 0.337410 0.966470
P2    P     P_3+3 0.672230 0.754900 0.555730 0.983604
P3    P     P_3+3 0.124272 0.824861 0.411864 0.957323
P4    P     P_3+3 0.146790 0.607860 0.662600 0.956866
P5    P     P_3+3 0.063676 0.177399 0.595247 0.941595
P6    P     P_3+3 0.630418 0.595109 0.276903 0.939017
P7    P     P_3+3 0.521760 0.228801 0.444301 0.929561
P8    P     P_3+3 0.560789 0.387550 0.721872 0.970278

loop_
_geom_bond_atom_site_label_1
_geom_bond_atom_site_label_2
_ccdc_geom_bond_type
Ba2   O23   S    
C53   C54   S    
C40   H23   S    
C49   H55   S    
C28   H50   S    
C17   C18   A    
C23   H10   S    
Ba1   O1    S    
C41   P7    S    
C46   H66   S    
C51   H63   S    
C25   C31   A    
C49   H53   S    
C44   H45   S    
C24   C25   A    
Ba2   P4    S    
C27   H41   S    
C37   P2    S    
C7    C14   A    
C22   C24   A    
C40   H34   S    
C8    C13   A    
C46   H65   S    
H57   N2    S    
C5    P8    S    
O12   P2    S    
Ba2   O21   S    
C53   O9    S    
C53   H22   S    
C55   H29   S    
Ba1   P1    S    
Ba1   Ba2   S    
C2    C11   A    
Ba1   O15   S    
C43   H46   S    
O9    P8    S    
O1    P1    D    
O19   P4    D    
C8    H32   S    
C6    C7    A    
C2    C55   A    
Ba2   O5    S    
C53   H24   S    
O20   P4    S    
O13   P1    S    
C34   H14   S    
C52   H20   S    
C50   H60   S    
Ba1   O5    S    
C12   O14   S    
C19   C20   A    
O17   P3    D    
C48   H6    S    
C39   C41   A    
O4    P1    S    
C1    H8    S    
C4    C16   S    
C34   H13   S    
Ba2   O4    S    
C50   H59   S    
C38   C43   A    
C12   H1    S    
C44   C46   S    
Ba2   O6    S    
C4    H27   S    
C23   H9    S    
C45   O3    S    
C42   P5    S    
C33   C36   A    
C32   C42   A    
C3    C10   A    
C37   C38   A    
C3    C5    A    
C4    O18   S    
C50   N2    S    
O16   P3    S    
Ba2   O20   S    
O24   P5    S    
C40   H12   S    
C32   H47   S    
C6    H31   S    
O21   P8    S    
C49   N1    S    
C33   C37   A    
C16   H49   S    
C35   C36   A    
Ba1   O16   S    
O8    P8    D    
C19   H40   S    
C9    C14   A    
C29   C30   A    
C7    P6    S    
C12   H7    S    
C51   H62   S    
O5    P2    S    
Ba1   O23   S    
C15   C21   A    
C21   C26   A    
Ba1   P2    S    
C23   O7    S    
C17   H37   S    
C1    C12   S    
C45   C52   S    
C52   H19   S    
C10   C55   A    
H52   N1    S    
C38   C39   A    
O7    P7    S    
C18   H38   S    
C10   C26   S    
C14   H35   S    
C6    C13   A    
C4    H39   S    
C47   O12   S    
C48   H5    S    
C20   C22   A    
Ba1   O20   S    
C11   H33   S    
Ba2   O19   S    
H61   N3    S    
O18   P3    S    
C33   N3    S    
Ba1   O10   S    
C42   C43   A    
C54   H26   S    
C44   O13   S    
C50   H58   S    
O14   P6    S    
Ba2   O24   S    
C13   C22   S    
C49   H54   S    
O23   P7    S    
C44   H56   S    
C28   H51   S    
C32   C41   A    
C45   H17   S    
Ba1   O4    S    
C46   H67   S    
O2    P5    D    
C34   H11   S    
C54   H25   S    
C16   H16   S    
C47   N1    S    
C47   H2    S    
C30   H42   S    
O10   P6    S    
C31   H43   S    
C30   C31   A    
C1    H15   S    
O22   P4    S    
C16   H48   S    
C45   H18   S    
C27   C29   A    
C51   H64   S    
C1    H3    S    
C35   H44   S    
O11   P6    D    
C51   N3    S    
C54   H28   S    
C15   C17   A    
O15   P2    D    
C35   C39   A    
O6    P7    D    
C8    C9    A    
C23   C34   S    
C3    H30   S    
C9    P1    S    
C5    C11   A    
C2    P4    S    
C15   H36   S    
C18   C19   A    
C24   C27   A    
C47   C48   S    
C25   C26   A    
C48   H4    S    
C36   P3    S    
C20   C21   A    
C28   C40   S    
O3    P5    S    
C29   N2    S    
C28   O22   S    
C52   H21   S    
