data_mof_unit_3405.cif
_audit_creation_date              2012-10-26T21:32:59-0400
_audit_creation_method            fapswitch 2.2
_symmetry_space_group_name_H-M    P1
_symmetry_Int_Tables_number       1
_space_group_crystal_system       triclinic
_cell_length_a                    28.211805
_cell_length_b                    18.466419
_cell_length_c                    17.066116
_cell_angle_alpha                 89.803409
_cell_angle_beta                  60.80358
_cell_angle_gamma                 89.682971
_cell_volume                      7761.25751062

loop_
_atom_site_label
_atom_site_type_symbol
_atom_type_description
_atom_site_fract_x
_atom_site_fract_y
_atom_site_fract_z
_atom_type_partial_charge
C1    C     C_R   0.701952 0.268941 0.675824 0.873581
C2    C     C_R   0.960695 0.626438 0.477496 -0.210476
C3    C     C_R   0.073949 0.900200 0.934146 0.915315
C4    C     C_R   0.574234 0.599363 0.933761 0.915650
C5    C     C_R   0.425935 0.400419 0.066099 0.914636
C6    C     C_R   0.426011 0.599768 0.065893 0.916826
C7    C     C_R   0.573948 0.400199 0.934146 0.915315
C8    C     C_R   0.529719 0.001440 0.561885 0.024603
C9    C     C_R   0.441239 0.001901 0.528354 0.022111
C10   C     C_R   0.029721 0.501440 0.561881 0.024603
C11   C     C_R   0.941241 0.501900 0.528349 0.022117
C12   C     C_R   0.510360 0.067288 0.545519 0.047132
C13   C     C_R   0.918499 0.379153 0.583785 -0.168236
C14   C     C_R   0.453953 0.938247 0.561260 0.052588
C15   C     C_R   0.470315 0.066253 0.518641 0.039297
C16   C     C_R   0.501341 0.936439 0.570801 0.057565
C17   C     C_R   0.010361 0.567287 0.545516 0.047132
C18   C     C_R   0.953955 0.438246 0.561253 0.052566
C19   C     C_R   0.970316 0.566253 0.518638 0.039298
C20   C     C_R   0.001343 0.436438 0.570796 0.057557
C21   C     C_R   0.602230 0.934879 0.572013 0.067169
C22   C     C_R   0.386630 0.064143 0.471492 0.080698
C23   C     C_R   0.367727 0.938711 0.519683 0.061037
C24   C     C_R   0.030677 0.632148 0.559413 -0.208357
C25   C     C_R   0.603741 0.066891 0.566538 0.068665
C26   C     C_R   0.102231 0.434879 0.572011 0.067169
C27   C     C_R   0.886630 0.564143 0.471490 0.080697
C28   C     C_R   0.867728 0.438711 0.519680 0.061032
C29   C     C_R   0.103741 0.566891 0.566537 0.068663
C30   C     C_R   0.656282 0.935151 0.559161 -0.126637
C31   C     C_R   0.340042 0.063998 0.458984 -0.127910
C32   C     C_R   0.329546 0.937438 0.487497 -0.106575
C33   C     C_R   0.656875 0.065347 0.557271 -0.125461
C34   C     C_R   0.156282 0.435151 0.559160 -0.126638
C35   C     C_R   0.521795 0.872200 0.588294 -0.180371
C36   C     C_R   0.840042 0.563998 0.458983 -0.127910
C37   C     C_R   0.829547 0.437438 0.487495 -0.106575
C38   C     C_R   0.156875 0.565347 0.557270 -0.125461
C39   C     C_R   0.681190 0.000048 0.556235 -0.289400
C40   C     C_R   0.316198 0.999764 0.458306 -0.297291
C41   C     C_R   0.181190 0.500047 0.556235 -0.289401
C42   C     C_R   0.816198 0.499765 0.458305 -0.297291
C43   C     C_R   0.578393 0.001006 0.567543 0.077565
C44   C     C_R   0.398880 0.001409 0.505837 0.079256
C45   C     C_R   0.078394 0.501006 0.567541 0.077563
C46   C     C_R   0.460694 0.126438 0.477498 -0.210475
C47   C     C_R   0.898882 0.501409 0.505834 0.079258
C48   C     C_R   0.070857 0.371613 0.589526 -0.180561
C49   C     C_R   0.920787 0.624592 0.452103 -0.160902
C50   C     C_R   0.875179 0.380567 0.566576 -0.191981
C51   C     C_R   0.074465 0.631463 0.575193 -0.168647
C52   C     C_R   0.570856 0.871612 0.589528 -0.180561
C53   C     C_R   0.420787 0.124592 0.452104 -0.160900
C54   C     C_R   0.375177 0.880568 0.566581 -0.191985
C55   C     C_R   0.574465 0.131464 0.575195 -0.168646
C56   C     C_2   0.804679 0.340484 0.840691 0.883955
C57   C     C_R   0.418495 0.879155 0.583793 -0.168233
C58   C     C_2   0.194522 0.662652 0.161133 0.896528
C59   C     C_2   0.193274 0.329678 0.164911 0.893067
C60   C     C_2   0.809153 0.667092 0.833041 0.894595
C61   C     C_2   0.304676 0.840511 0.840704 0.883925
C62   C     C_2   0.694516 0.162659 0.161147 0.896528
C63   C     C_2   0.693273 0.829677 0.164913 0.893065
C64   C     C_2   0.309152 0.167088 0.833043 0.894598
C65   C     C_R   0.530676 0.132148 0.559415 -0.208356
C66   C     C_R   0.722265 0.268402 0.952063 -0.008316
C67   C     C_R   0.277898 0.732693 0.048129 -0.008871
C68   C     C_R   0.278890 0.266881 0.046774 -0.004801
C69   C     C_R   0.298161 0.731296 0.324145 0.920049
C70   C     C_R   0.723062 0.729819 0.951365 -0.005131
C71   C     C_R   0.222269 0.768406 0.952059 -0.008314
C72   C     C_R   0.777895 0.232688 0.048131 -0.008863
C73   C     C_R   0.778889 0.766882 0.046774 -0.004799
C74   C     C_R   0.223062 0.229818 0.951365 -0.005131
C75   C     C_R   0.776276 0.292386 0.920397 0.003079
C76   C     C_R   0.223697 0.709218 0.080185 -0.003864
C77   C     C_R   0.223448 0.286073 0.081629 -0.002158
C78   C     C_R   0.778578 0.710551 0.916439 -0.003523
C79   C     C_R   0.276276 0.792399 0.920399 0.003039
C80   C     C_R   0.298149 0.268746 0.324209 0.894082
C81   C     C_R   0.723692 0.209219 0.080193 -0.003871
C82   C     C_R   0.723448 0.786072 0.081630 -0.002158
C83   C     C_R   0.278579 0.210548 0.916440 -0.003529
C84   C     C_R   0.803417 0.273102 0.968325 -0.246256
C85   C     C_R   0.196682 0.728142 0.032037 -0.244814
C86   C     C_R   0.196360 0.266405 0.033955 -0.243849
C87   C     C_R   0.805640 0.730263 0.964153 -0.243067
C88   C     C_R   0.303417 0.773114 0.968329 -0.246256
C89   C     C_R   0.696677 0.228143 0.032046 -0.244803
C90   C     C_R   0.696359 0.766405 0.033956 -0.243848
C91   C     C_R   0.701979 0.731017 0.675709 0.894335
C92   C     C_R   0.305640 0.230261 0.964153 -0.243067
C93   C     C_R   0.644166 0.327182 0.945674 -0.158255
C94   C     C_R   0.355887 0.673155 0.054345 -0.167904
C95   C     C_R   0.356325 0.326983 0.053950 -0.160434
C96   C     C_R   0.645058 0.670741 0.944836 -0.167938
C97   C     C_R   0.144168 0.827185 0.945672 -0.158260
C98   C     C_R   0.855885 0.173152 0.054347 -0.167912
C99   C     C_R   0.856325 0.826983 0.053950 -0.160437
C100  C     C_R   0.145058 0.170741 0.944835 -0.167941
C101  C     C_R   0.616587 0.347064 0.898548 -0.071684
C102  C     C_R   0.201952 0.768941 0.675824 0.873582
C103  C     C_R   0.383446 0.653051 0.101458 -0.069780
C104  C     C_R   0.383477 0.347241 0.101565 -0.070144
C105  C     C_R   0.617173 0.651808 0.897953 -0.069112
C106  C     C_R   0.116588 0.847066 0.898547 -0.071681
C107  C     C_R   0.883445 0.153050 0.101459 -0.069782
C108  C     C_R   0.883477 0.847241 0.101565 -0.070145
C109  C     C_R   0.117173 0.151808 0.897953 -0.069111
C110  C     C_R   0.633156 0.321863 0.813492 -0.261345
C111  C     C_R   0.366957 0.678278 0.186492 -0.257446
C112  C     C_R   0.366801 0.322062 0.186755 -0.260627
C113  C     C_R   0.798161 0.231296 0.324145 0.920049
C114  C     C_R   0.633528 0.677571 0.813138 -0.263570
C115  C     C_R   0.133156 0.821863 0.813492 -0.261349
C116  C     C_R   0.866957 0.178278 0.186492 -0.257448
C117  C     C_R   0.866801 0.822062 0.186755 -0.260628
C118  C     C_R   0.133528 0.177571 0.813138 -0.263571
C119  C     C_R   0.680004 0.281903 0.770688 -0.045846
C120  C     C_R   0.320277 0.718596 0.229203 -0.059331
C121  C     C_R   0.320500 0.281402 0.229054 -0.054061
C122  C     C_R   0.680095 0.717646 0.770545 -0.052447
C123  C     C_R   0.180004 0.781903 0.770688 -0.045844
C124  C     C_R   0.798149 0.768746 0.324209 0.894082
C125  C     C_R   0.820277 0.218595 0.229203 -0.059332
C126  C     C_R   0.820500 0.781402 0.229054 -0.054061
C127  C     C_R   0.180095 0.217646 0.770545 -0.052447
C128  C     C_R   0.708903 0.261499 0.816052 -0.150278
C129  C     C_R   0.291573 0.739479 0.183728 -0.138029
C130  C     C_R   0.292397 0.260139 0.182952 -0.142855
C131  C     C_R   0.708907 0.737638 0.815923 -0.135531
C132  C     C_R   0.208904 0.761500 0.816051 -0.150232
C133  C     C_R   0.791571 0.239477 0.183729 -0.138025
C134  C     C_R   0.792396 0.760139 0.182952 -0.142855
C135  C     C_R   0.201979 0.231017 0.675709 0.894335
C136  C     C_R   0.208907 0.237638 0.815922 -0.135528
C137  C     C_R   0.691036 0.284600 0.904291 0.129618
C138  C     C_R   0.309227 0.716185 0.095662 0.117909
C139  C     C_R   0.310014 0.283587 0.094744 0.124221
C140  C     C_R   0.691703 0.713492 0.903683 0.115739
C141  C     C_R   0.191038 0.784603 0.904289 0.129648
C142  C     C_R   0.809225 0.216181 0.095664 0.117910
C143  C     C_R   0.810014 0.783587 0.094745 0.124221
C144  C     C_R   0.191703 0.213491 0.903683 0.115742
C145  C     C_R   0.691446 0.129336 0.534641 0.909782
C146  C     C_R   0.021796 0.372200 0.588291 -0.180376
C147  C     C_R   0.303125 0.872086 0.483269 0.909740
C148  C     C_R   0.308420 0.129084 0.467159 0.900395
C149  C     C_R   0.691080 0.870538 0.535677 0.897961
C150  C     C_R   0.191446 0.629336 0.534641 0.909781
C151  C     C_R   0.803126 0.372086 0.483268 0.909735
C152  C     C_R   0.808420 0.629084 0.467159 0.900394
C153  C     C_R   0.191080 0.370538 0.535676 0.897962
C154  C     C_R   0.074234 0.099363 0.933761 0.915649
C155  C     C_R   0.925935 0.900419 0.066099 0.914636
C156  C     C_R   0.926011 0.099768 0.065894 0.916826
H1    H     H_    0.722129 0.999737 0.546550 0.199422
H2    H     H_    0.418330 0.170509 0.414811 0.170231
H3    H     H_    0.347269 0.835821 0.592901 0.185750
H4    H     H_    0.584046 0.182431 0.594608 0.177700
H5    H     H_    0.001808 0.320733 0.597892 0.144112
H6    H     H_    0.985555 0.674463 0.460501 0.150963
H7    H     H_    0.922236 0.331861 0.617651 0.173870
H8    H     H_    0.011689 0.683749 0.561774 0.150035
H9    H     H_    0.501806 0.820733 0.597896 0.144103
H10   H     H_    0.485555 0.174463 0.460503 0.150962
H11   H     H_    0.422231 0.831864 0.617664 0.173829
H12   H     H_    0.284207 0.999242 0.440385 0.193330
H13   H     H_    0.511688 0.183749 0.561776 0.150034
H14   H     H_    0.655500 0.209648 0.055614 0.185066
H15   H     H_    0.344569 0.791676 0.944889 0.180264
H16   H     H_    0.347811 0.214889 0.938217 0.183803
H17   H     H_    0.654192 0.781877 0.059973 0.177419
H18   H     H_    0.155508 0.709643 0.055600 0.185065
H19   H     H_    0.844571 0.291659 0.944879 0.180240
H20   H     H_    0.847811 0.714892 0.938215 0.183798
H21   H     H_    0.154193 0.281878 0.059971 0.177418
H22   H     H_    0.630894 0.347571 0.012729 0.155900
H23   H     H_    0.222129 0.499737 0.546551 0.199422
H24   H     H_    0.369031 0.652683 0.987369 0.155479
H25   H     H_    0.369537 0.347576 0.986926 0.155934
H26   H     H_    0.632046 0.649765 0.011631 0.158110
H27   H     H_    0.130897 0.847575 0.012726 0.155898
H28   H     H_    0.869028 0.152679 0.987371 0.155484
H29   H     H_    0.869537 0.847577 0.986926 0.155935
H30   H     H_    0.132047 0.149765 0.011631 0.158110
H31   H     H_    0.611596 0.337798 0.778083 0.177164
H32   H     H_    0.388409 0.662073 0.221984 0.178938
H33   H     H_    0.387856 0.338482 0.222608 0.177456
H34   H     H_    0.784207 0.499242 0.440385 0.193330
H35   H     H_    0.611926 0.662167 0.777820 0.176611
H36   H     H_    0.111596 0.837798 0.778083 0.177163
H37   H     H_    0.888409 0.162074 0.221984 0.178938
H38   H     H_    0.887856 0.838482 0.222608 0.177456
H39   H     H_    0.111926 0.162168 0.777820 0.176611
H40   H     H_    0.746163 0.230296 0.782193 0.142029
H41   H     H_    0.254524 0.771125 0.217452 0.146096
H42   H     H_    0.255756 0.228077 0.216386 0.146208
H43   H     H_    0.745698 0.769390 0.782304 0.145921
H44   H     H_    0.246164 0.730297 0.782191 0.142021
H45   H     H_    0.082647 0.320895 0.606706 0.173667
H46   H     H_    0.754523 0.271123 0.217453 0.146096
H47   H     H_    0.755756 0.728077 0.216386 0.146208
H48   H     H_    0.245699 0.269390 0.782304 0.145921
H49   H     H_    0.799387 0.417303 0.760756 0.357072
H50   H     H_    0.122446 0.629572 0.262592 0.351687
H51   H     H_    0.195270 0.406655 0.246977 0.358208
H52   H     H_    0.882029 0.640469 0.728075 0.350878
H53   H     H_    0.299375 0.917314 0.760759 0.357077
H54   H     H_    0.622438 0.129589 0.262611 0.351687
H55   H     H_    0.695269 0.906654 0.246979 0.358208
H56   H     H_    0.918329 0.670510 0.414810 0.170231
H57   H     H_    0.382029 0.140458 0.728082 0.350881
H58   H     H_    0.847272 0.335820 0.592897 0.185756
H59   H     H_    0.084046 0.682431 0.594608 0.177700
H60   H     H_    0.582647 0.820895 0.606706 0.173666
O1    O     O_R   0.746490 0.236330 0.638080 -0.650518
O2    O     O_R   0.325830 0.813840 0.483730 -0.640959
O3    O     O_R   0.325830 0.186160 0.483730 -0.635121
O4    O     O_R   0.674170 0.813840 0.516270 -0.632891
O5    O     O_R   0.174170 0.686160 0.516270 -0.637963
O6    O     O_R   0.825830 0.313840 0.483730 -0.640960
O7    O     O_R   0.825830 0.686160 0.483730 -0.635121
O8    O     O_R   0.174170 0.313840 0.516270 -0.632891
O9    O     O_R   0.739960 0.127620 0.525000 -0.626144
O10   O     O_R   0.260040 0.872380 0.475000 -0.629630
O11   O     O_R   0.260040 0.127620 0.475000 -0.621535
O12   O     O_R   0.253510 0.763670 0.361920 -0.629419
O13   O     O_R   0.739960 0.872380 0.525000 -0.625600
O14   O     O_R   0.239960 0.627620 0.525000 -0.626145
O15   O     O_R   0.760040 0.372380 0.475000 -0.629631
O16   O     O_R   0.760040 0.627620 0.475000 -0.621536
O17   O     O_R   0.239960 0.372380 0.525000 -0.625602
O18   O     O_R   0.680700 0.294870 0.629350 -0.637391
O19   O     O_R   0.319300 0.705130 0.370650 -0.621280
O20   O     O_R   0.319300 0.294870 0.370650 -0.631579
O21   O     O_R   0.680700 0.705130 0.629350 -0.634385
O22   O     O_R   0.180700 0.794870 0.629350 -0.637390
O23   O     O_R   0.253510 0.236330 0.361920 -0.630032
O24   O     O_R   0.819300 0.205130 0.370650 -0.621280
O25   O     O_R   0.819300 0.794870 0.370650 -0.631579
O26   O     O_R   0.180700 0.205130 0.629350 -0.634385
O27   O     O_R   0.062020 0.072840 0.007170 -0.624275
O28   O     O_R   0.937980 0.927160 0.992830 -0.624834
O29   O     O_R   0.937980 0.072840 0.992830 -0.625363
O30   O     O_R   0.062020 0.927160 0.007170 -0.624666
O31   O     O_R   0.562020 0.572840 0.007170 -0.624274
O32   O     O_R   0.437980 0.427160 0.992830 -0.624834
O33   O     O_R   0.437980 0.572840 0.992830 -0.625363
O34   O     O_R   0.746490 0.763670 0.638080 -0.631101
O35   O     O_R   0.562020 0.427160 0.007170 -0.624664
O36   O     O_R   0.947860 0.073950 0.109290 -0.621918
O37   O     O_R   0.052140 0.926050 0.890710 -0.623592
O38   O     O_R   0.052140 0.073950 0.890710 -0.623740
O39   O     O_R   0.947860 0.926050 0.109290 -0.623138
O40   O     O_R   0.447860 0.573950 0.109290 -0.621918
O41   O     O_R   0.552140 0.426050 0.890710 -0.623593
O42   O     O_R   0.552140 0.573950 0.890710 -0.623741
O43   O     O_R   0.447860 0.426050 0.109290 -0.623138
O44   O     O_2   0.854315 0.341366 0.798777 -0.657536
O45   O     O_R   0.246490 0.736330 0.638080 -0.650522
O46   O     O_R   0.775195 0.386786 0.815157 -0.786285
O47   O     O_2   0.219610 0.622025 0.184700 -0.606503
O48   O     O_R   0.137743 0.663765 0.209291 -0.816753
O49   O     O_2   0.144127 0.322633 0.211317 -0.629343
O50   O     O_R   0.220424 0.380438 0.189153 -0.779955
O51   O     O_2   0.785503 0.624687 0.809250 -0.608366
O52   O     O_R   0.865681 0.673038 0.782868 -0.817089
O53   O     O_2   0.354315 0.841437 0.798825 -0.657486
O54   O     O_R   0.275185 0.886779 0.815144 -0.786305
O55   O     O_2   0.719601 0.122031 0.184716 -0.606505
O56   O     O_R   0.753510 0.263670 0.361920 -0.629418
O57   O     O_R   0.637737 0.163778 0.209306 -0.816756
O58   O     O_2   0.644126 0.822631 0.211319 -0.629342
O59   O     O_R   0.720423 0.880438 0.189155 -0.779955
O60   O     O_2   0.285502 0.124686 0.809250 -0.608373
O61   O     O_R   0.365682 0.173028 0.782874 -0.817086
O62   O     O_R   0.753510 0.736330 0.361920 -0.630032
O63   O     O_R   0.246490 0.263670 0.638080 -0.631102
O64   O     O_R   0.674170 0.186160 0.516270 -0.637962
Zn1   Zn    Zn3+2 0.792340 0.208750 0.507670 0.954919
Zn2   Zn    Zn3+2 0.494040 0.500000 0.919480 0.952333
Zn3   Zn    Zn3+2 0.005960 0.000000 0.080520 0.957291
Zn4   Zn    Zn3+2 0.994040 0.000000 0.919480 0.952337
Zn5   Zn    Zn3+2 0.207660 0.791250 0.492330 0.956665
Zn6   Zn    Zn3+2 0.207660 0.208750 0.492330 0.962995
Zn7   Zn    Zn3+2 0.792340 0.791250 0.507670 0.960753
Zn8   Zn    Zn3+2 0.292340 0.708750 0.507670 0.954911
Zn9   Zn    Zn3+2 0.707660 0.291250 0.492330 0.956665
Zn10  Zn    Zn3+2 0.707660 0.708750 0.492330 0.962993
Zn11  Zn    Zn3+2 0.292340 0.291250 0.507670 0.960750
Zn12  Zn    Zn3+2 0.505960 0.500000 0.080520 0.957292

loop_
_geom_bond_atom_site_label_1
_geom_bond_atom_site_label_2
_ccdc_geom_bond_type
C28   C47   A    
C70   C140  S    
C58   O47   D    
C36   C42   A    
O10   Zn5   S    
C74   C83   A    
O32   Zn2   S    
C72   C142  S    
C87   H20   S    
C13   C18   A    
C99   C143  A    
C156  O29   A    
C16   C35   A    
O16   Zn10  S    
H49   O46   S    
H54   O57   S    
C37   C42   A    
C67   C138  S    
C131  C140  A    
C134  C143  A    
C10   C20   A    
C91   C122  S    
O31   Zn12  S    
C113  O56   A    
C117  C126  A    
C155  O28   A    
C24   C51   A    
C100  C109  A    
C8    C16   A    
C24   H8    S    
O6    Zn1   S    
C55   C65   A    
C147  O10   A    
C109  C118  A    
C13   H7    S    
C66   C89   A    
C80   C121  S    
C146  H5    S    
O28   Zn4   S    
C115  C123  A    
O33   Zn2   S    
C127  C136  A    
C100  C144  A    
C93   C101  A    
C124  O62   A    
C30   C149  S    
C101  C110  A    
C145  O9    A    
C29   C45   A    
C3    O37   A    
C42   H34   S    
C91   O21   A    
O29   Zn4   S    
C53   H2    S    
O30   Zn3   S    
O5    Zn5   S    
C118  H39   S    
C72   C84   A    
C38   C41   A    
C63   O59   S    
C55   H4    S    
C62   C81   S    
C150  O5    A    
C20   C146  A    
C7    O41   A    
C60   O51   D    
C102  C123  S    
C61   O54   S    
C99   H29   S    
C21   C30   A    
C34   C153  S    
C68   C77   A    
C14   C57   A    
C154  O27   A    
C2    C19   A    
C95   H25   S    
C25   C55   A    
C95   C139  A    
O64   Zn9   S    
C150  O14   A    
C151  O6    A    
C106  C115  A    
C9    C15   A    
C108  C155  S    
C92   H16   S    
C46   C53   A    
C68   C92   A    
C148  O3    A    
C126  C134  A    
C152  O7    A    
O39   Zn3   S    
C76   C85   A    
C149  O4    A    
C129  H41   S    
C91   O34   A    
O38   Zn4   S    
C78   C87   A    
C11   C18   A    
C123  C132  A    
C80   O20   A    
C100  H30   S    
C5    O43   A    
C121  C130  A    
C2    H6    S    
C71   C79   A    
C58   C76   S    
C134  H47   S    
C32   C147  S    
C99   C108  A    
C60   C78   S    
C133  C142  A    
C75   C84   A    
C132  H44   S    
O18   Zn9   S    
C26   C45   A    
C54   H3    S    
C151  O15   A    
C29   C38   A    
C3    O30   A    
C84   H19   S    
C71   C141  S    
C112  H33   S    
C56   C75   S    
C98   C142  A    
O19   Zn8   S    
C59   O49   D    
C63   C82   S    
C120  C129  A    
C153  O8    A    
O36   Zn3   S    
C104  C112  A    
C36   C152  S    
C7    O35   A    
C4    O31   A    
O56   Zn9   S    
C8    C12   A    
C10   C45   A    
C85   H18   S    
O25   Zn7   S    
O22   Zn5   S    
H53   O54   S    
C116  C125  A    
C118  C127  A    
C5    O32   A    
C69   O12   A    
C122  C131  A    
C124  C126  S    
C29   C51   A    
C27   C47   A    
C132  C141  A    
C114  H35   S    
C58   O48   S    
C108  C117  A    
C41   H23   S    
C110  C119  A    
C96   C140  A    
C149  O13   A    
C69   O19   A    
C112  C121  A    
C119  C128  A    
O3    Zn11  S    
O43   Zn12  S    
C61   C79   S    
C49   H56   S    
C30   C39   A    
C98   H28   S    
O20   Zn11  S    
C107  C116  A    
C13   C50   A    
C7    C101  S    
C15   C46   A    
C124  O25   A    
C27   C49   A    
C25   C33   A    
C152  O16   A    
C54   C57   A    
C96   C105  A    
C11   C47   A    
C8    C43   A    
C136  H48   S    
C56   O44   D    
C11   C19   A    
C67   C88   A    
C135  O63   A    
C80   O23   A    
C127  C135  S    
O4    Zn10  S    
C52   H60   S    
C31   C40   A    
C103  C111  A    
C1    C119  S    
O26   Zn6   S    
O12   Zn5   S    
C113  O24   A    
C73   C87   A    
O34   Zn7   S    
O17   Zn11  S    
C97   H27   S    
O9    Zn1   S    
C72   C81   A    
C26   C48   A    
C62   O55   D    
C81   C89   A    
O35   Zn12  S    
C25   C43   A    
C34   C41   A    
C60   O52   S    
C130  C139  A    
C61   O53   D    
C79   C88   A    
C3    C106  S    
O2    Zn8   S    
O62   Zn10  S    
H57   O61   S    
H52   O52   S    
H50   O48   S    
C86   H21   S    
C23   C44   A    
C65   H13   S    
C56   O46   S    
C9    C14   A    
C64   C83   S    
C12   C15   A    
C1    O18   A    
C111  H32   S    
C102  O45   A    
C6    O40   A    
O42   Zn2   S    
C6    C103  S    
C97   C141  A    
C115  H36   S    
C94   C103  A    
C94   C138  A    
C73   C82   A    
C73   C143  S    
C51   H59   S    
C133  H46   S    
C74   C144  S    
C46   H10   S    
C6    O33   A    
C96   H26   S    
C156  O36   A    
C57   H11   S    
C27   C36   A    
C12   C65   A    
C69   C120  S    
C82   C90   A    
C23   C32   A    
C136  C144  A    
C147  O2    A    
C66   C75   A    
O15   Zn9   S    
C154  O38   A    
C98   C107  A    
H51   O50   S    
O14   Zn8   S    
C35   C52   A    
C68   C139  S    
C1    O1    A    
O8    Zn6   S    
C70   C78   A    
C59   C77   S    
C64   O60   D    
C83   C92   A    
C90   H17   S    
C33   C39   A    
H55   O59   S    
C28   C37   A    
C135  O26   A    
C89   H14   S    
O21   Zn10  S    
C113  C125  S    
C50   H58   S    
C10   C17   A    
C117  H38   S    
O27   Zn3   S    
C21   C43   A    
C28   C50   A    
C26   C34   A    
C22   C44   A    
C129  C138  A    
C48   C146  A    
C107  C156  S    
O37   Zn4   S    
O45   Zn8   S    
C5    C104  S    
C71   C85   A    
C39   H1    S    
C70   C90   A    
C148  O11   A    
C155  O39   A    
C37   C151  S    
C22   C53   A    
C110  H31   S    
C102  O22   A    
C17   C24   A    
C22   C31   A    
C153  O17   A    
C105  C114  A    
O11   Zn6   S    
C48   H45   S    
C111  C120  A    
C62   O57   S    
C131  H43   S    
C128  C137  A    
C109  C154  S    
C2    C49   A    
C63   O58   D    
O1    Zn1   S    
C64   O61   S    
C94   H24   S    
C74   C86   A    
C33   C145  S    
O7    Zn7   S    
C116  H37   S    
O23   Zn6   S    
C77   C86   A    
O63   Zn11  S    
O24   Zn1   S    
O41   Zn2   S    
C14   C16   A    
C145  O64   A    
C31   C148  S    
O40   Zn12  S    
C95   C104  A    
C23   C54   A    
C125  C133  A    
C9    C44   A    
C4    O42   A    
C59   O50   S    
C128  H40   S    
C93   H22   S    
C4    C105  S    
C66   C137  S    
C17   C19   A    
C18   C20   A    
C32   C40   A    
C40   H12   S    
C93   C137  A    
C114  C122  A    
O13   Zn7   S    
C88   H15   S    
C35   H9    S    
C67   C76   A    
C130  H42   S    
C38   C150  S    
C21   C52   A    
C97   C106  A    
