data_mof_unit_1398.cif
_audit_creation_date              2012-12-10T18:21:18-0500
_audit_creation_method            fapswitch 2.2
_symmetry_space_group_name_H-M    P1
_symmetry_Int_Tables_number       1
_space_group_crystal_system       triclinic
_cell_length_a                    14.985979
_cell_length_b                    14.031141
_cell_length_c                    10.606529
_cell_angle_alpha                 89.963346
_cell_angle_beta                  90.054137
_cell_angle_gamma                 90.150881
_cell_volume                      2230.22974836

loop_
_atom_site_label
_atom_site_type_symbol
_atom_type_description
_atom_site_fract_x
_atom_site_fract_y
_atom_site_fract_z
_atom_type_partial_charge
C1    C     C_R   0.326650 0.499914 0.499916 0.944852
C2    C     C_3   0.588570 0.508292 0.927022 -0.552916
C3    C     C_R   0.814848 0.583836 0.467338 -0.248538
C4    C     C_R   0.769257 0.500716 0.501127 -0.075568
C5    C     C_R   0.815072 0.418345 0.536178 -0.266221
C6    C     C_R   0.907371 0.418484 0.537446 0.130890
C7    C     C_R   0.953830 0.502183 0.502484 0.061817
C8    C     C_R   0.907202 0.585037 0.467374 0.090653
C9    C     C_R   0.953687 0.336253 0.572584 -0.221017
C10   C     C_R   0.046230 0.336438 0.572513 -0.204957
C11   C     C_R   0.092742 0.418797 0.537160 0.130782
C12   C     C_R   0.495486 0.499954 0.257755 0.859800
C13   C     C_R   0.046675 0.502604 0.501939 0.029945
C14   C     C_R   0.093444 0.586081 0.465227 0.088229
C15   C     C_R   0.046209 0.669592 0.430130 0.103228
C16   C     C_R   0.953005 0.667637 0.432003 -0.258493
C17   C     C_R   0.184846 0.418449 0.536177 -0.194914
C18   C     C_R   0.230956 0.500165 0.499780 -0.056333
C19   C     C_R   0.186180 0.582841 0.463725 -0.259777
C20   C     C_R   0.549895 0.799300 0.414895 -0.072686
C21   C     C_R   0.550749 0.201047 0.415890 -0.066684
C22   C     C_R   0.448537 0.796471 0.586157 -0.059659
C23   C     C_R   0.447599 0.203160 0.584897 -0.063736
C24   C     C_R   0.444072 0.897850 0.589693 -0.048537
C25   C     C_R   0.445005 0.101768 0.590649 -0.048102
C26   C     C_R   0.673444 0.500155 0.500165 0.889401
C27   C     C_R   0.496739 0.949403 0.502657 0.049289
C28   C     C_R   0.496950 0.050549 0.502850 0.051172
C29   C     C_R   0.549793 0.899542 0.414360 0.043810
C30   C     C_R   0.550197 0.100786 0.414789 0.043086
C31   C     C_R   0.389727 0.948553 0.677336 0.061802
C32   C     C_R   0.392459 0.050845 0.680494 0.060297
C33   C     C_R   0.602009 0.050174 0.327607 -0.212759
C34   C     C_R   0.601773 0.950510 0.327353 -0.215208
C35   C     C_R   0.495219 0.499881 0.742035 0.936722
C36   C     C_3   0.431862 0.581723 0.072730 -0.424488
C37   C     C_3   0.452892 0.403927 0.072955 -0.410949
C38   C     C_3   0.438135 0.587355 0.928744 0.156157
C39   C     C_3   0.451981 0.403340 0.928894 0.135760
C40   C     C_3   0.588604 0.512402 0.071422 -0.415848
C41   C     C_3   0.492292 0.499672 0.121386 0.084104
C42   C     C_3   0.491291 0.499525 0.878238 0.054645
H1    H     H_    0.452777 0.651649 0.112746 0.167171
H2    H     H_    0.493887 0.342757 0.106328 0.165898
H3    H     H_    0.081451 0.272158 0.599255 0.145145
H4    H     H_    0.220635 0.354813 0.564380 0.161792
H5    H     H_    0.224777 0.643958 0.433957 0.170398
H6    H     H_    0.915830 0.730794 0.405500 0.141977
H7    H     H_    0.589985 0.760176 0.347726 0.125268
H8    H     H_    0.591345 0.240456 0.349330 0.128662
H9    H     H_    0.412254 0.752749 0.652124 0.172293
H10   H     H_    0.407615 0.246614 0.646367 0.173908
H11   H     H_    0.642947 0.087777 0.259574 0.137187
H12   H     H_    0.642535 0.913182 0.259125 0.135330
H13   H     H_    0.361761 0.568871 0.102913 0.208719
H14   H     H_    0.384417 0.393704 0.111263 0.208210
H15   H     H_    0.476630 0.652867 0.905054 0.117393
H16   H     H_    0.495413 0.343580 0.897436 0.126233
H17   H     H_    0.616297 0.582146 0.103028 0.181099
H18   H     H_    0.632675 0.455362 0.109339 0.177738
H19   H     H_    0.621197 0.573666 0.888945 0.190565
H20   H     H_    0.628926 0.446294 0.895059 0.187482
H21   H     H_    0.778489 0.647251 0.439558 0.155988
H22   H     H_    0.778985 0.354408 0.563254 0.159975
H23   H     H_    0.918372 0.271906 0.599604 0.144662
N1    N     N_R   0.500070 0.750030 0.500050 -0.106838
N2    N     N_R   0.500070 0.249970 0.500050 -0.106597
O1    O     O_R   0.367860 0.580280 0.500020 -0.617660
O2    O     O_R   0.367860 0.419720 0.500020 -0.623060
O3    O     O_R   0.500000 0.580270 0.314790 -0.635130
O4    O     O_R   0.500000 0.419730 0.314790 -0.631875
O5    O     O_R   0.632160 0.580270 0.499960 -0.625419
O6    O     O_R   0.632160 0.419730 0.499960 -0.626638
O7    O     O_R   0.500030 0.580270 0.685200 -0.624329
O8    O     O_R   0.500030 0.419730 0.685200 -0.622095
Zn1   Zn    Zn3+2 0.500020 0.607200 0.499990 0.945779
Zn2   Zn    Zn3+2 0.500020 0.392800 0.499990 0.947887
C43   C     C_3   0.092301 0.760755 0.388273 -0.420077
C44   C     C_3   0.131616 0.815483 0.500828 -0.335798
C45   C     C_3   0.189329 0.898738 0.456490 -0.891953
H24   H     H_    0.247130 0.872203 0.401293 0.267786
H25   H     H_    0.149541 0.948320 0.397366 0.263054
H26   H     H_    0.215015 0.938313 0.539365 0.246205
H27   H     H_    0.076327 0.843294 0.560021 0.224118
H28   H     H_    0.173056 0.768136 0.560823 0.234888
H29   H     H_    0.144439 0.744156 0.317253 0.202548
H30   H     H_    0.044224 0.808407 0.339258 0.195942
C46   C     C_3   0.328341 0.894512 0.767488 -0.425124
C47   C     C_3   0.377478 0.869193 0.890222 -0.329291
C48   C     C_3   0.312314 0.845288 0.996271 -0.839472
H31   H     H_    0.274118 0.909856 0.023326 0.245912
H32   H     H_    0.264712 0.789028 0.966239 0.298327
H33   H     H_    0.349812 0.819592 0.079961 0.245214
H34   H     H_    0.421891 0.807510 0.873234 0.224627
H35   H     H_    0.420244 0.929514 0.921666 0.213910
H36   H     H_    0.267392 0.936337 0.787860 0.214941
H37   H     H_    0.300147 0.829495 0.723330 0.208458
C49   C     C_3   0.340262 0.104989 0.781174 -0.415756
C50   C     C_3   0.247968 0.135179 0.732050 -0.337230
C51   C     C_3   0.183437 0.155393 0.840027 -0.822663
H38   H     H_    0.170377 0.089075 0.894314 0.242020
H39   H     H_    0.211276 0.210055 0.904569 0.303735
H40   H     H_    0.119160 0.181713 0.801497 0.242420
H41   H     H_    0.254650 0.199928 0.672606 0.228112
H42   H     H_    0.218494 0.078044 0.672644 0.210317
H43   H     H_    0.333210 0.062266 0.868378 0.217121
H44   H     H_    0.378304 0.167563 0.815591 0.210845
Br1   Br    Br    0.320818 0.607503 0.852087 -0.543320
Br2   Br    Br    0.333307 0.371446 0.864965 -0.565983

loop_
_geom_bond_atom_site_label_1
_geom_bond_atom_site_label_2
_ccdc_geom_bond_type
C43   H30   S    
C46   H36   S    
C35   O7    A    
C40   H18   S    
C27   C29   A    
C26   O5    A    
O2    Zn2   S    
C1    O1    A    
N2    Zn2   S    
C24   C27   A    
O4    Zn2   S    
O5    Zn1   S    
C16   H6    S    
C6    C9    A    
C23   H10   S    
C7    C8    A    
C25   C28   A    
C35   O8    A    
C1    C18   S    
C12   C41   S    
O7    Zn1   S    
C20   N1    A    
C38   C42   S    
C5    C6    A    
C19   H5    S    
C15   C43   S    
C15   C16   A    
C26   O6    A    
C18   C19   A    
C23   N2    A    
C47   H34   S    
C35   C42   S    
C22   N1    A    
C37   H14   S    
C31   C32   A    
C9    C10   A    
C46   H37   S    
C2    H19   S    
C43   H29   S    
C25   C32   A    
C50   H41   S    
C8    C16   A    
C40   H17   S    
C13   C14   A    
C21   N2    A    
C37   C41   S    
C36   C41   S    
C45   H26   S    
C21   H8    S    
C33   C34   A    
C39   C42   S    
C20   C29   A    
C33   H11   S    
C50   H42   S    
C17   H4    S    
C45   H25   S    
C3    C8    A    
C43   C44   S    
C45   H24   S    
C39   H16   S    
C29   C34   A    
C51   H40   S    
C1    O2    A    
C49   H44   S    
C5    H22   S    
C47   H35   S    
C20   H7    S    
C38   H15   S    
C48   H32   S    
C50   C51   S    
C39   Br2   S    
N1    Zn1   S    
C10   H3    S    
C51   H39   S    
C17   C18   A    
O8    Zn2   S    
C40   C41   S    
C12   O4    A    
C34   H12   S    
O3    Zn1   S    
C22   C24   A    
C3    C4    A    
C44   H28   S    
C48   H33   S    
C12   O3    A    
C11   C17   A    
C31   C46   S    
C30   C33   A    
C14   C19   A    
C4    C5    A    
C4    C26   S    
C6    C7    A    
C3    H21   S    
O1    Zn1   S    
C21   C30   A    
C49   H43   S    
C37   H2    S    
C36   C38   S    
C24   C31   A    
C37   C39   S    
C36   H13   S    
C11   C13   A    
C48   H31   S    
C44   H27   S    
C2    C42   S    
C28   C30   A    
C51   H38   S    
C32   C49   S    
C23   C25   A    
C38   Br1   S    
C9    H23   S    
C10   C11   A    
C44   C45   S    
C2    C40   S    
C7    C13   A    
C46   C47   S    
C49   C50   S    
C27   C28   A    
O6    Zn2   S    
C14   C15   A    
C36   H1    S    
C47   C48   S    
C2    H20   S    
C22   H9    S    
