data_mof_unit_2761.cif
_audit_creation_date              2012-12-10T17:54:19-0500
_audit_creation_method            fapswitch 2.2
_symmetry_space_group_name_H-M    P1
_symmetry_Int_Tables_number       1
_space_group_crystal_system       triclinic
_cell_length_a                    27.68996
_cell_length_b                    10.712132
_cell_length_c                    9.870586
_cell_angle_alpha                 89.246466
_cell_angle_beta                  90.258664
_cell_angle_gamma                 91.733902
_cell_volume                      2926.18002565

loop_
_atom_site_label
_atom_site_type_symbol
_atom_type_description
_atom_site_fract_x
_atom_site_fract_y
_atom_site_fract_z
_atom_type_partial_charge
C1    C     C_R   0.502941 0.259777 0.502023 0.875342
C2    C     C_R   0.277454 0.481447 0.376529 -0.096442
C3    C     C_R   0.252516 0.487023 0.499071 0.315699
C4    C     C_R   0.101235 0.487931 0.511702 -0.056572
C5    C     C_R   0.125920 0.383634 0.560900 -0.019356
C6    C     C_R   0.099806 0.281307 0.615607 -0.136132
C7    C     C_R   0.127273 0.589072 0.451910 -0.021636
C8    C     C_R   0.353225 0.495377 0.499300 -0.037796
C9    C     C_R   0.646767 0.499018 0.502230 -0.045264
C10   C     C_R   0.973060 0.381929 0.557519 0.061347
C11   C     C_R   0.976371 0.608552 0.506198 0.018566
C12   C     C_R   0.405998 0.499054 0.499734 0.851938
C13   C     C_R   0.949433 0.495486 0.529897 0.035336
C14   C     C_R   0.944923 0.270420 0.572088 -0.221178
C15   C     C_R   0.894923 0.271124 0.562645 -0.138145
C16   C     C_R   0.871367 0.383127 0.540381 -0.009593
C17   C     C_R   0.898525 0.495869 0.526046 -0.057764
C18   C     C_R   0.874699 0.608850 0.507398 -0.053639
C19   C     C_R   0.824197 0.606756 0.499771 0.519134
C20   C     C_R   0.820985 0.385379 0.531967 0.502506
C21   C     C_R   0.723164 0.508788 0.383825 -0.100112
C22   C     C_R   0.672949 0.509698 0.380869 -0.211776
C23   C     C_R   0.494850 0.738795 0.499613 0.894163
C24   C     C_R   0.671427 0.487149 0.626210 -0.212188
C25   C     C_R   0.721517 0.485812 0.628707 -0.102467
C26   C     C_R   0.747327 0.496671 0.507724 0.321817
C27   C     C_R   0.024015 0.383366 0.566967 0.047176
C28   C     C_R   0.050422 0.490672 0.520864 0.069330
C29   C     C_R   0.026354 0.599892 0.480575 0.041131
C30   C     C_R   0.049616 0.280451 0.617513 -0.223184
C31   C     C_R   0.102364 0.688839 0.395274 -0.141834
C32   C     C_R   0.951893 0.724236 0.512216 0.148130
C33   C     C_R   0.901353 0.721705 0.504660 -0.190962
C34   C     C_R   0.594004 0.500037 0.500407 0.884126
C35   C     C_R   0.052443 0.692360 0.406584 -0.210866
C36   C     C_R   0.507965 0.107040 0.762502 -0.159972
C37   C     C_R   0.491796 0.043721 0.878887 -0.144318
C38   C     C_R   0.466360 0.930619 0.867430 -0.153118
C39   C     C_R   0.461484 0.875233 0.741030 -0.146797
C40   C     C_R   0.481962 0.933616 0.624068 0.098866
C41   C     C_R   0.498477 0.057773 0.631751 0.097187
C42   C     C_R   0.504570 0.125691 0.507691 -0.119485
C43   C     C_R   0.504337 0.064289 0.383588 -0.213314
C44   C     C_R   0.498046 0.937347 0.380496 -0.209363
C45   C     C_R   0.176373 0.384668 0.554267 0.503104
C46   C     C_R   0.488446 0.871181 0.500421 -0.128585
C47   C     C_R   0.436074 0.337194 0.141861 -0.177823
C48   C     C_R   0.404514 0.257424 0.072028 -0.211848
C49   C     C_R   0.404513 0.257574 0.931851 -0.176517
C50   C     C_R   0.436168 0.337248 0.860798 -0.167111
C51   C     C_R   0.468520 0.419702 0.928249 0.149883
C52   C     C_R   0.468508 0.419722 0.073105 0.170225
C53   C     C_R   0.529982 0.577126 0.070908 -0.126439
C54   C     C_R   0.529960 0.577109 0.927503 -0.120288
C55   C     C_R   0.177660 0.586046 0.447081 0.506016
C56   C     C_R   0.277774 0.496195 0.621686 -0.102366
C57   C     C_R   0.327940 0.500141 0.622018 -0.225632
C58   C     C_R   0.327661 0.485700 0.376460 -0.222296
H1    H     H_    0.346355 0.481159 0.280578 0.166649
H2    H     H_    0.258425 0.500981 0.716494 0.142876
H3    H     H_    0.121229 0.763623 0.340431 0.191265
H4    H     H_    0.652106 0.478562 0.721199 0.162312
H5    H     H_    0.882545 0.808990 0.502700 0.188693
H6    H     H_    0.740391 0.476702 0.724501 0.136864
H7    H     H_    0.034359 0.763597 0.349579 0.147576
H8    H     H_    0.509705 0.113992 0.288221 0.172006
H9    H     H_    0.529246 0.191700 0.778086 0.172417
H10   H     H_    0.498212 0.083776 0.977748 0.145475
H11   H     H_    0.257862 0.474038 0.281632 0.143991
H12   H     H_    0.451876 0.883734 0.956881 0.141894
H13   H     H_    0.441589 0.786914 0.735759 0.160289
H14   H     H_    0.501730 0.891075 0.284259 0.169537
H15   H     H_    0.554430 0.640036 0.124449 0.148352
H16   H     H_    0.433851 0.331243 0.249253 0.209795
H17   H     H_    0.379990 0.194916 0.127205 0.162800
H18   H     H_    0.380133 0.194840 0.877640 0.166105
H19   H     H_    0.434536 0.330327 0.753499 0.211850
H20   H     H_    0.554375 0.640054 0.872717 0.156854
H21   H     H_    0.118025 0.200665 0.655810 0.190094
H22   H     H_    0.654730 0.519153 0.284114 0.160516
H23   H     H_    0.743335 0.517268 0.290254 0.137436
H24   H     H_    0.874794 0.183210 0.572901 0.189547
H25   H     H_    0.960745 0.180291 0.585689 0.138849
H26   H     H_    0.031732 0.199238 0.662388 0.142322
H27   H     H_    0.346824 0.507316 0.718078 0.166331
N1    N     N_R   0.201011 0.485474 0.499297 -0.357030
N2    N     N_R   0.798710 0.496049 0.511391 -0.359006
N3    N     N_R   0.499540 0.498800 0.142780 -0.121676
N4    N     N_R   0.499520 0.498720 0.857170 -0.127500
O1    O     O_R   0.500000 0.316780 0.614690 -0.653824
O2    O     O_2   0.794361 0.278175 0.544074 -0.550334
O3    O     O_2   0.203233 0.683409 0.392605 -0.557659
O4    O     O_2   0.800616 0.714279 0.482113 -0.550987
O5    O     O_R   0.500000 0.316750 0.385360 -0.638007
O6    O     O_R   0.428760 0.500030 0.614650 -0.647348
O7    O     O_R   0.428750 0.500010 0.385320 -0.638868
O8    O     O_R   0.500000 0.683250 0.614640 -0.622333
O9    O     O_R   0.500000 0.683220 0.385310 -0.617984
O10   O     O_R   0.571250 0.499990 0.614680 -0.620354
O11   O     O_R   0.571240 0.499970 0.385350 -0.616668
O12   O     O_2   0.200703 0.285778 0.601663 -0.558896
Zn1   Zn    Zn3+2 0.500000 0.500020 0.653130 0.927380
Zn2   Zn    Zn3+2 0.500000 0.499980 0.346870 0.938801
C59   C     C_3   0.976227 0.848824 0.550988 -0.413363
C60   C     C_3   0.003762 0.839416 0.685112 -0.820023
H28   H     H_    0.035308 0.778810 0.675875 0.269223
H29   H     H_    0.979527 0.801209 0.765952 0.261624
H30   H     H_    0.017212 0.933836 0.715151 0.237796
H31   H     H_    0.999855 0.889453 0.471315 0.198912
H32   H     H_    0.948658 0.920885 0.565038 0.196586

loop_
_geom_bond_atom_site_label_1
_geom_bond_atom_site_label_2
_ccdc_geom_bond_type
C10   C27   A    
C21   C26   A    
C38   H12   S    
C1    O1    A    
N4    Zn1   S    
C41   C42   A    
C31   H3    S    
C7    C55   A    
C36   H9    S    
C53   C54   A    
C40   C46   A    
C60   H29   S    
C37   C38   A    
C28   C29   A    
C19   N2    A    
C5    C6    A    
C9    C22   A    
C35   H7    S    
O9    Zn2   S    
C37   H10   S    
C56   C57   A    
C18   C19   A    
C26   N2    S    
O1    Zn1   S    
C8    C58   A    
C1    O5    A    
C34   O11   A    
C32   C59   S    
C12   O6    A    
C44   H14   S    
C2    H11   S    
O8    Zn1   S    
C19   O4    S    
O6    Zn1   S    
C8    C12   S    
C23   C46   S    
C21   C22   A    
C3    N1    S    
C48   H17   S    
C36   C41   A    
C14   H25   S    
C4    C7    A    
C59   C60   S    
C4    C28   A    
C44   C46   A    
C50   C51   A    
C15   H24   S    
C60   H30   S    
C33   H5    S    
C7    C31   A    
C51   C52   A    
C52   N3    A    
C24   C25   A    
C54   N4    A    
C10   C14   A    
C39   C40   A    
C16   C17   A    
C58   H1    S    
C5    C45   A    
O11   Zn2   S    
C56   H2    S    
C25   H6    S    
C43   C44   A    
C55   O3    S    
C8    C57   A    
C3    C56   A    
C1    C42   S    
C47   C48   A    
C16   C20   A    
C23   O9    A    
C17   C18   A    
C49   H18   S    
C45   O12   S    
C48   C49   A    
C6    C30   A    
C21   H23   S    
O5    Zn2   S    
C9    C34   S    
C31   C35   A    
C42   C43   A    
C50   H19   S    
N3    Zn2   S    
C40   C41   A    
C24   H4    S    
C23   O8    A    
C14   C15   A    
C53   H15   S    
C47   H16   S    
C4    C5    A    
C10   C13   A    
C11   C32   A    
C2    C58   A    
C9    C24   A    
C47   C52   A    
C34   O10   A    
C60   H28   S    
C29   C35   A    
C13   C17   A    
C32   C33   A    
C55   N1    A    
C2    C3    A    
C25   C26   A    
C22   H22   S    
C51   N4    A    
C59   H32   S    
C20   N2    A    
C11   C13   A    
C6    H21   S    
C38   C39   A    
C43   H8    S    
C57   H27   S    
C45   N1    A    
C53   N3    A    
C30   H26   S    
C18   C33   A    
C20   O2    S    
O10   Zn1   S    
C11   C29   A    
C36   C37   A    
C49   C50   A    
O7    Zn2   S    
C27   C28   A    
C39   H13   S    
C59   H31   S    
C12   O7    A    
C54   H20   S    
C15   C16   A    
C27   C30   A    
