data_mof_unit_4285.cif
_audit_creation_date              2012-12-11T17:14:07-0500
_audit_creation_method            fapswitch 2.2
_symmetry_space_group_name_H-M    P1
_symmetry_Int_Tables_number       1
_space_group_crystal_system       triclinic
_cell_length_a                    18.22036
_cell_length_b                    7.091652
_cell_length_c                    12.999263
_cell_angle_alpha                 90.305655
_cell_angle_beta                  72.079728
_cell_angle_gamma                 89.91025
_cell_volume                      1598.14680387

loop_
_atom_site_label
_atom_site_type_symbol
_atom_type_description
_atom_site_fract_x
_atom_site_fract_y
_atom_site_fract_z
_atom_type_partial_charge
O1    O     O_R   0.453880 0.506200 0.150010 -0.538517
O2    O     O_R   0.546120 0.006200 0.849990 -0.537647
O3    O     O_R   0.604080 0.177770 0.007280 -0.539156
O4    O     O_R   0.395920 0.677770 0.992720 -0.540207
C1    C     C_R   0.635992 0.344414 0.001726 0.730669
C2    C     C_R   0.364008 0.844589 0.998261 0.730984
O5    O     O_R   0.458010 0.176640 0.159130 -0.540929
O6    O     O_R   0.541990 0.676640 0.840870 -0.541849
O7    O     O_R   0.399010 0.004010 0.002930 -0.535384
O8    O     O_R   0.600990 0.504010 0.997070 -0.536543
C3    C     C_R   0.443067 0.345965 0.201763 0.690706
C4    C     C_R   0.556957 0.844495 0.798176 0.690613
O9    O     O_3   0.480810 0.338440 0.948570 -0.374271
O10   O     O_3   0.519190 0.838440 0.051430 -0.374880
V1    V     V_3+5 0.503560 0.064490 0.009540 1.426319
V2    V     V_3+5 0.496440 0.564490 0.990460 1.422120
C5    C     C_R   0.583998 0.817060 0.500725 -0.165343
C6    C     C_R   0.415247 0.421422 0.497011 -0.164584
H1    H     H_    0.486502 0.809617 0.644213 0.105355
H2    H     H_    0.512802 0.417837 0.353454 0.106472
H3    H     H_    0.663492 0.803700 0.292630 0.122727
H4    H     H_    0.335392 0.457749 0.704091 0.121873
H5    H     H_    0.548450 0.798047 0.448199 0.120744
H6    H     H_    0.450466 0.453890 0.548473 0.120622
C7    C     C_R   0.593049 0.849247 0.681264 -0.029385
C8    C     C_R   0.406822 0.358073 0.318499 -0.030118
C9    C     C_R   0.955534 0.881134 0.385465 0.434128
C10   C     C_R   0.044894 0.320129 0.615873 0.435771
C11   C     C_R   0.922632 0.896045 0.497473 -0.202102
C12   C     C_R   0.077969 0.293274 0.504676 -0.202158
C13   C     C_R   0.843045 0.886774 0.544746 -0.238130
C14   C     C_R   0.157378 0.307320 0.456822 -0.240383
C15   C     C_R   0.792999 0.864143 0.481072 0.079528
C16   C     C_R   0.207038 0.347140 0.519226 0.079135
C17   C     C_R   0.826338 0.852469 0.366629 0.000959
C18   C     C_R   0.173490 0.371911 0.632962 0.001312
C19   C     C_R   0.711001 0.854340 0.527007 0.090559
C20   C     C_R   0.288855 0.361873 0.472756 0.090581
C21   C     C_R   0.664529 0.831205 0.457658 0.137471
C22   C     C_R   0.334908 0.403020 0.540763 0.137073
C23   C     C_R   0.698599 0.820888 0.345906 -0.204913
C24   C     C_R   0.300613 0.426598 0.651829 -0.203892
C25   C     C_R   0.778057 0.831855 0.300969 -0.173990
C26   C     C_R   0.221351 0.410833 0.697364 -0.173147
C27   C     C_R   0.673229 0.864829 0.639595 -0.217136
C28   C     C_R   0.326846 0.338475 0.360878 -0.217030
C29   C     C_R   0.548557 0.824393 0.612009 -0.178108
C30   C     C_R   0.450910 0.400332 0.386328 -0.177858
C31   C     C_R   0.907474 0.863901 0.319700 -0.171596
C32   C     C_R   0.092578 0.355523 0.680526 -0.172213
H7    H     H_    0.704197 0.880911 0.697576 0.097643
H8    H     H_    0.296201 0.308048 0.303886 0.097814
H9    H     H_    0.822798 0.899025 0.631497 0.140785
H10   H     H_    0.177801 0.285203 0.370693 0.142541
H11   H     H_    0.959049 0.916939 0.548520 0.157697
H12   H     H_    0.041786 0.259836 0.454814 0.162874
H13   H     H_    0.801295 0.823008 0.213782 0.119305
H14   H     H_    0.197915 0.430363 0.783986 0.118989
C33   C     C_1   0.216269 0.858596 0.000463 -0.179734
C34   C     C_1   0.783731 0.358891 0.999519 -0.179016
C35   C     C_1   0.283570 0.852653 0.999243 -0.190128
C36   C     C_1   0.716434 0.352465 0.000747 -0.189841
O11   O     O_R   0.899030 0.205490 0.002790 -0.534549
O12   O     O_R   0.100970 0.705490 0.997210 -0.540376
O13   O     O_R   0.042000 0.536370 0.840840 -0.548311
O14   O     O_R   0.958000 0.036370 0.159160 -0.536874
C37   C     C_R   0.057207 0.367471 0.798158 0.751539
C38   C     C_R   0.942736 0.868888 0.201902 0.752236
O15   O     O_R   0.895930 0.535070 0.992690 -0.543298
O16   O     O_R   0.104070 0.035070 0.007310 -0.537507
O17   O     O_R   0.953870 0.707520 0.150040 -0.546132
O18   O     O_R   0.046130 0.207520 0.849960 -0.534414
C39   C     C_R   0.864156 0.366842 0.998583 0.747837
C40   C     C_R   0.135848 0.866637 0.001412 0.748465
O19   O     O_3   0.019200 0.374340 0.051340 -0.378989
O20   O     O_3   0.980800 0.874340 0.948660 -0.376862
V3    V     V_3+5 0.996440 0.648350 0.990470 1.427795
V4    V     V_3+5 0.003560 0.148350 0.009530 1.462344
O21   O     O_3   0.034483 0.898685 0.338659 -0.563135
C41   C     C_3   0.071145 0.735520 0.361036 -0.269212
H15   H     H_    0.047378 0.604890 0.335554 0.134597
H16   H     H_    0.066987 0.728288 0.448078 0.145368
H17   H     H_    0.133286 0.741918 0.314235 0.169625
O22   O     O_3   0.966290 0.297400 0.663305 -0.561234
C42   C     C_3   0.927745 0.455628 0.639057 -0.269946
H18   H     H_    0.933475 0.461076 0.551426 0.144463
H19   H     H_    0.948731 0.589287 0.665484 0.133648
H20   H     H_    0.865402 0.443690 0.683904 0.169742

loop_
_geom_bond_atom_site_label_1
_geom_bond_atom_site_label_2
_ccdc_geom_bond_type
O14   C38   A    
C31   C38   S    
C9    C11   A    
O12   V3    S    
O15   V3    S    
O1    C3    A    
O2    C4    A    
C2    O7    A    
C18   C32   A    
C21   C23   A    
C42   H18   S    
O5    C3    A    
C10   O22   S    
C5    H5    S    
C6    H6    S    
C2    C35   S    
O20   V4    S    
C9    O21   S    
H1    C29   S    
O16   V4    S    
C27   H7    S    
C28   H8    S    
C34   C39   S    
C34   C36   T    
C37   O18   A    
C5    C21   A    
C6    C22   A    
O18   V4    S    
C10   C32   A    
O22   C42   S    
C26   H14   S    
O13   C37   A    
C17   C31   A    
C13   C15   A    
O15   C39   A    
C12   C14   A    
C17   C25   A    
C32   C37   S    
C7    C29   A    
C8    C30   A    
C22   C24   A    
O6    V2    S    
C23   C25   A    
C24   C26   A    
C41   H17   S    
C14   H10   S    
C42   H19   S    
O14   V4    S    
C33   C35   T    
O13   V3    S    
O20   V3    S    
C41   H16   S    
C8    C28   A    
C11   H11   S    
C3    C8    S    
C12   H12   S    
C15   C19   A    
C14   C16   A    
O4    V2    S    
O16   C40   A    
O6    C4    A    
O1    V2    S    
C13   H9    S    
O2    V1    S    
O19   V3    S    
C33   C40   S    
H2    C30   S    
H3    C23   S    
O4    C2    A    
C18   C26   A    
C19   C27   A    
C7    C27   A    
O17   V3    S    
O3    V1    S    
C42   H20   S    
C16   C20   A    
C5    C29   A    
C41   H15   S    
O3    C1    A    
C6    C30   A    
O11   C39   A    
C4    C7    S    
C10   C12   A    
O7    V1    S    
C1    O8    A    
C19   C21   A    
O8    V2    S    
C20   C22   A    
H4    C24   S    
C38   O17   A    
O5    V1    S    
C15   C17   A    
C1    C36   S    
C16   C18   A    
O19   V4    S    
C20   C28   A    
C25   H13   S    
O21   C41   S    
C11   C13   A    
O9    V2    S    
O12   C40   A    
O10   V1    S    
C9    C31   A    
O11   V4    S    
