data_mof_unit_2762.cif
_audit_creation_date              2013-03-05T16:48:42-0500
_audit_creation_method            fapswitch 2.2
_symmetry_space_group_name_H-M    P1
_symmetry_Int_Tables_number       1
_space_group_crystal_system       triclinic
_cell_length_a                    27.771056
_cell_length_b                    8.916288
_cell_length_c                    8.097936
_cell_angle_alpha                 90.027115
_cell_angle_beta                  89.99996
_cell_angle_gamma                 90.0
_cell_volume                      2005.16803887

loop_
_atom_site_label
_atom_site_type_symbol
_atom_site_description
_atom_site_fract_x
_atom_site_fract_y
_atom_site_fract_z
_atom_type_partial_charge
O1    O     O_R   0.500000 0.285350 0.636850 -0.613944
O2    O     O_R   0.500000 0.714650 0.363150 -0.613944
O3    O     O_R   0.500000 0.714650 0.636850 -0.613679
O4    O     O_R   0.500000 0.285350 0.363150 -0.613679
C1    C     C_R   0.500000 0.217994 0.499975 0.946748
C2    C     C_R   0.500000 0.782006 0.500025 0.946748
O5    O     O_R   0.428760 0.500000 0.636860 -0.623824
O6    O     O_R   0.571240 0.500000 0.363140 -0.623818
O7    O     O_R   0.571240 0.500000 0.636860 -0.623818
O8    O     O_R   0.428760 0.500000 0.363140 -0.623824
C3    C     C_R   0.405756 0.500000 0.500000 0.871977
C4    C     C_R   0.594243 0.500000 0.500000 0.871987
Zn1   Zn    Zn3+2 0.500000 0.500000 0.682780 0.996731
Zn2   Zn    Zn3+2 0.500000 0.500000 0.317220 0.996731
C5    C     C_R   0.177796 0.368914 0.529347 0.506500
C6    C     C_R   0.822225 0.631133 0.470907 0.506388
C7    C     C_R   0.177796 0.631086 0.470655 0.506500
C8    C     C_R   0.822225 0.368867 0.529092 0.506388
O9    O     O_2   0.202830 0.241577 0.557055 -0.533993
O10   O     O_2   0.797200 0.758550 0.443553 -0.534144
O11   O     O_2   0.202830 0.758422 0.442947 -0.533993
O12   O     O_2   0.797200 0.241449 0.556446 -0.534144
N1    N     N_R   0.201652 0.500000 0.500001 -0.361045
N2    N     N_R   0.798361 0.500000 0.499999 -0.360901
C9    C     C_R   0.277811 0.495443 0.649836 -0.096691
C10   C     C_R   0.722182 0.507574 0.350343 -0.096309
C11   C     C_R   0.277811 0.504557 0.350165 -0.096691
C12   C     C_R   0.722183 0.492426 0.649656 -0.096309
C13   C     C_R   0.327831 0.495619 0.650076 -0.205255
C14   C     C_R   0.672163 0.507379 0.350101 -0.205593
C15   C     C_R   0.327831 0.504380 0.349925 -0.205256
C16   C     C_R   0.672163 0.492620 0.649899 -0.205593
C17   C     C_R   0.252893 0.500000 0.500001 0.320677
C18   C     C_R   0.747110 0.500000 0.500000 0.319741
C19   C     C_R   0.101812 0.500000 0.500000 -0.050146
C20   C     C_R   0.898209 0.500000 0.499999 -0.050184
C21   C     C_R   0.127438 0.366405 0.529887 -0.021345
C22   C     C_R   0.872583 0.633627 0.470318 -0.021247
C23   C     C_R   0.127439 0.633594 0.470114 -0.021345
C24   C     C_R   0.872583 0.366373 0.529680 -0.021247
C25   C     C_R   0.102493 0.233551 0.559426 -0.137845
C26   C     C_R   0.897529 0.766515 0.440965 -0.137803
C27   C     C_R   0.102494 0.766448 0.440575 -0.137845
C28   C     C_R   0.897529 0.233484 0.559033 -0.137802
C29   C     C_R   0.353162 0.500000 0.500000 -0.040895
C30   C     C_R   0.646834 0.500000 0.500000 -0.040863
H1    H     H_    0.346581 0.507793 0.232672 0.164253
H2    H     H_    0.653410 0.486774 0.767003 0.164308
H3    H     H_    0.346580 0.492207 0.767328 0.164253
H4    H     H_    0.653410 0.513226 0.232996 0.164308
H5    H     H_    0.121454 0.129474 0.582799 0.191352
H6    H     H_    0.878569 0.870625 0.417774 0.191316
H7    H     H_    0.121454 0.870525 0.417202 0.191352
H8    H     H_    0.878569 0.129374 0.582223 0.191316
C31   C     C_R   0.974472 0.363880 0.530180 0.048458
C32   C     C_R   0.025550 0.636106 0.469741 0.048446
C33   C     C_R   0.974472 0.636119 0.469819 0.048458
C34   C     C_R   0.025550 0.363893 0.530258 0.048445
C35   C     C_R   0.949288 0.500000 0.499999 0.070400
C36   C     C_R   0.050734 0.500000 0.500000 0.070429
C37   C     C_R   0.947392 0.231869 0.559402 -0.220263
C38   C     C_R   0.052630 0.768073 0.440266 -0.220294
C39   C     C_R   0.947392 0.768130 0.440596 -0.220263
C40   C     C_R   0.052630 0.231926 0.559734 -0.220294
H9    H     H_    0.963287 0.124178 0.583466 0.136521
H10   H     H_    0.036736 0.875725 0.415980 0.136629
H11   H     H_    0.963287 0.875821 0.416532 0.136521
H12   H     H_    0.036736 0.124274 0.584021 0.136629
C41   C     C_1   0.500000 0.065221 0.499964 -0.182725
C42   C     C_1   0.500000 0.934779 0.500035 -0.182725
N3    N     N_1   0.500000 0.500000 0.073640 -0.035338
N4    N     N_1   0.500000 0.500000 0.926360 -0.035338
H13   H     H_    0.258341 0.507868 0.234310 0.137683
H14   H     H_    0.741646 0.486762 0.765391 0.138186
H15   H     H_    0.258340 0.492131 0.765692 0.137683
H16   H     H_    0.741646 0.513237 0.234608 0.138186

loop_
_geom_bond_atom_site_label_1
_geom_bond_atom_site_label_2
_geom_bond_distance
_ccdc_geom_bond_type
O5    Zn1   2.013054 S    
C31   C35   1.422030 A    
Zn2   N3    1.972495 S    
C20   C35   1.418509 A    
C12   H14   1.083110 S    
C13   H3    1.083347 S    
C11   C17   1.397419 A    
C5    O9    1.350176 S    
C7    N1    1.364464 A    
O1    C1    1.260397 A    
C40   H12   1.074721 S    
C19   C21   1.408613 A    
C22   C26   1.393060 A    
C33   C35   1.422029 A    
C34   C36   1.422038 A    
O7    Zn1   2.013051 S    
C32   C33   1.418507 A    
C7    C23   1.398664 A    
C8    C24   1.398671 A    
C5    C21   1.398664 A    
C1    C41   1.362172 S    
C27   H7    1.083692 S    
N1    C17   1.423014 S    
C10   H16   1.083110 S    
C8    N2    1.364578 A    
O3    Zn1   1.949859 S    
C6    O10   1.350183 S    
O3    C2    1.260544 A    
C5    N1    1.364465 A    
C14   H4    1.083180 S    
C12   C18   1.397347 A    
C6    N2    1.364578 A    
C15   H1    1.083349 S    
C21   C25   1.393052 A    
C16   H2    1.083179 S    
O2    C2    1.260397 A    
C10   C18   1.397350 A    
C33   C39   1.416784 A    
C9    C13   1.389105 A    
C39   H11   1.074705 S    
C38   H10   1.074721 S    
C11   C15   1.389105 A    
C12   C16   1.389100 A    
C4    C30   1.460508 S    
O8    Zn2   2.013053 S    
C23   C27   1.393052 A    
C34   C40   1.416802 A    
N2    C18   1.423292 S    
C32   C36   1.422037 A    
C13   C29   1.404791 A    
C19   C36   1.418493 A    
C9    H15   1.083272 S    
C19   C23   1.408615 A    
C37   H9    1.074705 S    
O5    C3    1.279224 A    
C20   C24   1.408574 A    
O6    C4    1.279205 A    
C10   C14   1.389100 A    
C32   C38   1.416802 A    
C3    C29   1.460577 S    
O1    Zn1   1.949514 S    
C2    C42   1.362172 S    
O6    Zn2   2.013051 S    
C8    O12   1.350183 S    
C16   C30   1.404528 A    
C14   C30   1.404527 A    
O4    C1    1.260544 A    
Zn1   N4    1.972495 S    
C28   C37   1.384818 A    
C20   C22   1.408574 A    
N3    N4    1.192663 T    
C31   C37   1.416785 A    
O4    Zn2   1.949860 S    
C41   C42   1.163058 T    
O2    Zn2   1.949513 S    
O7    C4    1.279205 A    
C7    O11   1.350175 S    
C9    C17   1.397416 A    
O8    C3    1.279224 A    
C28   H8    1.083683 S    
C24   C28   1.393061 A    
C15   C29   1.404789 A    
C31   C34   1.418504 A    
C26   H6    1.083683 S    
C25   C40   1.384826 A    
C11   H13   1.083269 S    
C26   C39   1.384821 A    
C25   H5    1.083692 S    
C27   C38   1.384826 A    
C6    C22   1.398671 A    
