data_mof_unit_1632.cif
_audit_creation_date              2012-12-11T15:53:52-0500
_audit_creation_method            fapswitch 2.2
_symmetry_space_group_name_H-M    P1
_symmetry_Int_Tables_number       1
_space_group_crystal_system       triclinic
_cell_length_a                    10.591127
_cell_length_b                    10.751934
_cell_length_c                    17.022871
_cell_angle_alpha                 80.714191
_cell_angle_beta                  99.354218
_cell_angle_gamma                 118.873994
_cell_volume                      1667.20194798

loop_
_atom_site_label
_atom_site_type_symbol
_atom_type_description
_atom_site_fract_x
_atom_site_fract_y
_atom_site_fract_z
_atom_type_partial_charge
C1    C     C_R   0.384984 0.284897 0.632146 0.557791
C2    C     C_1   0.334384 0.186740 0.781639 -0.058978
C3    C     C_1   0.318144 0.680775 0.280132 -0.069040
C4    C     C_R   0.369012 0.654490 0.586144 0.538509
C5    C     C_1   0.296995 0.704441 0.209611 -0.071701
C6    C     C_R   0.857815 0.683188 0.165766 0.001271
C7    C     C_R   0.893921 0.590706 0.220386 0.004820
C8    C     C_R   0.885820 0.582164 0.300167 0.008418
C9    C     C_R   0.837314 0.783165 0.278001 -0.128038
C10   C     C_R   0.835359 0.787584 0.194799 -0.022757
C11   C     C_3   0.839659 0.433813 0.220465 -0.245396
C12   C     C_R   0.392610 0.829341 0.674306 -0.138312
C13   C     C_3   0.825156 0.422402 0.308894 -0.114637
C14   C     C_R   0.846021 0.670568 0.329219 -0.012287
C15   C     C_R   0.270328 0.070293 0.177384 0.010111
C16   C     C_R   0.777444 0.619075 0.626709 0.544927
C17   C     C_R   0.190157 0.126902 0.199794 0.044729
C18   C     C_R   0.203137 0.156479 0.276272 0.015573
C19   C     C_R   0.390067 0.083314 0.312643 -0.167186
C20   C     C_R   0.367643 0.042773 0.235120 -0.179355
C21   C     C_3   0.175838 0.257709 0.164626 -0.109635
C22   C     C_3   0.178912 0.284357 0.249554 -0.235022
C23   C     C_R   0.375918 0.851446 0.749989 -0.153335
C24   C     C_R   0.311196 0.146439 0.331967 0.011720
C25   C     C_R   0.891772 0.701919 0.855910 0.549035
C26   C     C_R   0.281212 0.750712 0.882723 0.573204
C27   C     C_R   0.287111 0.118771 0.858406 0.551539
C28   C     C_R   0.348784 0.222021 0.401639 0.551544
C29   C     C_R   0.889332 0.692924 0.084925 0.527471
C30   C     C_R   0.284425 0.737716 0.125743 0.541341
C31   C     C_R   0.247696 0.041175 0.095177 0.548678
C32   C     C_R   0.362085 0.656381 0.361588 0.547014
C33   C     C_R   0.775482 0.623903 0.401461 0.544039
C34   C     C_3   0.127868 0.458955 0.793347 -0.247849
C35   C     C_R   0.279302 0.737071 0.798455 0.004817
C36   C     C_R   0.179707 0.612362 0.762831 0.020746
C37   C     C_R   0.196896 0.589946 0.688381 0.011260
C38   C     C_3   0.924836 0.372732 0.364836 -0.259594
C39   C     C_3   0.854648 0.210312 0.377277 -0.443355
C40   C     C_3   0.304138 0.377469 0.119552 -0.250215
C41   C     C_3   0.457917 0.409164 0.156128 -0.418412
C42   C     C_3   0.799236 0.893622 0.137537 -0.254115
C43   C     C_3   0.740759 0.974052 0.174274 -0.443547
C44   C     C_3   0.147132 0.434630 0.711683 -0.253731
C45   C     C_R   0.313651 0.692105 0.647005 0.011666
C46   C     C_1   0.823703 0.656880 0.705914 -0.034449
C47   C     C_1   0.851179 0.684664 0.773717 -0.037703
C48   C     C_1   0.365367 0.233728 0.714431 -0.057448
Cr1   Cr    Cr6+3 0.608440 0.389080 0.519680 1.004688
Cr2   Cr    Cr6+3 0.288640 0.400090 0.490760 0.990724
Cr3   Cr    Cr6+3 0.602940 0.710800 0.489510 1.007194
Cr4   Cr    Cr6+3 0.052530 0.947560 0.964210 0.992197
Cr5   Cr    Cr6+3 0.059970 0.626800 0.992920 0.990628
Cr6   Cr    Cr6+3 0.373320 0.938440 0.995370 0.989072
H1    H     H_    0.478101 0.915219 0.641586 0.147256
H2    H     H_    0.012664 0.405493 0.806194 0.152547
H3    H     H_    0.203631 0.442277 0.842023 0.152924
H4    H     H_    0.234433 0.404998 0.713418 0.147096
H5    H     H_    0.043203 0.366714 0.677534 0.149596
H6    H     H_    0.815424 0.856655 0.302492 0.146410
H7    H     H_    0.924339 0.409855 0.206640 0.145849
H8    H     H_    0.755820 0.167361 0.408884 0.146977
H9    H     H_    0.824323 0.165008 0.318929 0.138687
H10   H     H_    0.931964 0.176985 0.413928 0.156433
H11   H     H_    0.030314 0.415121 0.340211 0.168951
H12   H     H_    0.733945 0.380814 0.184131 0.123835
H13   H     H_    0.946648 0.414129 0.423987 0.173566
H14   H     H_    0.473518 0.419000 0.221255 0.149891
H15   H     H_    0.483774 0.325764 0.144924 0.165345
H16   H     H_    0.537068 0.511793 0.126864 0.140165
H17   H     H_    0.290679 0.353217 0.056869 0.181093
H18   H     H_    0.297225 0.476975 0.116499 0.188514
H19   H     H_    0.645578 0.898554 0.207096 0.181909
H20   H     H_    0.827184 0.049210 0.214893 0.120402
H21   H     H_    0.706528 0.037625 0.126080 0.151797
H22   H     H_    0.897863 0.975279 0.109666 0.178308
H23   H     H_    0.709786 0.364127 0.322055 0.173758
H24   H     H_    0.716038 0.834822 0.089615 0.170007
H25   H     H_    0.473350 0.073290 0.355164 0.130180
H26   H     H_    0.432486 0.999671 0.219092 0.134235
H27   H     H_    0.068655 0.230863 0.130248 0.126560
H28   H     H_    0.270186 0.386360 0.268717 0.159582
H29   H     H_    0.071872 0.264605 0.264019 0.112926
H30   H     H_    0.446740 0.953846 0.772952 0.141233
O1    O     O_R   0.754020 0.497590 0.609930 -0.516267
O2    O     O_R   0.406180 0.826930 0.920660 -0.510035
O3    O     O_R   0.358620 0.062870 0.901950 -0.510413
O4    O     O_R   0.481420 0.271390 0.600630 -0.489806
O5    O     O_R   0.163910 0.085460 0.050210 -0.530208
O6    O     O_R   0.935200 0.815170 0.045770 -0.528447
O7    O     O_R   0.916120 0.596690 0.069430 -0.517631
O8    O     O_R   0.192310 0.631200 0.086170 -0.506940
O9    O     O_R   0.406770 0.819480 0.096420 -0.524309
O10   O     O_R   0.359170 0.055960 0.064880 -0.517636
O11   O     O_3   0.161940 0.837600 0.984160 -0.301516
O12   O     O_R   0.295080 0.533620 0.397890 -0.517061
O13   O     O_R   0.263810 0.254550 0.589590 -0.508803
O14   O     O_R   0.300820 0.531200 0.560890 -0.515842
O15   O     O_R   0.491480 0.744020 0.564270 -0.519133
O16   O     O_R   0.726290 0.693800 0.583010 -0.494922
O17   O     O_R   0.747830 0.500190 0.434090 -0.526853
O18   O     O_R   0.475680 0.273800 0.437630 -0.504244
O19   O     O_R   0.257620 0.257160 0.413750 -0.520640
O20   O     O_R   0.485280 0.746620 0.388440 -0.514162
O21   O     O_R   0.720550 0.696220 0.420010 -0.504910
O22   O     O_3   0.500010 0.499990 0.499980 -0.257597
O23   O     O_R   0.163320 0.092900 0.874450 -0.502150
O24   O     O_R   0.934650 0.822080 0.882840 -0.487422
O25   O     O_R   0.915520 0.604140 0.893670 -0.518785
O26   O     O_R   0.191760 0.638110 0.923230 -0.498931

loop_
_geom_bond_atom_site_label_1
_geom_bond_atom_site_label_2
_ccdc_geom_bond_type
Cr5   O26   S    
C43   H19   S    
C34   H2    S    
C8    C13   S    
C40   H17   S    
C4    O14   A    
C10   C42   S    
Cr4   O6    S    
C19   C20   A    
C14   C33   S    
C7    C8    A    
C7    C11   S    
C39   H10   S    
C12   C23   A    
C18   C24   A    
C22   H28   S    
C36   C37   A    
C30   O9    A    
Cr1   O17   S    
Cr6   O3    S    
Cr5   O11   S    
C44   H5    S    
Cr4   O11   S    
Cr6   O9    S    
C35   C36   A    
Cr4   O23   S    
C44   H4    S    
C31   O5    A    
Cr5   O7    S    
C34   H3    S    
C32   O20   A    
C2    C27   S    
C9    C10   A    
C26   O26   A    
C11   H12   S    
C25   O25   A    
C43   H20   S    
Cr2   O19   S    
C21   C22   S    
C43   H21   S    
Cr1   O4    S    
Cr4   O5    S    
C29   O6    A    
C41   H14   S    
C4    C45   S    
Cr3   O15   S    
C15   C20   A    
C13   H23   S    
Cr2   O14   S    
C23   H30   S    
C20   H26   S    
Cr1   O1    S    
C34   C44   S    
C30   O8    A    
C16   C46   S    
Cr1   O18   S    
Cr6   O2    S    
C16   O16   A    
C3    C5    T    
Cr3   O20   S    
C17   C21   S    
C19   H25   S    
C9    C14   A    
C38   H11   S    
C27   O23   A    
C26   O2    A    
Cr5   O8    S    
C17   C18   A    
Cr6   O11   S    
C33   O21   A    
C27   O3    A    
C13   C38   S    
Cr1   O22   S    
C40   C41   S    
C32   O12   A    
C21   H27   S    
C42   H24   S    
C23   C35   A    
C16   O1    A    
C33   O17   A    
C42   C43   S    
C1    O13   A    
C29   O7    A    
C41   H15   S    
C5    C30   S    
Cr5   O25   S    
Cr3   O16   S    
C15   C17   A    
C39   H8    S    
C25   C47   S    
C46   C47   T    
Cr2   O13   S    
C8    C14   A    
C40   H18   S    
C18   C22   S    
C24   C28   S    
C12   C45   A    
C11   H7    S    
C6    C10   A    
C1    C48   S    
C15   C31   S    
C6    C7    A    
C31   O10   A    
C39   H9    S    
C42   H22   S    
C9    H6    S    
C2    C48   T    
C22   H29   S    
C37   C44   S    
C19   C24   A    
C11   C13   S    
C28   O19   A    
Cr2   O12   S    
C38   C39   S    
C21   C40   S    
C1    O4    A    
Cr3   O22   S    
C34   C36   S    
C3    C32   S    
Cr3   O21   S    
Cr6   O10   S    
C12   H1    S    
C28   O18   A    
C26   C35   S    
C6    C29   S    
C38   H13   S    
Cr4   O24   S    
C4    O15   A    
Cr2   O22   S    
C37   C45   A    
C25   O24   A    
C41   H16   S    
