data_mof_unit_3769.cif
_audit_creation_date              2012-12-10T19:54:18-0500
_audit_creation_method            fapswitch 2.2
_symmetry_space_group_name_H-M    P1
_symmetry_Int_Tables_number       1
_space_group_crystal_system       triclinic
_cell_length_a                    15.708815
_cell_length_b                    14.993835
_cell_length_c                    14.207047
_cell_angle_alpha                 90.114646
_cell_angle_beta                  89.680753
_cell_angle_gamma                 90.214877
_cell_volume                      3346.18018005

loop_
_atom_site_label
_atom_site_type_symbol
_atom_type_description
_atom_site_fract_x
_atom_site_fract_y
_atom_site_fract_z
_atom_type_partial_charge
C1    C     C_R   0.500852 0.327721 0.499937 0.961469
C2    C     C_R   0.501093 0.672310 0.500108 0.940845
C3    C     C_R   0.545119 0.188009 0.575609 0.591616
C4    C     C_R   0.543895 0.812671 0.423264 0.574532
C5    C     C_R   0.506291 0.231782 0.499791 -0.325363
C6    C     C_R   0.506975 0.768321 0.500520 -0.340711
C7    C     C_R   0.474526 0.183095 0.423042 0.569508
C8    C     C_R   0.477553 0.816558 0.578986 0.583148
C9    C     C_R   0.480817 0.091274 0.422847 -0.261865
C10   C     C_R   0.483762 0.908402 0.579210 -0.265352
C11   C     C_R   0.518418 0.048084 0.498977 -0.003701
C12   C     C_R   0.518871 0.952159 0.501418 -0.007199
C13   C     C_R   0.427746 0.473083 0.104452 0.277242
C14   C     C_R   0.527774 0.576656 0.894380 0.255830
C15   C     C_R   0.431467 0.465717 0.204802 0.375464
C16   C     C_R   0.532286 0.572097 0.794876 0.342410
C17   C     C_R   0.567320 0.535935 0.204795 0.550332
C18   C     C_R   0.472656 0.427086 0.796600 0.565260
C19   C     C_R   0.571489 0.533141 0.105790 0.278468
C20   C     C_R   0.478315 0.423812 0.895614 0.256295
C21   C     C_R   0.500579 0.503048 0.053572 -0.133635
C22   C     C_R   0.503598 0.500602 0.946788 -0.154158
C23   C     C_R   0.337911 0.500345 0.500356 0.884785
C24   C     C_R   0.662046 0.500065 0.499732 0.873268
C25   C     C_3   0.971508 0.423689 0.540368 -0.510983
C26   C     C_3   0.028180 0.579427 0.459383 -0.510474
C27   C     C_3   0.028962 0.431788 0.451988 0.427319
C28   C     C_3   0.970716 0.571349 0.547784 0.430772
C29   C     C_1   0.249076 0.501770 0.501520 -0.172181
C30   C     C_1   0.750793 0.499914 0.498888 -0.135825
C31   C     C_3   0.025580 0.496735 0.588798 0.440713
C32   C     C_3   0.974031 0.506334 0.411070 0.443149
C33   C     C_3   0.083061 0.503399 0.501170 -0.046021
C34   C     C_3   0.916709 0.499681 0.498670 -0.047642
C35   C     C_1   0.173826 0.502823 0.502001 0.072905
C36   C     C_1   0.826002 0.499737 0.498227 0.085977
C37   C     C_R   0.550910 0.096161 0.574978 -0.262153
C38   C     C_R   0.549515 0.904585 0.423920 -0.264889
H1    H     H_    0.946151 0.361523 0.572422 0.169823
H2    H     H_    0.053430 0.641609 0.427261 0.167446
H3    H     H_    0.580514 0.062387 0.633626 0.179091
H4    H     H_    0.577354 0.938818 0.364028 0.183922
H5    H     H_    0.454365 0.053638 0.364661 0.181789
H6    H     H_    0.458886 0.945613 0.638710 0.185378
N1    N     N_R   0.500000 0.499980 0.252470 -0.224125
N2    N     N_R   0.500000 0.500020 0.747530 -0.223266
O1    O     O_R   0.500010 0.369070 0.579480 -0.512971
O2    O     O_R   0.499990 0.630930 0.420520 -0.558764
O3    O     O_R   0.500010 0.369060 0.420520 -0.558124
O4    O     O_R   0.499990 0.630940 0.579480 -0.523801
O5    O     O_R   0.376780 0.500000 0.579460 -0.581133
O6    O     O_R   0.623220 0.500000 0.420540 -0.546450
O7    O     O_R   0.376780 0.499990 0.420510 -0.618999
O8    O     O_R   0.623220 0.500010 0.579490 -0.636416
Zn1   Zn    Zn3+2 0.500000 0.500010 0.606140 1.075084
Zn2   Zn    Zn3+2 0.500000 0.499990 0.393860 1.074417
O9    O     O_3   0.066583 0.361993 0.399799 -0.611580
C39   C     C_3   0.003829 0.298277 0.376599 0.120975
H7    H     H_    0.946922 0.329741 0.344231 0.168151
H8    H     H_    0.984035 0.260696 0.440560 0.151333
C40   C     C_3   0.040611 0.232425 0.305904 -0.825133
H9    H     H_    0.098656 0.200851 0.334925 0.270212
H10   H     H_    0.992907 0.179658 0.290351 0.211990
H11   H     H_    0.057160 0.267377 0.239434 0.249152
O10   O     O_3   0.932182 0.641289 0.598868 -0.617480
C41   C     C_3   0.994941 0.703104 0.626974 0.118190
H12   H     H_    0.020902 0.739265 0.564759 0.152654
H13   H     H_    0.047926 0.669985 0.664982 0.175324
C42   C     C_3   0.954888 0.770902 0.693303 -0.836374
H14   H     H_    0.928594 0.736611 0.756383 0.252001
H15   H     H_    0.003680 0.820057 0.716090 0.217120
H16   H     H_    0.902784 0.806775 0.657042 0.262813
F1    F     F_    0.632462 0.573271 0.253186 -0.577969
F2    F     F_    0.440305 0.355859 0.749991 -0.582734
O11   O     O_3   0.643620 0.564284 0.060124 -0.505574
C43   C     C_3   0.706155 0.496952 0.060056 0.163030
H17   H     H_    0.733997 0.489848 0.131495 0.186125
H18   H     H_    0.679828 0.431452 0.036914 0.088176
C44   C     C_3   0.776834 0.522670 0.991591 -0.836735
H19   H     H_    0.804931 0.587904 0.012078 0.269981
H20   H     H_    0.827445 0.471178 0.992266 0.201062
H21   H     H_    0.750961 0.527803 0.919195 0.235523
O12   O     O_3   0.452772 0.347190 0.941774 -0.504468
C45   C     C_3   0.524063 0.291377 0.952593 0.145156
H22   H     H_    0.575366 0.325692 0.992616 0.097946
H23   H     H_    0.549258 0.269730 0.882752 0.183819
C46   C     C_3   0.497479 0.208914 0.007672 -0.742133
H24   H     H_    0.446978 0.172128 0.969140 0.264043
H25   H     H_    0.553101 0.164357 0.016929 0.194980
H26   H     H_    0.472803 0.228643 0.078110 0.275658
O13   O     O_3   0.939931 0.507781 0.319431 -0.590597
C47   C     C_3   0.005345 0.526843 0.254010 0.127314
H27   H     H_    0.061523 0.482864 0.263917 0.151651
H28   H     H_    0.025621 0.597744 0.260527 0.145362
C48   C     C_3   0.972044 0.511853 0.154912 -0.843683
H29   H     H_    0.916851 0.556097 0.141883 0.275089
H30   H     H_    0.022858 0.527087 0.102640 0.204160
H31   H     H_    0.951814 0.441273 0.146116 0.252922
O14   O     O_3   0.059182 0.494603 0.680665 -0.597898
C49   C     C_3   0.992878 0.477598 0.745687 0.123143
H32   H     H_    0.968922 0.408110 0.737510 0.147575
H33   H     H_    0.939128 0.525046 0.737038 0.165087
C50   C     C_3   0.026759 0.488278 0.845104 -0.837337
H34   H     H_    0.051021 0.557245 0.855539 0.254536
H35   H     H_    0.975047 0.475271 0.896949 0.207156
H36   H     H_    0.079103 0.440166 0.857162 0.269368
F3    F     F_    0.578746 0.233728 0.649290 -0.640745
F4    F     F_    0.575520 0.767514 0.347908 -0.607340
F5    F     F_    0.435354 0.223764 0.349808 -0.624362
F6    F     F_    0.440408 0.775516 0.653900 -0.638357
O15   O     O_3   0.355489 0.444523 0.057288 -0.535937
C51   C     C_3   0.313317 0.518464 0.016729 0.134522
H37   H     H_    0.344626 0.538858 0.950056 0.140575
H38   H     H_    0.311102 0.577196 0.064983 0.086858
C52   C     C_3   0.222410 0.492164 0.992626 -0.829180
H39   H     H_    0.185734 0.476808 0.057537 0.234301
H40   H     H_    0.190792 0.548145 0.955803 0.210757
H41   H     H_    0.222493 0.432704 0.945880 0.282983
O16   O     O_3   0.549719 0.655096 0.939566 -0.530840
C53   C     C_3   0.477595 0.710737 0.943577 0.139202
H42   H     H_    0.425525 0.678838 0.985111 0.095808
H43   H     H_    0.454187 0.726682 0.871659 0.192095
C54   C     C_3   0.501653 0.797666 0.992017 -0.747348
H44   H     H_    0.553027 0.831814 0.951738 0.258351
H45   H     H_    0.445358 0.842115 0.995926 0.197119
H46   H     H_    0.524248 0.784028 0.064520 0.275645
O17   O     O_3   0.374787 0.411928 0.254794 -0.514333
C55   C     C_3   0.288457 0.436909 0.244172 0.214657
H47   H     H_    0.277941 0.497069 0.200594 0.087659
H48   H     H_    0.261895 0.453998 0.314085 0.152387
C56   C     C_3   0.236901 0.357614 0.208389 -0.717945
H49   H     H_    0.239010 0.302547 0.260506 0.270434
H50   H     H_    0.169643 0.377655 0.198467 0.179877
H51   H     H_    0.262629 0.332796 0.140448 0.292147
O18   O     O_3   0.565279 0.643095 0.744773 -0.515651
C57   C     C_3   0.654998 0.642023 0.751387 0.149616
H52   H     H_    0.681523 0.574479 0.736650 0.122168
H53   H     H_    0.675578 0.663817 0.822626 0.179239
C58   C     C_3   0.692463 0.706526 0.679626 -0.767316
H54   H     H_    0.668387 0.774974 0.693017 0.251805
H55   H     H_    0.762941 0.706862 0.684951 0.227443
H56   H     H_    0.674499 0.685800 0.607309 0.252565

loop_
_geom_bond_atom_site_label_1
_geom_bond_atom_site_label_2
_ccdc_geom_bond_type
C24   O6    A    
C41   H13   S    
C46   H24   S    
C25   C31   S    
C42   H16   S    
C48   H29   S    
C43   C44   S    
C56   H51   S    
C55   H47   S    
C51   H38   S    
C48   H31   S    
O18   C57   S    
C56   H50   S    
C27   C33   S    
C26   C32   S    
C4    F4    S    
C37   H3    S    
C1    C5    S    
C23   C29   S    
C19   C21   A    
C17   N1    A    
C38   H4    S    
C42   H14   S    
C58   H56   S    
C54   H45   S    
C32   O13   S    
C24   O8    A    
C52   H39   S    
C18   C20   A    
C42   H15   S    
C11   C37   A    
C49   H32   S    
C2    O4    A    
C17   C19   A    
O12   C45   S    
N1    Zn2   S    
C52   H40   S    
N2    Zn1   S    
C31   C33   S    
C31   O14   S    
C34   C36   S    
C53   C54   S    
C25   C34   S    
C39   C40   S    
C41   H12   S    
C28   C34   S    
C18   F2    S    
C15   O17   S    
C21   C22   S    
C17   F1    S    
C2    C6    S    
C57   C58   S    
C18   N2    A    
C49   H33   S    
C51   H37   S    
C53   H43   S    
C23   O7    A    
C39   H8    S    
C28   C31   S    
C9    H5    S    
C10   H6    S    
C43   H18   S    
C54   H44   S    
C43   H17   S    
C4    C6    A    
C27   O9    S    
C16   N2    A    
O13   C47   S    
C5    C7    A    
C1    O1    A    
C54   H46   S    
C6    C8    A    
C3    F3    S    
C39   H7    S    
C49   C50   S    
C7    F5    S    
C32   C34   S    
C40   H11   S    
O11   C43   S    
C8    F6    S    
C26   C33   S    
C23   O5    A    
O14   C49   S    
C58   H54   S    
C52   H41   S    
C47   H28   S    
C13   C21   A    
C50   H35   S    
C45   H22   S    
C9    C11   A    
C10   C12   A    
C57   H53   S    
C20   C22   A    
O10   C41   S    
C13   C15   A    
C14   C16   A    
C20   O12   S    
C15   N1    A    
O17   C55   S    
C55   C56   S    
C53   H42   S    
O1    Zn1   S    
O7    Zn2   S    
O2    Zn2   S    
O8    Zn1   S    
O15   C51   S    
C27   C32   S    
C26   C28   S    
C40   H10   S    
C4    C38   A    
C57   H52   S    
C3    C5    A    
C55   H48   S    
C44   H21   S    
O16   C53   S    
C48   H30   S    
C45   C46   S    
C25   C27   S    
O3    Zn2   S    
C29   C35   T    
C44   H20   S    
O4    Zn1   S    
C30   C36   T    
C2    O2    A    
C14   C22   A    
C46   H25   S    
C28   O10   S    
C13   O15   S    
C25   H1    S    
C58   H55   S    
C26   H2    S    
O9    C39   S    
O6    Zn2   S    
C19   O11   S    
C47   H27   S    
C33   C35   S    
C50   H36   S    
O5    Zn1   S    
C47   C48   S    
C12   C38   A    
C40   H9    S    
C24   C30   S    
C44   H19   S    
C41   C42   S    
C7    C9    A    
C3    C37   A    
C8    C10   A    
C14   O16   S    
C46   H26   S    
C50   H34   S    
C45   H23   S    
C16   O18   S    
C1    O3    A    
C51   C52   S    
C56   H49   S    
C11   C12   S    
