data_mof_unit_4845.cif
_audit_creation_date              2012-12-10T19:48:00-0500
_audit_creation_method            fapswitch 2.2
_symmetry_space_group_name_H-M    P1
_symmetry_Int_Tables_number       1
_space_group_crystal_system       triclinic
_cell_length_a                    14.963018
_cell_length_b                    14.314388
_cell_length_c                    10.692499
_cell_angle_alpha                 93.367905
_cell_angle_beta                  90.355341
_cell_angle_gamma                 90.873706
_cell_volume                      2285.90935027

loop_
_atom_site_label
_atom_site_type_symbol
_atom_type_description
_atom_site_fract_x
_atom_site_fract_y
_atom_site_fract_z
_atom_type_partial_charge
C1    C     C_R   0.327662 0.499786 0.499061 0.973141
C2    C     C_R   0.671894 0.501028 0.502833 0.979209
C3    C     C_R   0.047392 0.505875 0.526837 -0.073732
C4    C     C_R   0.951411 0.510723 0.529145 -0.065534
C5    C     C_R   0.432292 0.101242 0.435225 0.347982
C6    C     C_R   0.553910 0.898330 0.587218 0.327921
C7    C     C_R   0.579460 0.106082 0.518995 0.309414
C8    C     C_R   0.423386 0.888736 0.459263 0.320339
C9    C     C_R   0.427659 0.198782 0.457131 0.318580
C10   C     C_R   0.556257 0.799128 0.579664 0.317181
C11   C     C_R   0.574623 0.204958 0.535011 0.393038
C12   C     C_R   0.434939 0.792138 0.437444 0.350996
C13   C     C_R   0.502071 0.051174 0.488239 -0.074869
C14   C     C_R   0.495572 0.945191 0.507135 -0.096767
C15   C     C_R   0.501565 0.497415 0.257841 0.962710
C16   C     C_R   0.484857 0.502409 0.737743 0.860747
C17   C     C_R   0.571140 0.652410 0.108780 -0.142138
C18   C     C_R   0.394068 0.345400 0.856035 -0.197362
C19   C     C_R   0.453743 0.680732 0.909261 -0.142212
C20   C     C_R   0.437891 0.327292 0.100261 -0.166335
C21   C     C_R   0.556820 0.743751 0.070843 0.324484
C22   C     C_R   0.411204 0.255288 0.895110 0.420323
C23   C     C_R   0.493752 0.758254 0.976482 0.352562
C24   C     C_R   0.441600 0.247531 0.017821 0.276838
C25   C     C_R   0.473549 0.589005 0.944208 0.033056
C26   C     C_R   0.457642 0.414798 0.050452 0.054875
C27   C     C_R   0.515394 0.577612 0.058893 0.000465
C28   C     C_R   0.435953 0.422880 0.923657 -0.073106
C29   C     C_R   0.455453 0.507349 0.868376 -0.094829
C30   C     C_R   0.496871 0.493547 0.120180 -0.044963
C31   C     C_R   0.098949 0.580346 0.580774 0.444211
C32   C     C_R   0.902846 0.455899 0.610326 0.445214
C33   C     C_R   0.907943 0.565793 0.443821 0.437700
C34   C     C_R   0.087442 0.429795 0.461517 0.422465
C35   C     C_R   0.190721 0.578654 0.567915 -0.151750
C36   C     C_R   0.810542 0.452982 0.601400 -0.152291
C37   C     C_R   0.815746 0.563828 0.438087 -0.148030
C38   C     C_R   0.179456 0.428000 0.452096 -0.096739
C39   C     C_R   0.231321 0.501514 0.506428 -0.196094
C40   C     C_R   0.767521 0.504717 0.512895 -0.166703
H1    H     H_    0.230052 0.637728 0.605887 0.240942
H2    H     H_    0.772608 0.412215 0.665016 0.231906
H3    H     H_    0.782070 0.606853 0.373593 0.199841
H4    H     H_    0.209418 0.371132 0.398216 0.256063
N1    N     N_R   0.500000 0.252470 0.500000 -0.211481
N2    N     N_R   0.500000 0.747530 0.500000 -0.229561
O1    O     O_R   0.369060 0.579480 0.500010 -0.584186
O2    O     O_R   0.630940 0.420520 0.499990 -0.563623
O3    O     O_R   0.630940 0.579480 0.499990 -0.589882
O4    O     O_R   0.369060 0.420520 0.500010 -0.589787
O5    O     O_R   0.499990 0.579480 0.316780 -0.605767
O6    O     O_R   0.500010 0.420520 0.683220 -0.599912
O7    O     O_R   0.500010 0.579480 0.683220 -0.598795
O8    O     O_R   0.499990 0.420520 0.316780 -0.607709
Zn1   Zn    Zn3+2 0.500000 0.606140 0.500000 1.050601
Zn2   Zn    Zn3+2 0.500000 0.393860 0.500000 1.069368
Cl1   Cl    Cl    0.465499 0.137800 0.074345 -0.353112
Cl2   Cl    Cl    0.464729 0.873782 0.944427 -0.338892
Cl3   Cl    Cl    0.392896 0.154139 0.794943 -0.359055
Cl4   Cl    Cl    0.615728 0.840866 0.142810 -0.408811
C41   C     C_2   0.650302 0.634082 0.187561 0.510708
H5    H     H_    0.680707 0.689509 0.247598 0.120274
O9    O     O_2   0.684108 0.556841 0.182944 -0.570325
C42   C     C_2   0.322931 0.361792 0.762819 0.625533
H6    H     H_    0.311495 0.431939 0.734291 0.024580
O10   O     O_2   0.271354 0.299389 0.725266 -0.424384
C43   C     C_2   0.382392 0.696433 0.816146 0.574874
H7    H     H_    0.382348 0.759361 0.764321 0.108650
O11   O     O_2   0.321194 0.639764 0.799191 -0.589178
C44   C     C_2   0.364723 0.322501 0.191639 0.520133
H8    H     H_    0.340101 0.254829 0.217139 0.157829
O12   O     O_2   0.325873 0.392817 0.229806 -0.566543
Cl5   Cl    Cl    0.050516 0.676938 0.663092 -0.371163
Cl6   Cl    Cl    0.955803 0.389602 0.722270 -0.380845
Cl7   Cl    Cl    0.966906 0.634841 0.339675 -0.395190
Cl8   Cl    Cl    0.024158 0.337582 0.386551 -0.375325
Cl9   Cl    Cl    0.364253 0.052028 0.311465 -0.328223
Cl10  Cl    Cl    0.603830 0.958463 0.719944 -0.284328
Cl11  Cl    Cl    0.686975 0.057132 0.501625 -0.311594
Cl12  Cl    Cl    0.313754 0.919006 0.505917 -0.317683
Cl13  Cl    Cl    0.318854 0.240307 0.459384 -0.445221
Cl14  Cl    Cl    0.628984 0.741814 0.678757 -0.440054
Cl15  Cl    Cl    0.660806 0.261655 0.622767 -0.425570
Cl16  Cl    Cl    0.358169 0.729444 0.338368 -0.415098

loop_
_geom_bond_atom_site_label_1
_geom_bond_atom_site_label_2
_ccdc_geom_bond_type
C23   Cl2   S    
C9    N1    A    
C36   H2    S    
C5    C9    A    
C32   C36   A    
O1    Zn1   S    
C28   C29   A    
C37   C40   A    
C32   Cl6   S    
C38   C39   A    
C31   Cl5   S    
C12   Cl16  S    
C41   O9    D    
C16   O7    A    
C17   C41   S    
C33   Cl7   S    
C20   C24   A    
N1    Zn2   S    
C24   Cl1   S    
N2    Zn1   S    
C10   N2    A    
C19   C43   S    
C44   H8    S    
C15   O5    A    
O4    Zn2   S    
C1    O4    A    
C5    C13   A    
C34   C38   A    
C13   C14   S    
C27   C30   A    
C20   C44   S    
C35   H1    S    
C7    C11   A    
O7    Zn1   S    
C25   C29   A    
O8    Zn2   S    
C43   H7    S    
C17   C27   A    
C15   O8    A    
C36   C40   A    
C18   C28   A    
C21   Cl4   S    
C12   N2    A    
C22   Cl3   S    
C19   C23   A    
C1    O1    A    
C3    C34   A    
C11   Cl15  S    
C16   C29   S    
O3    Zn1   S    
C10   Cl14  S    
C33   C37   A    
C43   O11   D    
C42   O10   D    
C37   H3    S    
C35   C39   A    
C38   H4    S    
C2    O3    A    
C6    C14   A    
C8    C12   A    
C3    C31   A    
C4    C32   A    
C26   C30   A    
C21   C23   A    
C22   C24   A    
C11   N1    A    
C5    Cl9   S    
C3    C4    S    
C15   C30   S    
C7    Cl11  S    
O2    Zn2   S    
C4    C33   A    
C8    C14   A    
C18   C22   A    
C16   O6    A    
C6    C10   A    
C25   C27   A    
C26   C28   A    
C2    O2    A    
C42   H6    S    
C18   C42   S    
C20   C26   A    
C31   C35   A    
O5    Zn1   S    
C41   H5    S    
C19   C25   A    
C17   C21   A    
C6    Cl10  S    
C1    C39   S    
C2    C40   S    
C7    C13   A    
C9    Cl13  S    
C8    Cl12  S    
C44   O12   D    
O6    Zn2   S    
C34   Cl8   S    
