data_mof_unit_3613.cif
_audit_creation_date              2012-12-10T17:19:25-0500
_audit_creation_method            fapswitch 2.2
_symmetry_space_group_name_H-M    P1
_symmetry_Int_Tables_number       1
_space_group_crystal_system       triclinic
_cell_length_a                    15.075927
_cell_length_b                    10.777737
_cell_length_c                    9.600436
_cell_angle_alpha                 90.031042
_cell_angle_beta                  90.036637
_cell_angle_gamma                 92.562933
_cell_volume                      1558.359906

loop_
_atom_site_label
_atom_site_type_symbol
_atom_type_description
_atom_site_fract_x
_atom_site_fract_y
_atom_site_fract_z
_atom_type_partial_charge
C1    C     C_R   0.496895 0.262580 0.500003 0.793850
C2    C     C_R   0.907301 0.506839 0.627664 0.107968
C3    C     C_R   0.953689 0.502443 0.246172 -0.211400
C4    C     C_R   0.046147 0.501851 0.246169 -0.213712
C5    C     C_R   0.092942 0.502707 0.372442 0.107286
C6    C     C_R   0.046630 0.504805 0.500047 0.063422
C7    C     C_R   0.093180 0.505911 0.627640 0.111079
C8    C     C_R   0.046602 0.508146 0.753908 -0.218032
C9    C     C_R   0.954127 0.508620 0.753922 -0.211483
C10   C     C_R   0.185307 0.501179 0.373331 -0.239963
C11   C     C_R   0.231822 0.501745 0.500018 -0.071936
C12   C     C_R   0.328722 0.500093 0.499996 0.791044
C13   C     C_R   0.185554 0.504425 0.626732 -0.262438
C14   C     C_R   0.355476 0.120387 0.646044 -0.186475
C15   C     C_R   0.289586 0.051311 0.717220 -0.138572
C16   C     C_R   0.289697 0.922270 0.717349 -0.130796
C17   C     C_R   0.355728 0.861487 0.646371 -0.170211
C18   C     C_R   0.424172 0.929598 0.575351 0.099326
C19   C     C_R   0.424035 0.060858 0.575210 0.097074
C20   C     C_R   0.490836 0.128391 0.499840 -0.101695
C21   C     C_R   0.553447 0.067381 0.421391 -0.191855
C22   C     C_R   0.553590 0.939394 0.421506 -0.206042
C23   C     C_R   0.497282 0.737094 0.500042 0.768135
C24   C     C_R   0.491107 0.870491 0.500054 -0.088323
C25   C     C_R   0.618598 0.664340 0.144163 -0.150409
C26   C     C_R   0.676901 0.744172 0.072091 -0.217983
C27   C     C_R   0.676892 0.744214 0.928560 -0.207042
C28   C     C_R   0.618552 0.664460 0.856223 -0.145235
C29   C     C_R   0.558287 0.580802 0.925303 0.208550
C30   C     C_R   0.558293 0.580742 0.074868 0.212929
C31   C     C_R   0.444449 0.423281 0.073777 -0.062658
C32   C     C_R   0.444469 0.423311 0.925892 -0.062206
C33   C     C_R   0.671299 0.501058 0.500025 0.796303
C34   C     C_R   0.814848 0.505963 0.626785 -0.249763
C35   C     C_R   0.768302 0.503340 0.500074 -0.073989
C36   C     C_R   0.814660 0.502997 0.373351 -0.253119
C37   C     C_R   0.907093 0.503781 0.372452 0.108277
C38   C     C_R   0.953646 0.505311 0.500055 0.062124
Cu1   Cu    Cu3+1 0.499990 0.499990 0.640660 0.926017
Cu2   Cu    Cu3+1 0.500010 0.500010 0.359340 0.934086
H1    H     H_    0.350801 0.220162 0.645018 0.138196
H2    H     H_    0.237520 0.098112 0.770919 0.133774
H3    H     H_    0.237708 0.868911 0.771125 0.136981
H4    H     H_    0.351247 0.761170 0.645763 0.153694
H5    H     H_    0.604072 0.893846 0.362474 0.138050
H6    H     H_    0.398892 0.360371 0.128852 0.137096
H7    H     H_    0.623859 0.672594 0.253925 0.193357
H8    H     H_    0.722295 0.806754 0.128371 0.149000
H9    H     H_    0.722306 0.806802 0.872501 0.152906
H10   H     H_    0.623759 0.672785 0.746446 0.198198
H11   H     H_    0.778969 0.501564 0.275216 0.161795
H12   H     H_    0.398925 0.360414 0.870607 0.132251
H13   H     H_    0.918629 0.501446 0.147553 0.139716
H14   H     H_    0.081025 0.500424 0.147539 0.135922
H15   H     H_    0.220808 0.499328 0.275210 0.154679
H16   H     H_    0.221253 0.505211 0.724841 0.153671
H17   H     H_    0.081659 0.509183 0.852524 0.135943
H18   H     H_    0.919237 0.509993 0.852547 0.139989
H19   H     H_    0.603812 0.119372 0.362272 0.153002
N1    N     N_R   0.500860 0.501210 0.147910 -0.199311
N2    N     N_R   0.500890 0.501290 0.852040 -0.199181
O1    O     O_R   0.499990 0.319640 0.618810 -0.576020
O2    O     O_R   0.500000 0.319660 0.381240 -0.573751
O3    O     O_R   0.370250 0.499960 0.618800 -0.599042
O4    O     O_R   0.370260 0.499980 0.381230 -0.581202
O5    O     O_R   0.500000 0.680340 0.618760 -0.602089
O6    O     O_R   0.500010 0.680360 0.381190 -0.588979
O7    O     O_R   0.629740 0.500020 0.618770 -0.599123
O8    O     O_R   0.629750 0.500040 0.381200 -0.603117
H20   H     H_    0.779295 0.506898 0.724909 0.161460

loop_
_geom_bond_atom_site_label_1
_geom_bond_atom_site_label_2
_ccdc_geom_bond_type
C31   N1    A    
C23   C24   S    
C6    C38   A    
Cu1   O7    S    
C25   C30   A    
C29   C30   A    
C10   H15   S    
C26   H8    S    
C8    H17   S    
C11   C13   A    
C12   O4    A    
C34   H20   S    
C15   H2    S    
C19   C20   A    
C33   O8    A    
C11   C12   S    
C13   H16   S    
C1    O1    A    
C2    C34   A    
C17   C18   A    
C17   H4    S    
C5    C10   A    
Cu2   O6    S    
C21   C22   A    
Cu1   O3    S    
C3    H13   S    
C16   H3    S    
C28   C29   A    
C26   C27   A    
C37   C38   A    
C36   H11   S    
C14   H1    S    
C18   C24   A    
C1    O2    A    
C23   O5    A    
C36   C37   A    
C33   C35   S    
C9    H18   S    
C32   N2    A    
C21   H19   S    
C6    C7    A    
C29   N2    A    
Cu2   O4    S    
C5    C6    A    
C12   O3    A    
Cu1   O5    S    
C22   C24   A    
Cu1   N2    S    
C7    C8    A    
C10   C11   A    
Cu2   O2    S    
C15   C16   A    
Cu1   Cu2   S    
C16   C17   A    
C7    C13   A    
C22   H5    S    
C18   C19   A    
C20   C21   A    
C3    C37   A    
C34   C35   A    
Cu2   O8    S    
C23   O6    A    
Cu2   N1    S    
Cu1   O1    S    
C2    C38   A    
C25   H7    S    
C4    C5    A    
C1    C20   S    
C4    H14   S    
C25   C26   A    
C14   C15   A    
C2    C9    A    
C28   H10   S    
C14   C19   A    
C31   H6    S    
C31   C32   A    
C32   H12   S    
C3    C4    A    
C27   H9    S    
C33   O7    A    
C8    C9    A    
C27   C28   A    
C35   C36   A    
C30   N1    A    
