data_mof_unit_48.cif
_audit_creation_date              2012-12-11T17:29:30-0500
_audit_creation_method            fapswitch 2.2
_symmetry_space_group_name_H-M    P1
_symmetry_Int_Tables_number       1
_space_group_crystal_system       triclinic
_cell_length_a                    18.851693
_cell_length_b                    18.88023
_cell_length_c                    20.397003
_cell_angle_alpha                 106.985232
_cell_angle_beta                  106.061364
_cell_angle_gamma                 110.937954
_cell_volume                      5864.95007949

loop_
_atom_site_label
_atom_site_type_symbol
_atom_type_description
_atom_site_fract_x
_atom_site_fract_y
_atom_site_fract_z
_atom_type_partial_charge
C1    C     C_R   0.084630 0.087136 0.352568 -0.146557
C2    C     C_R   0.245417 0.068625 0.541389 -0.115542
C3    C     C_R   0.158306 0.209902 0.716168 -0.148351
C4    C     C_R   0.759605 0.927445 0.501779 -0.086846
C5    C     C_R   0.998531 0.764031 0.429487 0.390266
C6    C     C_R   0.239579 0.248261 0.723469 0.092655
C7    C     C_R   0.952789 0.711756 0.454609 -0.056219
C8    C     C_R   0.252891 0.996193 0.532519 0.043862
C9    C     C_R   0.015271 0.975839 0.724773 0.067974
C10   C     C_R   0.981198 0.594295 0.405915 -0.191353
C11   C     C_R   0.930271 0.622636 0.431408 0.143140
C12   C     C_R   0.755519 0.996097 0.545919 0.054753
C13   C     C_R   0.862456 0.567032 0.438113 -0.252524
C14   C     C_R   0.849482 0.485172 0.424013 0.134407
C15   C     C_R   0.902153 0.458237 0.399293 0.064165
C16   C     C_R   0.847318 0.781022 0.288490 -0.068751
C17   C     C_R   0.965260 0.511940 0.386356 0.104242
C18   C     C_R   0.788105 0.431395 0.437991 -0.215785
C19   C     C_R   0.784219 0.354862 0.434304 -0.097173
C20   C     C_R   0.841650 0.330824 0.416214 -0.005697
C21   C     C_R   0.897258 0.380883 0.394127 -0.015602
C22   C     C_R   0.952894 0.356940 0.372358 0.145590
C23   C     C_R   0.772093 0.730043 0.286557 -0.070166
C24   C     C_R   0.008389 0.406443 0.350731 -0.179218
C25   C     C_R   0.015685 0.484584 0.359111 -0.182685
C26   C     C_R   0.850468 0.262842 0.425841 0.390970
C27   C     C_R   0.918679 0.251176 0.418738 -0.003574
C28   C     C_R   0.946386 0.192946 0.517997 -0.089511
C29   C     C_R   0.960355 0.290128 0.381773 -0.298112
C30   C     C_R   0.329664 0.914810 0.549278 -0.241897
C31   C     C_R   0.329113 0.992286 0.570188 0.117161
C32   C     C_R   0.404237 0.066932 0.620568 -0.220265
C33   C     C_R   0.480746 0.066417 0.636777 0.090818
C34   C     C_R   0.958206 0.212385 0.459670 0.125311
C35   C     C_R   0.481417 0.989869 0.605281 0.036468
C36   C     C_R   0.405610 0.913162 0.565480 0.140992
C37   C     C_R   0.556075 0.142180 0.677739 -0.175748
C38   C     C_R   0.631898 0.144334 0.680021 -0.076275
C39   C     C_R   0.630378 0.068476 0.638534 0.018081
C40   C     C_R   0.771541 0.770650 0.355133 0.006252
C41   C     C_R   0.556226 0.990710 0.606218 0.050997
C42   C     C_R   0.554382 0.914234 0.567445 0.146996
C43   C     C_R   0.480849 0.837433 0.536195 -0.198208
C44   C     C_R   0.406524 0.836902 0.535080 -0.192570
C45   C     C_R   0.236478 0.216676 0.651888 -0.136565
C46   C     C_R   0.697344 0.068641 0.621291 -0.217912
C47   C     C_R   0.691931 0.993411 0.575232 0.127975
C48   C     C_R   0.623110 0.916128 0.553820 -0.246205
C49   C     C_R   0.315208 0.300565 0.794810 0.071132
C50   C     C_R   0.311842 0.293963 0.860653 -0.266063
C51   C     C_R   0.383622 0.338273 0.928360 0.494149
C52   C     C_R   0.022720 0.196405 0.451890 -0.138031
C53   C     C_R   0.460987 0.389210 0.930347 0.091473
C54   C     C_R   0.464202 0.396071 0.864721 -0.212121
C55   C     C_R   0.391940 0.351330 0.796951 -0.177798
C56   C     C_R   0.925655 0.757720 0.498349 -0.171166
C57   C     C_R   0.691033 0.510190 0.140430 -0.197136
C58   C     C_R   0.746782 0.590721 0.198917 -0.146805
C59   C     C_R   0.604682 0.480938 0.116184 0.269232
C60   C     C_R   0.715736 0.641994 0.232067 0.135572
C61   C     C_R   0.629408 0.610150 0.210263 -0.234123
C62   C     C_R   0.574364 0.529260 0.154076 -0.118233
C63   C     C_R   0.094723 0.026932 0.228953 0.138795
C64   C     C_R   0.830099 0.066489 0.567993 -0.074177
C65   C     C_R   0.102648 0.959543 0.185855 -0.183299
C66   C     C_R   0.127441 0.962546 0.128102 -0.145287
C67   C     C_R   0.175333 0.928369 0.479715 -0.093884
C68   C     C_R   0.144301 0.033246 0.112403 0.244383
C69   C     C_R   0.142214 0.102662 0.159063 -0.154204
C70   C     C_R   0.117736 0.099798 0.217080 -0.187411
C71   C     C_R   0.172335 0.030620 0.916474 0.456476
C72   C     C_R   0.135682 0.034438 0.849165 -0.279693
C73   C     C_R   0.129860 0.960343 0.928260 0.116138
C74   C     C_R   0.057701 0.968100 0.792482 0.105930
C75   C     C_R   0.021143 0.893971 0.800351 -0.300560
C76   C     C_R   0.013818 0.947479 0.288304 -0.095356
C77   C     C_R   0.057067 0.888931 0.867548 -0.112888
C78   C     C_R   0.029420 0.050453 0.718302 -0.142599
C79   C     C_R   0.060921 0.020840 0.284996 0.039270
C80   C     C_2   0.710766 0.226177 0.724715 0.560009
C81   C     C_2   0.012844 0.810467 0.874173 0.567052
C82   C     C_2   0.724410 0.726843 0.390794 0.415313
C83   C     C_R   0.961622 0.910317 0.653181 -0.088493
Cl1   Cl    Cl    0.008754 0.731628 0.343776 -0.753177
Cl2   Cl    Cl    0.775729 0.192273 0.443964 -0.691990
Cl3   Cl    Cl    0.371405 0.333315 0.009815 -0.600132
Cl4   Cl    Cl    0.269171 0.116615 0.986921 -0.559378
H1    H     H_    0.132848 0.151331 0.373869 0.099217
H2    H     H_    0.746104 0.450484 0.455736 0.143503
H3    H     H_    0.716166 0.862444 0.482115 0.142845
H4    H     H_    0.739312 0.317590 0.449982 0.191511
H5    H     H_    0.007409 0.277069 0.368934 0.136437
H6    H     H_    0.050794 0.387864 0.333206 0.130769
H7    H     H_    0.063081 0.525010 0.347403 0.145424
H8    H     H_    0.271975 0.856050 0.514199 0.124135
H9    H     H_    0.404483 0.126687 0.641641 0.120012
H10   H     H_    0.554987 0.200215 0.704948 0.171699
H11   H     H_    0.750499 0.127836 0.638017 0.111114
H12   H     H_    0.879495 0.732963 0.518531 0.161395
H13   H     H_    0.874114 0.763520 0.249958 0.138276
H14   H     H_    0.619101 0.857209 0.521047 0.123248
H15   H     H_    0.479385 0.778298 0.507746 0.138663
H16   H     H_    0.348885 0.777455 0.505695 0.137498
H17   H     H_    0.813567 0.614060 0.215949 0.170293
H18   H     H_    0.714609 0.473476 0.110561 0.144872
H19   H     H_    0.522719 0.437580 0.866621 0.156363
H20   H     H_    0.396005 0.357473 0.746823 0.130361
H21   H     H_    0.604164 0.649425 0.233530 0.125386
H22   H     H_    0.507453 0.507369 0.134280 0.173109
H23   H     H_    0.158093 0.862598 0.459825 0.141137
H24   H     H_    0.904220 0.200394 0.542358 0.160690
H25   H     H_    0.253385 0.254048 0.859871 0.161514
H26   H     H_    0.167495 0.090123 0.842054 0.165070
H27   H     H_    0.154366 0.157087 0.147245 0.147483
H28   H     H_    0.112632 0.152799 0.249956 0.122358
H29   H     H_    0.962353 0.841258 0.755580 0.129482
H30   H     H_    0.128686 0.907726 0.093375 0.175776
H31   H     H_    0.087865 0.903592 0.195369 0.138574
H32   H     H_    0.048863 0.203396 0.412195 0.100913
H33   H     H_    0.854581 0.128922 0.611620 0.088081
H34   H     H_    0.066952 0.112780 0.764076 0.105938
H35   H     H_    0.994518 0.883761 0.250169 0.112482
H36   H     H_    0.286493 0.240265 0.635411 0.088971
H37   H     H_    0.771584 0.228391 0.739785 -0.004744
H38   H     H_    0.951860 0.761225 0.829421 0.003681
H39   H     H_    0.665525 0.669073 0.356775 0.038890
H40   H     H_    0.939752 0.844022 0.637331 0.102729
H41   H     H_    0.294687 0.132346 0.575296 0.095932
H42   H     H_    0.136277 0.227973 0.758584 0.101872
H43   H     H_    0.037008 0.637301 0.405398 0.171543
H44   H     H_    0.822435 0.588181 0.457454 0.136568
N1    N     N_R   0.052570 0.055840 0.395080 -0.042674
N2    N     N_2   0.548425 0.415456 0.043843 -0.040204
N3    N     N_2   0.147578 0.031241 0.043422 -0.054202
N4    N     N_R   0.834730 0.954500 0.499860 -0.036010
N5    N     N_2   0.146563 0.966962 0.002390 -0.031915
N6    N     N_R   0.890190 0.849120 0.355200 -0.049810
N7    N     N_R   0.997110 0.161210 0.539740 -0.056801
N8    N     N_R   0.841940 0.845190 0.395070 -0.042263
N9    N     N_R   0.045360 0.165140 0.499870 -0.046777
N10   N     N_R   0.877490 0.041590 0.539730 -0.051920
N11   N     N_R   0.009810 0.968740 0.355210 -0.038938
N12   N     N_R   0.954640 0.834860 0.500130 -0.054072
N13   N     N_R   0.158060 0.154810 0.604930 -0.041257
N14   N     N_R   0.122510 0.958410 0.460270 -0.035297
N15   N     N_R   0.990190 0.031260 0.644790 -0.049628
N16   N     N_R   0.947430 0.944160 0.604920 -0.033630
N17   N     N_R   0.165270 0.045500 0.500140 -0.047253
N18   N     N_R   0.109810 0.150880 0.644800 -0.041115
N19   N     N_R   0.002890 0.838790 0.460260 -0.080636
N20   N     N_2   0.531454 0.446658 0.999558 -0.077182
Ni1   Ni    Ni4+2 0.104370 0.104380 0.500010 0.214435
Ni2   Ni    Ni4+2 0.895630 0.895620 0.499990 0.277319
Ni3   Ni    Ni4+2 0.006290 0.904630 0.408560 0.270182
Ni4   Ni    Ni4+2 0.993710 0.095370 0.591440 0.214934
O1    O     O_2   0.708808 0.292662 0.746795 -0.572777
O2    O     O_2   0.044121 0.798784 0.928307 -0.577604
O3    O     O_2   0.753120 0.752803 0.459488 -0.620653

loop_
_geom_bond_atom_site_label_1
_geom_bond_atom_site_label_2
_ccdc_geom_bond_type
N7    Ni4   S    
C66   C68   A    
C63   C65   A    
C6    C45   A    
C27   C29   A    
C41   C42   A    
C14   C18   A    
C57   H18   S    
C35   C36   A    
N2    N20   D    
C76   C79   A    
C1    N1    A    
C37   H10   S    
C39   C41   A    
C63   C79   S    
C53   C54   A    
C45   H36   S    
C7    C11   S    
N6    N8    A    
C26   C27   A    
C30   H8    S    
C38   C80   S    
C22   C29   A    
C37   C38   A    
C30   C31   A    
C82   O3    D    
N12   Ni2   S    
C64   N10   A    
N8    Ni2   S    
C10   C17   A    
C58   C60   A    
C23   C40   A    
C40   N8    A    
C18   C19   A    
C61   H21   S    
C78   H34   S    
C82   H39   S    
C52   N9    A    
C46   C47   A    
C56   N12   A    
N12   N19   A    
N15   Ni4   S    
C16   N6    A    
C68   C69   A    
C66   H30   S    
C67   N14   A    
C45   N13   A    
C65   H31   S    
C63   C70   A    
C4    C12   A    
N9    Ni1   S    
C3    C6    A    
C1    H1    S    
C46   H11   S    
C28   C34   A    
C25   H7    S    
C28   H24   S    
C13   C14   A    
C8    C31   S    
C61   C62   A    
C7    C56   A    
C12   C47   S    
C35   C41   A    
C51   Cl3   S    
C44   H16   S    
C80   O1    D    
C4    H3    S    
C27   C34   S    
N1    N11   A    
C23   C60   S    
C69   H27   S    
C3    N18   A    
C81   O2    D    
C74   C75   A    
C54   H19   S    
N4    N10   A    
C40   C82   S    
C28   N7    A    
C24   C25   A    
C72   C74   A    
C5    C7    A    
C5    Cl1   S    
N10   Ni4   S    
N3    N5    D    
C49   C55   A    
C72   H26   S    
C59   N2    S    
C33   C37   A    
C5    N19   A    
C55   H20   S    
C60   C61   A    
C51   C53   A    
C43   C44   A    
C10   H43   S    
N13   N18   A    
C67   H23   S    
C47   C48   A    
C14   C15   A    
C73   N5    S    
C77   C81   S    
C50   H25   S    
C50   C51   A    
C13   H44   S    
C42   C48   A    
N11   Ni3   S    
C75   C77   A    
N7    N9    A    
C9    C83   A    
C39   C46   A    
C83   N16   A    
N14   Ni3   S    
C32   H9    S    
C65   C66   A    
C16   C23   A    
C4    N4    A    
N19   Ni3   S    
N1    Ni1   S    
C71   Cl4   S    
C36   C44   A    
C58   H17   S    
C42   C43   A    
N14   N17   A    
C71   C73   A    
N15   N16   A    
C80   H37   S    
C15   C17   A    
C12   C64   A    
C54   C55   A    
C59   C62   A    
C81   H38   S    
C3    H42   S    
C18   H2    S    
C31   C32   A    
C2    C8    A    
N17   Ni1   S    
C83   H40   S    
N4    Ni2   S    
C70   H28   S    
C34   C52   A    
C64   H33   S    
C30   C36   A    
C17   C25   A    
C32   C33   A    
C19   C20   A    
C68   N3    S    
N18   Ni4   S    
C43   H15   S    
C76   H35   S    
C71   C72   A    
N13   Ni1   S    
C24   H6    S    
C11   C13   A    
C57   C58   A    
C38   C39   A    
C62   H22   S    
C20   C26   A    
C26   Cl2   S    
C1    C79   A    
C48   H14   S    
C33   C35   A    
N6    Ni3   S    
C22   C24   A    
C9    C78   A    
C6    C49   S    
C69   C70   A    
N16   Ni2   S    
C57   C59   A    
C10   C11   A    
C78   N15   A    
C16   H13   S    
C52   H32   S    
C15   C21   A    
C20   C21   A    
C8    C67   A    
C49   C50   A    
C9    C74   S    
C53   N20   S    
C73   C77   A    
C19   H4    S    
C75   H29   S    
C56   H12   S    
C21   C22   A    
C2    N17   A    
C29   H5    S    
C2    H41   S    
C76   N11   A    
