data_mof_unit_3625.cif
_audit_creation_date              2012-12-11T14:17:43-0500
_audit_creation_method            fapswitch 2.2
_symmetry_space_group_name_H-M    P1
_symmetry_Int_Tables_number       1
_space_group_crystal_system       triclinic
_cell_length_a                    11.092787
_cell_length_b                    11.092732
_cell_length_c                    18.747764
_cell_angle_alpha                 90.001956
_cell_angle_beta                  89.997619
_cell_angle_gamma                 119.998368
_cell_volume                      1997.86641117

loop_
_atom_site_label
_atom_site_type_symbol
_atom_type_description
_atom_site_fract_x
_atom_site_fract_y
_atom_site_fract_z
_atom_type_partial_charge
C1    C     C_R   0.519673 0.459912 0.147925 0.544104
C2    C     C_R   0.005147 0.393425 0.537329 -0.143310
C3    C     C_R   0.388220 0.994713 0.537296 -0.143288
C4    C     C_R   0.606516 0.611766 0.537308 -0.143280
C5    C     C_R   0.745744 0.062061 0.567121 -0.080655
C6    C     C_R   0.937604 0.683463 0.567258 -0.080619
C7    C     C_R   0.316471 0.254208 0.567193 -0.080615
C8    C     C_R   0.061925 0.745705 0.432930 -0.080885
C9    C     C_R   0.683553 0.937732 0.432795 -0.080853
C10   C     C_R   0.254248 0.316340 0.432874 -0.080849
C11   C     C_R   0.839323 0.035057 0.532586 -0.142654
C12   C     C_R   0.540087 0.059756 0.147926 0.544101
C13   C     C_R   0.964741 0.804149 0.532799 -0.142499
C14   C     C_R   0.195828 0.160654 0.532707 -0.142601
C15   C     C_R   0.034999 0.839300 0.467500 -0.142991
C16   C     C_R   0.804188 0.964804 0.467283 -0.142837
C17   C     C_R   0.160682 0.195770 0.467407 -0.142954
C18   C     C_R   0.518141 0.458957 0.353367 0.534815
C19   C     C_R   0.541026 0.059159 0.353357 0.534834
C20   C     C_R   0.940795 0.481851 0.353376 0.534814
C21   C     C_R   0.458970 0.518138 0.646640 0.536918
C22   C     C_R   0.059146 0.541017 0.646649 0.536943
C23   C     C_R   0.940243 0.480327 0.147925 0.544116
C24   C     C_R   0.481854 0.940810 0.646631 0.536923
C25   C     C_R   0.493085 0.972937 0.929172 0.006027
C26   C     C_R   0.027054 0.520154 0.929170 0.006032
C27   C     C_R   0.479851 0.506899 0.929168 0.006024
C28   C     C_R   0.006585 0.498271 0.077907 -0.003691
C29   C     C_R   0.491690 0.993408 0.077910 -0.003687
C30   C     C_R   0.501728 0.508301 0.077906 -0.003687
C31   C     C_R   0.408838 0.019874 0.961073 0.017869
C32   C     C_R   0.980100 0.388965 0.961062 0.017878
C33   C     C_R   0.611036 0.591137 0.961063 0.017876
C34   C     C_R   0.454269 0.520760 0.854113 0.530856
C35   C     C_R   0.984652 0.381067 0.036242 0.029388
C36   C     C_R   0.396401 0.015322 0.036254 0.029394
C37   C     C_R   0.618930 0.603577 0.036244 0.029390
C38   C     C_R   0.569582 0.942183 0.045304 -0.147797
C39   C     C_R   0.057824 0.627393 0.045309 -0.147791
C40   C     C_R   0.372613 0.430410 0.045306 -0.147785
C41   C     C_R   0.070951 0.638650 0.972294 -0.134342
C42   C     C_R   0.567703 0.929054 0.972289 -0.134339
C43   C     C_R   0.361358 0.432282 0.972291 -0.134345
C44   C     C_R   0.335014 0.069009 0.920202 -0.097335
C45   C     C_R   0.066490 0.545731 0.854114 0.530851
C46   C     C_R   0.930954 0.266012 0.920182 -0.097318
C47   C     C_R   0.733989 0.664951 0.920183 -0.097328
C48   C     C_R   0.965168 0.255784 0.066611 -0.085806
C49   C     C_R   0.290600 0.034795 0.066634 -0.085801
C50   C     C_R   0.744207 0.709375 0.066616 -0.085807
C51   C     C_R   0.238616 0.097006 0.952226 -0.128821
C52   C     C_R   0.902959 0.141614 0.952194 -0.128811
C53   C     C_R   0.858383 0.761347 0.952199 -0.128811
C54   C     C_R   0.921820 0.137272 0.025106 -0.135088
C55   C     C_R   0.215431 0.078148 0.025140 -0.135081
C56   C     C_R   0.479240 0.933518 0.854113 0.530850
C57   C     C_R   0.862720 0.784539 0.025113 -0.135086
C58   C     C_R   0.501713 0.002488 0.574956 -0.015773
C59   C     C_R   0.997319 0.499100 0.575011 -0.015795
C60   C     C_R   0.500842 0.498261 0.574983 -0.015802
C61   C     C_R   0.002408 0.501691 0.425063 -0.014985
C62   C     C_R   0.499144 0.997380 0.425009 -0.015025
C63   C     C_R   0.498271 0.500784 0.425036 -0.015024
C64   C     C_R   0.616340 0.019753 0.535800 0.044197
C65   C     C_R   0.979876 0.596372 0.535882 0.044146
C66   C     C_R   0.403544 0.383585 0.535842 0.044173
C67   C     C_R   0.393434 0.005161 0.462682 -0.143037
C68   C     C_R   0.019595 0.616279 0.464230 0.044645
C69   C     C_R   0.596460 0.980024 0.464151 0.044594
C70   C     C_R   0.383652 0.403430 0.464194 0.044625
C71   C     C_R   0.994692 0.388216 0.462715 -0.143035
C72   C     C_R   0.611747 0.606518 0.462695 -0.143024
Cr1   Cr    Cr6+3 0.768550 0.541320 0.250660 1.000675
Cr2   Cr    Cr6+3 0.458680 0.227230 0.250660 1.000689
Cr3   Cr    Cr6+3 0.772770 0.231450 0.250660 1.000695
Cr4   Cr    Cr6+3 0.541320 0.768550 0.749340 1.000686
Cr5   Cr    Cr6+3 0.227230 0.458680 0.749340 1.000709
Cr6   Cr    Cr6+3 0.231450 0.772770 0.749340 1.000707
H1    H     H_    0.637146 0.917709 0.076175 0.130701
H2    H     H_    0.019938 0.316617 0.565309 0.145148
H3    H     H_    0.296667 0.980008 0.565295 0.145164
H4    H     H_    0.683314 0.703358 0.565295 0.145221
H5    H     H_    0.772456 0.111255 0.619130 0.120141
H6    H     H_    0.888460 0.660954 0.619281 0.120085
H7    H     H_    0.338980 0.227540 0.619206 0.120104
H8    H     H_    0.111148 0.772452 0.380929 0.119085
H9    H     H_    0.661054 0.888565 0.380779 0.119028
H10   H     H_    0.227532 0.338823 0.380868 0.119061
H11   H     H_    0.935469 0.065452 0.559019 0.101623
H12   H     H_    0.082312 0.719430 0.076187 0.130699
H13   H     H_    0.934507 0.869974 0.559305 0.101616
H14   H     H_    0.130037 0.064562 0.559187 0.101590
H15   H     H_    0.065486 0.935481 0.441100 0.101150
H16   H     H_    0.869988 0.934516 0.440796 0.101114
H17   H     H_    0.064536 0.130016 0.440970 0.101101
H18   H     H_    0.351874 0.087735 0.863524 0.128126
H19   H     H_    0.912226 0.264158 0.863505 0.128117
H20   H     H_    0.735846 0.648084 0.863505 0.128119
H21   H     H_    0.987714 0.248186 0.121896 0.129225
H22   H     H_    0.260465 0.012245 0.121921 0.129220
H23   H     H_    0.280577 0.362855 0.076180 0.130708
H24   H     H_    0.751802 0.739515 0.121902 0.129232
H25   H     H_    0.180473 0.131619 0.920222 0.118972
H26   H     H_    0.868347 0.048865 0.920182 0.118974
H27   H     H_    0.951133 0.819486 0.920188 0.118980
H28   H     H_    0.902009 0.041591 0.050105 0.100457
H29   H     H_    0.139566 0.097961 0.050150 0.100443
H30   H     H_    0.958398 0.860406 0.050115 0.100463
H31   H     H_    0.116433 0.742120 0.949673 0.152924
H32   H     H_    0.625701 0.883585 0.949662 0.152930
H33   H     H_    0.257892 0.374286 0.949669 0.152923
H34   H     H_    0.316588 0.019880 0.434692 0.144989
H35   H     H_    0.980057 0.296697 0.434709 0.145012
H36   H     H_    0.703290 0.683366 0.434696 0.145057
O1    O     O_R   0.910960 0.572410 0.171010 -0.520961
O2    O     O_R   0.528530 0.639750 0.824400 -0.513746
O3    O     O_R   0.111220 0.471470 0.824400 -0.513744
O4    O     O_R   0.360250 0.888780 0.824400 -0.513740
O5    O     O_R   0.909330 0.572400 0.331540 -0.521858
O6    O     O_R   0.427600 0.336930 0.331540 -0.521819
O7    O     O_R   0.663070 0.090670 0.331540 -0.521805
O8    O     O_R   0.572400 0.909330 0.668460 -0.519254
O9    O     O_R   0.336930 0.427600 0.668460 -0.519206
O10   O     O_R   0.090670 0.663070 0.668460 -0.519203
O11   O     O_R   0.638240 0.528520 0.324410 -0.504686
O12   O     O_R   0.427590 0.338550 0.171010 -0.520964
O13   O     O_R   0.471480 0.109720 0.324410 -0.504670
O14   O     O_R   0.890280 0.361760 0.324410 -0.504665
O15   O     O_R   0.528520 0.638240 0.675590 -0.502339
O16   O     O_R   0.109720 0.471480 0.675590 -0.502315
O17   O     O_R   0.361760 0.890280 0.675590 -0.502313
O18   O     O_3   0.666667 0.333333 0.250630 -0.235646
O19   O     O_3   0.333333 0.666667 0.749370 -0.239923
O20   O     O_R   0.661450 0.089040 0.171010 -0.520977
O21   O     O_R   0.572410 0.910960 0.828990 -0.530593
O22   O     O_R   0.338550 0.427590 0.828990 -0.530601
O23   O     O_R   0.089040 0.661450 0.828990 -0.530614
O24   O     O_R   0.639750 0.528530 0.175600 -0.513822
O25   O     O_R   0.471470 0.111220 0.175600 -0.513819
O26   O     O_R   0.888780 0.360250 0.175600 -0.513814

loop_
_geom_bond_atom_site_label_1
_geom_bond_atom_site_label_2
_ccdc_geom_bond_type
C25   C31   A    
C26   C32   A    
Cr1   O5    S    
Cr2   O18   S    
C12   C29   S    
C61   C68   A    
C25   C56   S    
Cr3   O20   S    
C39   C41   A    
C66   C70   A    
C27   C33   A    
C48   C54   A    
C29   C36   A    
C10   H10   S    
C47   H20   S    
C43   H33   S    
C62   C67   A    
C44   H18   S    
Cr6   O4    S    
C9    C16   A    
C9    C69   A    
C20   O14   A    
Cr5   O3    S    
Cr3   O26   S    
C18   O11   A    
C5    H5    S    
C18   C63   S    
Cr1   O24   S    
C19   C62   S    
C51   H25   S    
C46   C52   A    
C72   H36   S    
C71   H35   S    
Cr3   O14   S    
C11   C16   A    
C20   C61   S    
C26   C45   S    
C40   H23   S    
C7    C14   A    
C52   H26   S    
C28   C35   A    
C29   C38   A    
C3    H3    S    
C17   H17   S    
Cr5   O22   S    
Cr6   O10   S    
C39   H12   S    
C8    H8    S    
C47   C53   A    
C61   C71   A    
Cr1   O18   S    
C60   C66   A    
C41   H31   S    
C13   H13   S    
C14   C17   A    
Cr5   O19   S    
C35   C48   A    
C24   O8    A    
Cr4   O21   S    
C52   C54   A    
C62   C69   A    
C6    C65   A    
C27   C34   S    
C58   C64   A    
C6    H6    S    
C31   C44   A    
C54   H28   S    
C32   C35   A    
C23   O26   A    
C1    O12   A    
C21   C60   S    
C22   C59   S    
C53   C57   A    
C2    C59   A    
C28   C39   A    
C49   C55   A    
C33   C37   A    
C30   C37   A    
C55   H29   S    
C21   O9    A    
Cr6   O17   S    
C3    C58   A    
Cr5   O9    S    
C53   H27   S    
Cr4   O15   S    
C11   H11   S    
Cr2   O13   S    
C63   C70   A    
C34   O22   A    
C65   C68   A    
C21   O15   A    
C4    C60   A    
C45   O23   A    
C12   O25   A    
C30   C40   A    
Cr2   O12   S    
C23   C28   S    
C14   H14   S    
C10   C70   A    
C44   C51   A    
C46   H19   S    
C22   O16   A    
C50   H24   S    
C8    C15   A    
C13   C15   A    
C5    C11   A    
C33   C47   A    
C2    C71   A    
Cr6   O23   S    
C18   O6    A    
C4    C72   A    
C56   O21   A    
Cr2   O6    S    
Cr3   O18   S    
C45   O3    A    
C48   H21   S    
C19   O7    A    
Cr3   O7    S    
C50   C57   A    
C32   C46   A    
C3    C67   A    
C25   C42   A    
C15   H15   S    
Cr4   O19   S    
C22   O10   A    
C64   C69   A    
Cr2   O25   S    
C16   H16   S    
Cr1   O1    S    
Cr4   O8    S    
C40   C43   A    
C8    C68   A    
C42   H32   S    
C59   C65   A    
C6    C13   A    
C56   O4    A    
C37   C50   A    
C24   O17   A    
C7    H7    S    
Cr1   O11   S    
C19   O13   A    
C1    C30   S    
Cr4   O2    S    
C51   C55   A    
Cr5   O16   S    
Cr6   O19   S    
C2    H2    S    
C36   C49   A    
C23   O1    A    
C38   C42   A    
C27   C43   A    
C67   H34   S    
C57   H30   S    
C4    H4    S    
C63   C72   A    
C5    C64   A    
C24   C58   S    
C38   H1    S    
C31   C36   A    
C12   O20   A    
C10   C17   A    
C34   O2    A    
C20   O5    A    
C9    H9    S    
C1    O24   A    
C26   C41   A    
C49   H22   S    
C7    C66   A    
