data_mof_unit_2160.cif
_audit_creation_date              2012-10-26T20:21:34-0400
_audit_creation_method            fapswitch 2.2
_symmetry_space_group_name_H-M    P1
_symmetry_Int_Tables_number       1
_space_group_crystal_system       triclinic
_cell_length_a                    10.798648
_cell_length_b                    9.756277
_cell_length_c                    11.657017
_cell_angle_alpha                 90.147011
_cell_angle_beta                  92.975842
_cell_angle_gamma                 88.846566
_cell_volume                      1226.21433536

loop_
_atom_site_label
_atom_site_type_symbol
_atom_type_description
_atom_site_fract_x
_atom_site_fract_y
_atom_site_fract_z
_atom_type_partial_charge
C1    C     C_R   0.262625 0.500699 0.499451 0.532903
C2    C     C_R   0.929756 0.607312 0.449619 -0.140116
C3    C     C_R   0.940480 0.385528 0.543813 -0.144093
C4    C     C_R   0.057604 0.608570 0.449924 -0.150955
C5    C     C_R   0.870811 0.496698 0.497723 0.019142
C6    C     C_R   0.128108 0.500130 0.499147 0.019419
C7    C     C_R   0.432783 0.073767 0.417575 0.121040
C8    C     C_R   0.584136 0.927121 0.567444 0.122647
C9    C     C_R   0.562654 0.070350 0.585008 0.119147
C10   C     C_R   0.414605 0.930204 0.433694 0.131027
C11   C     C_3   0.379964 0.138357 0.306321 -0.227006
C12   C     C_R   0.737013 0.498760 0.499609 0.530827
C13   C     C_3   0.476973 0.133371 0.214950 -0.406741
C14   C     C_3   0.710058 0.871855 0.613185 -0.216753
C15   C     C_3   0.709597 0.787233 0.723820 -0.381076
C16   C     C_3   0.572632 0.115830 0.710306 -0.220255
C17   C     C_3   0.689664 0.194337 0.746556 -0.409718
C18   C     C_3   0.286669 0.879375 0.399030 -0.226564
C19   C     C_3   0.279373 0.802374 0.284006 -0.395292
C20   C     C_R   0.499915 0.499907 0.284640 0.536188
C21   C     C_R   0.500007 0.500147 0.715352 0.536869
C22   C     C_1   0.499945 0.499891 0.162732 -0.042828
C23   C     C_1   0.500000 0.500421 0.837261 -0.046401
C24   C     C_1   0.499987 0.500069 0.060003 -0.058410
C25   C     C_1   0.500023 0.500314 0.939990 -0.058860
C26   C     C_R   0.068901 0.387558 0.545027 -0.135379
Cu1   Cu    Cu3+1 0.500000 0.640660 0.500000 0.916111
Cu2   Cu    Cu3+1 0.500000 0.359340 0.500000 0.901699
H1    H     H_    0.121761 0.301828 0.582595 0.125640
H2    H     H_    0.621609 0.800487 0.767868 0.158215
H3    H     H_    0.726346 0.677058 0.706071 0.170497
H4    H     H_    0.786154 0.819928 0.784507 0.104559
H5    H     H_    0.761485 0.822066 0.545041 0.159411
H6    H     H_    0.771770 0.959396 0.631711 0.096086
H7    H     H_    0.712971 0.269899 0.681680 0.191438
H8    H     H_    0.674673 0.249328 0.828327 0.133175
H9    H     H_    0.770275 0.123639 0.762415 0.111884
H10   H     H_    0.486065 0.168931 0.733361 0.169815
H11   H     H_    0.571556 0.025699 0.767857 0.101250
H12   H     H_    0.877060 0.691724 0.409810 0.117425
H13   H     H_    0.355155 0.831846 0.228754 0.153388
H14   H     H_    0.282816 0.690156 0.296632 0.177038
H15   H     H_    0.189642 0.827292 0.237047 0.102829
H16   H     H_    0.247114 0.828032 0.471607 0.166362
H17   H     H_    0.218850 0.966464 0.392703 0.079952
H18   H     H_    0.896204 0.298389 0.580209 0.110112
H19   H     H_    0.099685 0.692630 0.408766 0.109907
H20   H     H_    0.445151 0.198241 0.140628 0.136908
H21   H     H_    0.489552 0.026455 0.184074 0.123432
H22   H     H_    0.568743 0.168510 0.249343 0.185255
H23   H     H_    0.299960 0.084017 0.266539 0.100609
H24   H     H_    0.338524 0.240578 0.320832 0.191028
N1    N     N_R   0.500000 0.852070 0.500000 -0.225392
N2    N     N_R   0.500000 0.147930 0.500000 -0.234716
O1    O     O_R   0.319640 0.618740 0.499990 -0.513776
O2    O     O_R   0.680360 0.381260 0.500010 -0.504925
O3    O     O_R   0.680360 0.618740 0.500010 -0.514133
O4    O     O_R   0.319640 0.381260 0.499990 -0.515059
O5    O     O_R   0.500010 0.618790 0.337200 -0.489914
O6    O     O_R   0.499990 0.381210 0.662800 -0.505112
O7    O     O_R   0.499990 0.618790 0.662800 -0.492343
O8    O     O_R   0.500010 0.381210 0.337200 -0.507419

loop_
_geom_bond_atom_site_label_1
_geom_bond_atom_site_label_2
_ccdc_geom_bond_type
C8    N1    A    
C14   H6    S    
C7    C10   A    
C2    C4    A    
Cu1   N1    S    
C15   H3    S    
C11   H24   S    
C17   H8    S    
C18   H16   S    
C13   H20   S    
Cu1   O7    S    
C1    C6    S    
C3    H18   S    
C21   O7    A    
C15   H2    S    
C19   H14   S    
C20   C22   S    
C14   H5    S    
C21   C23   S    
C1    O1    A    
C15   H4    S    
Cu1   O5    S    
C1    O4    A    
C20   O5    A    
C7    C11   S    
C11   C13   S    
C6    C26   A    
C21   O6    A    
C13   H21   S    
C12   O3    A    
C12   O2    A    
C9    C16   S    
C19   H15   S    
Cu2   O4    S    
Cu2   O6    S    
C17   H9    S    
C20   O8    A    
C10   C18   S    
C22   C24   T    
C2    C5    A    
C11   H23   S    
C5    C12   S    
Cu1   O1    S    
C16   H11   S    
C13   H22   S    
C18   H17   S    
C2    H12   S    
C23   C25   T    
C24   C25   S    
C26   H1    S    
C4    C6    A    
C18   C19   S    
Cu1   O3    S    
Cu1   Cu2   S    
C10   N1    A    
Cu2   N2    S    
C14   C15   S    
C8    C9    A    
C8    C14   S    
C9    N2    A    
C17   H7    S    
C7    N2    A    
C3    C26   A    
Cu2   O2    S    
C19   H13   S    
C16   H10   S    
C16   C17   S    
C3    C5    A    
C4    H19   S    
Cu2   O8    S    
