data_mof_unit_4020.cif
_audit_creation_date              2013-03-05T15:55:04-0500
_audit_creation_method            fapswitch 2.2
_symmetry_space_group_name_H-M    P1
_symmetry_Int_Tables_number       1
_space_group_crystal_system       triclinic
_cell_length_a                    15.069573
_cell_length_b                    14.891009
_cell_length_c                    14.875107
_cell_angle_alpha                 109.559096
_cell_angle_beta                  110.044292
_cell_angle_gamma                 108.960776
_cell_volume                      2564.63046171

loop_
_atom_site_label
_atom_site_type_symbol
_atom_site_description
_atom_site_fract_x
_atom_site_fract_y
_atom_site_fract_z
_atom_type_partial_charge
C1    C     C_R   0.205301 0.298416 0.194109 0.406225
N1    N     N_R   0.291070 0.347930 0.293870 -0.085149
C2    C     C_R   0.595552 0.504016 0.804450 -0.149911
H1    H     H_    0.659134 0.484696 0.833381 0.106675
N2    N     N_R   0.554050 0.497220 0.706150 -0.045079
C3    C     C_R   0.434260 0.186163 0.405981 -0.055066
H2    H     H_    0.377704 0.125087 0.320035 0.102342
N3    N     N_R   0.497240 0.291100 0.443210 -0.036327
C4    C     C_R   0.276716 0.539709 0.591833 -0.106863
H3    H     H_    0.296499 0.579442 0.677005 0.107238
N4    N     N_R   0.347890 0.554050 0.556810 -0.044883
C5    C     C_R   0.528170 0.275567 0.591085 -0.096872
H4    H     H_    0.560590 0.295267 0.676383 0.097073
N5    N     N_R   0.554050 0.347900 0.556830 -0.049961
C6    C     C_R   0.186211 0.441405 0.406071 -0.087391
H5    H     H_    0.123893 0.386268 0.320233 0.144690
N6    N     N_R   0.291070 0.497250 0.443190 -0.038130
C7    C     C_R   0.502395 0.593085 0.803943 -0.124734
H6    H     H_    0.478069 0.652803 0.831869 0.099044
N7    N     N_R   0.497240 0.554030 0.706140 -0.044622
C8    C     C_R   0.288970 0.200136 0.193442 -0.165602
H7    H     H_    0.317387 0.145028 0.163679 0.156456
N8    N     N_R   0.347890 0.291110 0.293870 -0.062546
C9    C     C_R   0.198437 0.202459 0.129669 -0.049707
C10   C     C_R   0.564727 0.563678 0.868170 0.079553
C11   C     C_R   0.451899 0.172958 0.496635 0.094215
C12   C     C_R   0.174537 0.469656 0.497433 0.037505
C13   C     C_R   0.401349 0.705859 0.407893 -0.135149
H8    H     H_    0.337196 0.669612 0.323899 0.144234
N9    N     N_R   0.445950 0.652100 0.443170 -0.046770
C14   C     C_R   0.797741 0.492939 0.591826 -0.225495
H9    H     H_    0.855912 0.526263 0.677527 0.134978
N10   N     N_R   0.708930 0.502750 0.556810 -0.058782
C15   C     C_R   0.569034 0.477868 0.256852 -0.070218
H10   H     H_    0.629603 0.454336 0.257916 0.116523
N11   N     N_R   0.502760 0.445970 0.293860 -0.029197
C16   C     C_R   0.720240 0.813492 0.746141 -0.133620
H11   H     H_    0.696766 0.875029 0.750104 0.115017
N12   N     N_R   0.652110 0.708890 0.706130 -0.045614
C17   C     C_R   0.814164 0.723798 0.751129 -0.116615
H12   H     H_    0.878502 0.703761 0.763688 0.100433
N13   N     N_R   0.708930 0.652070 0.706130 -0.042223
C18   C     C_R   0.473175 0.565263 0.250098 -0.050201
H13   H     H_    0.440883 0.618077 0.238678 0.098736
N14   N     N_R   0.445950 0.502780 0.293850 -0.035502
C19   C     C_R   0.495877 0.800485 0.590922 -0.105488
H14   H     H_    0.524804 0.855110 0.676158 0.161842
N15   N     N_R   0.502760 0.708900 0.556790 -0.056828
C20   C     C_R   0.699414 0.391880 0.409404 0.280732
N16   N     N_R   0.652110 0.445950 0.443190 -0.090416
Ni1   Ni    Ni4+2 0.369690 0.500010 0.369700 0.275692
Ni2   Ni    Ni4+2 0.630310 0.499990 0.630300 0.211104
Ni3   Ni    Ni4+2 0.500000 0.369720 0.369720 0.301892
Ni4   Ni    Ni4+2 0.500000 0.630280 0.630280 0.224647
C21   C     C_R   0.430900 0.799828 0.498523 0.103682
C22   C     C_R   0.792703 0.422124 0.500366 -0.042356
C23   C     C_R   0.551288 0.551285 0.226382 0.000347
C24   C     C_R   0.823036 0.826222 0.776546 0.073978
H15   H     H_    0.980220 0.556405 0.100860 0.136268
C25   C     C_R   0.046979 0.616479 0.275999 0.529509
C26   C     C_R   0.055663 0.587920 0.358028 -0.230396
H16   H     H_    0.098698 0.651720 0.443889 0.172500
C27   C     C_R   0.002492 0.477135 0.328316 0.032200
C28   C     C_R   0.941336 0.395558 0.216091 -0.130967
H17   H     H_    0.896500 0.310038 0.191710 0.150340
C29   C     C_R   0.935176 0.424248 0.134791 -0.126471
H18   H     H_    0.886809 0.360932 0.048565 0.126466
C30   C     C_R   0.987819 0.534579 0.164547 -0.174818
C31   C     C_R   0.898544 0.431189 0.413273 -0.157368
H19   H     H_    0.840274 0.440038 0.354432 0.116456
C32   C     C_R   0.883351 0.414638 0.494814 0.140265
C33   C     C_R   0.961359 0.408843 0.574741 0.099355
C34   C     C_R   0.056766 0.424736 0.572642 -0.219899
H20   H     H_    0.119234 0.422305 0.634025 0.139953
C35   C     C_R   0.072562 0.445525 0.492544 0.060739
C36   C     C_R   0.991871 0.447476 0.411092 0.034610
C37   C     C_R   0.025318 0.472520 0.773942 -0.224964
H21   H     H_    0.095923 0.543387 0.794235 0.137652
C38   C     C_R   0.011356 0.464562 0.859519 -0.052362
H22   H     H_    0.071423 0.527717 0.944698 0.131486
C39   C     C_R   0.919415 0.376030 0.835366 -0.131598
H23   H     H_    0.908565 0.370266 0.901712 0.129907
C40   C     C_R   0.841780 0.294307 0.725759 -0.235819
H24   H     H_    0.771915 0.225372 0.709134 0.163407
C41   C     C_R   0.855193 0.299845 0.638389 0.377808
C42   C     C_R   0.947364 0.391614 0.662840 -0.047413
C43   C     C_R   0.660578 0.559117 0.038810 0.181056
C44   C     C_R   0.604057 0.601261 0.985794 0.021573
C45   C     C_R   0.572294 0.667729 0.044473 -0.176005
H25   H     H_    0.536339 0.710047 0.012147 0.137287
C46   C     C_R   0.570550 0.665844 0.137360 -0.155151
H26   H     H_    0.533165 0.706518 0.172566 0.132626
C47   C     C_R   0.599526 0.596681 0.170585 0.037235
C48   C     C_R   0.657921 0.556244 0.129678 0.154017
C49   C     C_3   0.653940 0.447376 0.093617 -0.465998
C50   C     C_3   0.657628 0.451317 0.994955 -0.519788
H27   H     H_    0.728317 0.452957 0.151717 0.200992
H28   H     H_    0.575529 0.379045 0.068874 0.224260
H29   H     H_    0.734461 0.460031 0.996787 0.196183
H30   H     H_    0.581630 0.385506 0.915416 0.207755
C51   C     C_R   0.358521 0.879067 0.392592 0.231755
C52   C     C_R   0.393600 0.877639 0.491854 -0.097982
C53   C     C_R   0.405197 0.961898 0.583552 0.480619
C54   C     C_R   0.413338 0.058154 0.582482 -0.258966
H31   H     H_    0.435054 0.127962 0.656880 0.168290
C55   C     C_R   0.404723 0.067059 0.489171 -0.030638
C56   C     C_R   0.362300 0.971465 0.390620 0.201639
C57   C     C_3   0.391678 0.950555 0.301823 -0.461817
C58   C     C_3   0.387812 0.849161 0.304544 -0.522075
H32   H     H_    0.326158 0.931260 0.222646 0.194755
H33   H     H_    0.474655 0.013264 0.329674 0.259658
H34   H     H_    0.320214 0.772012 0.226882 0.207344
H35   H     H_    0.468820 0.854351 0.335031 0.213407
C59   C     C_R   0.013010 0.121187 0.976548 0.257275
C60   C     C_R   0.112553 0.122734 0.014991 0.061720
C61   C     C_R   0.119256 0.035149 0.948405 -0.177375
H36   H     H_    0.195725 0.035353 0.972345 0.152334
C62   C     C_R   0.023588 0.939302 0.858459 -0.187614
H37   H     H_    0.028909 0.868242 0.815581 0.140116
C63   C     C_R   0.921940 0.931741 0.835834 0.035312
C64   C     C_R   0.919326 0.027410 0.888234 0.123524
C65   C     C_3   0.853151 0.045586 0.940907 -0.539212
C66   C     C_3   0.955441 0.147992 0.037393 -0.460943
H38   H     H_    0.791548 0.063006 0.894918 0.209140
H39   H     H_    0.822010 0.982514 0.963054 0.219403
H40   H     H_    0.950314 0.222659 0.045521 0.234659
H41   H     H_    0.983249 0.144038 0.114863 0.192917
Cl1   Cl    Cl    0.161829 0.377198 0.144124 -0.744690
N17   N     N_R   0.642305 0.292490 0.304468 0.226104
O1    O     O_R   0.542902 0.258112 0.232271 -0.439801
O2    O     O_R   0.683725 0.228843 0.285660 -0.342162
Cl2   Cl    Cl    0.101921 0.754798 0.311831 -0.695764
N18   N     N_R   0.776548 0.211264 0.526817 0.236386
O3    O     O_R   0.807084 0.179921 0.455647 -0.353918
O4    O     O_R   0.676525 0.152574 0.499951 -0.430951
Cl3   Cl    Cl    0.414036 0.954323 0.701572 -0.672871

loop_
_geom_bond_atom_site_label_1
_geom_bond_atom_site_label_2
_geom_bond_distance
_ccdc_geom_bond_type
C51   C56   1.369103 A    
C29   C30   1.396400 A    
N9    Ni1   1.853307 S    
C50   H29   1.112007 S    
C35   C36   1.408543 A    
C47   C48   1.404747 A    
C34   H20   1.084549 S    
C49   C50   1.507265 S    
C1    Cl1   1.762905 S    
C43   C44   1.399819 A    
C25   Cl2   1.751068 S    
C54   C55   1.404245 A    
C59   C60   1.399450 A    
C49   H28   1.112132 S    
N2    N7    1.385349 A    
C41   C42   1.420004 A    
C57   C58   1.506675 S    
N10   Ni2   1.867259 S    
N15   Ni4   1.850349 S    
C21   C52   1.459557 S    
C51   C52   1.397629 A    
N9    N15   1.373041 A    
C13   H8    1.080918 S    
C15   H10   1.076014 S    
N12   Ni4   1.869954 S    
C55   C56   1.397505 A    
N14   Ni1   1.866699 S    
C51   C58   1.497336 S    
C6    H5    1.077688 S    
C43   C48   1.380285 A    
C61   H36   1.081870 S    
C31   C36   1.361145 A    
C26   C27   1.403190 A    
C1    N1    1.322748 A    
C31   C32   1.392213 A    
C62   H37   1.082240 S    
N11   Ni3   1.850313 S    
C59   C64   1.374102 A    
C6    C12   1.372604 A    
N5    Ni2   1.853307 S    
C40   H24   1.082853 S    
C61   C62   1.402731 A    
C19   C21   1.382091 A    
C15   C23   1.382330 A    
C56   C57   1.500914 S    
C14   N10   1.335659 A    
N2    Ni2   1.866699 S    
C14   C22   1.373041 A    
C45   C46   1.400327 A    
C4    H3    1.081038 S    
C15   N11   1.330339 A    
C16   C24   1.382631 A    
C58   H35   1.112478 S    
C26   H16   1.083411 S    
C17   N13   1.340409 A    
C29   H18   1.080832 S    
C23   C47   1.464294 S    
C8    H7    1.080679 S    
C34   C35   1.401995 A    
N6    Ni1   1.867257 S    
C52   C53   1.418999 A    
C7    C10   1.385303 A    
C12   C35   1.429328 S    
C54   H31   1.082965 S    
C39   C40   1.395244 A    
C13   C21   1.376309 A    
N8    Ni3   1.869955 S    
N12   N13   1.385593 A    
C37   C38   1.395391 A    
C19   N15   1.338992 A    
N16   Ni3   1.870423 S    
C17   C24   1.390603 A    
C2    C10   1.381901 A    
N7    Ni4   1.850314 S    
C58   H34   1.111875 S    
C46   H26   1.081717 S    
C38   C39   1.393340 A    
C7    H6    1.080105 S    
C66   H40   1.108619 S    
C3    N3    1.321282 A    
N10   N16   1.373041 A    
C37   H21   1.083384 S    
C20   N17   1.439522 S    
C10   C44   1.464161 S    
C39   H23   1.079942 S    
C38   H22   1.082581 S    
C5    C11   1.394293 A    
C25   C26   1.400348 A    
C28   C29   1.395844 A    
C18   H13   1.079665 S    
C16   H11   1.075678 S    
H15   C30   1.082680 S    
C46   C47   1.407402 A    
C18   N14   1.340890 A    
C66   H41   1.112408 S    
C14   H9    1.080525 S    
C22   C32   1.433665 S    
C43   C50   1.495645 S    
C24   C63   1.455129 S    
N11   N14   1.385347 A    
C5    H4    1.080455 S    
C4    N4    1.332708 A    
C64   C65   1.500209 S    
N4    Ni4   1.870423 S    
C9    C60   1.458261 S    
C59   C66   1.500835 S    
C17   H12   1.079394 S    
C40   C41   1.406315 A    
C5    N5    1.342615 A    
C37   C42   1.406790 A    
C48   C49   1.500647 S    
C8    N8    1.345106 A    
N18   O3    1.301154 A    
C65   H38   1.112215 S    
C2    H1    1.079543 S    
C53   C54   1.404326 A    
C63   C64   1.397363 A    
C4    C12   1.387154 A    
N17   O1    1.300042 A    
C6    N6    1.316788 A    
C19   H14   1.076757 S    
N4    N6    1.373041 A    
N3    N5    1.373040 A    
C11   C55   1.450733 S    
C33   C34   1.392377 A    
C2    N2    1.331311 A    
N3    Ni3   1.850350 S    
C33   C42   1.485613 S    
C49   H27   1.112398 S    
C3    H2    1.076493 S    
C20   C22   1.373535 A    
C57   H33   1.110974 S    
C28   H17   1.083256 S    
C65   H39   1.112475 S    
C13   N9    1.325551 A    
C45   H25   1.080765 S    
C32   C33   1.406916 A    
C16   N12   1.325029 A    
C53   Cl3   1.759116 S    
C3    C11   1.376053 A    
C50   H30   1.112347 S    
C57   H32   1.111974 S    
C7    N7    1.336956 A    
C31   H19   1.086309 S    
C62   C63   1.407655 A    
N1    Ni1   1.853249 S    
C18   C23   1.395745 A    
C27   C28   1.404224 A    
C44   C45   1.409433 A    
C25   C30   1.398991 A    
C1    C9    1.374838 A    
C20   N16   1.325375 A    
C27   C36   1.479890 S    
C8    C9    1.388477 A    
C41   N18   1.438386 S    
N1    N8    1.385594 A    
N18   O4    1.301025 A    
C65   C66   1.500638 S    
C60   C61   1.407654 A    
N13   Ni2   1.853249 S    
N17   O2    1.301054 A    
