data_mof_unit_2440.cif
_audit_creation_date              2013-03-05T16:00:07-0500
_audit_creation_method            fapswitch 2.2
_symmetry_space_group_name_H-M    P1
_symmetry_Int_Tables_number       1
_space_group_crystal_system       triclinic
_cell_length_a                    8.349205
_cell_length_b                    12.7162
_cell_length_c                    22.918613
_cell_angle_alpha                 96.540878
_cell_angle_beta                  88.953538
_cell_angle_gamma                 99.346717
_cell_volume                      2385.33941458

loop_
_atom_site_label
_atom_site_type_symbol
_atom_site_description
_atom_site_fract_x
_atom_site_fract_y
_atom_site_fract_z
_atom_type_partial_charge
P1    P     P_3+3 0.057140 0.408270 0.369700 0.452477
O1    O     O_2   0.890290 0.440320 0.360790 -0.352967
O2    O     O_3   0.130840 0.441440 0.431840 -0.410163
O3    O     O_3   0.672400 0.637930 0.395560 -0.391267
O4    O     O_2   0.791767 0.561739 0.293615 -0.374359
O5    O     O_3   0.988811 0.269113 0.361495 -0.571423
O6    O     O_3   0.727533 0.755558 0.296837 -0.497963
H1    H     H_    0.749413 0.836802 0.380710 0.142730
C1    C     C_3   0.712415 0.942134 0.317174 -0.977368
H2    H     H_    0.675305 0.003677 0.350701 0.231067
H3    H     H_    0.843952 0.964136 0.308069 0.280408
P2    P     P_3+3 0.667360 0.749400 0.544670 0.437099
P3    P     P_3+3 0.139662 0.831012 0.422417 0.462864
O7    O     O_2   0.844800 0.765340 0.527490 -0.414382
O8    O     O_3   0.090520 0.693800 0.424220 -0.349097
O9    O     O_2   0.019806 0.883537 0.463558 -0.381857
O10   O     O_3   0.652055 0.776512 0.621327 -0.644892
O11   O     O_3   0.091592 0.859040 0.352527 -0.496162
C2    C     C_3   0.223658 0.846153 0.315176 0.342736
H4    H     H_    0.258082 0.765159 0.315509 0.087854
H5    H     H_    0.328837 0.909518 0.328291 0.053768
C3    C     C_3   0.176608 0.858310 0.252877 -0.809289
H6    H     H_    0.080171 0.791079 0.236522 0.285026
H7    H     H_    0.130901 0.935266 0.251685 0.235335
C4    C     C_3   0.237331 0.775977 0.593816 0.427651
H8    H     H_    0.330912 0.732083 0.572850 0.117129
H9    H     H_    0.136388 0.772717 0.562545 0.121675
C5    C     C_3   0.312916 0.892840 0.610608 -1.018010
H10   H     H_    0.232883 0.934647 0.640885 0.288055
H11   H     H_    0.431085 0.897407 0.632868 0.261348
H12   H     H_    0.332291 0.935944 0.571098 0.250938
Ba1   Ba    Ba6+2 0.856210 0.551220 0.472190 1.553944
C6    C     C_3   0.118412 0.211654 0.357271 0.318501
H13   H     H_    0.082219 0.138037 0.379349 0.112681
H14   H     H_    0.225894 0.256717 0.380615 0.136142
C7    C     C_3   0.154540 0.177662 0.293120 -0.946730
H15   H     H_    0.043595 0.130907 0.271241 0.264557
H16   H     H_    0.251131 0.126760 0.290425 0.243501
H17   H     H_    0.196071 0.248888 0.269757 0.256978
C8    C     C_3   0.784123 0.753792 0.652284 1.081290
H18   H     H_    0.858879 0.704087 0.624210 0.029155
C9    C     C_3   0.892848 0.858802 0.674159 -1.049696
H19   H     H_    0.961158 0.891894 0.636875 0.236475
H20   H     H_    0.979793 0.845579 0.707619 0.273891
H21   H     H_    0.818148 0.918569 0.693299 0.233626
P4    P     P_3+3 0.132580 0.591820 0.630310 0.463164
O12   O     O_2   0.299410 0.559720 0.639240 -0.323224
O13   O     O_3   0.058870 0.558650 0.568170 -0.435789
O14   O     O_3   0.517310 0.362160 0.604450 -0.382347
O15   O     O_3   0.178482 0.731675 0.644591 -0.577753
P5    P     P_3+3 0.061850 0.163198 0.570408 0.468449
O16   O     O_3   0.614910 0.369290 0.471050 -0.420424
O17   O     O_3   0.099190 0.306290 0.575790 -0.367231
O18   O     O_2   0.213869 0.121354 0.543759 -0.358324
O19   O     O_3   0.063918 0.127119 0.641704 -0.500625
Ba2   Ba    Ba6+2 0.333620 0.448870 0.527810 1.538459
P6    P     P_3+3 0.661306 0.628062 0.318641 0.462861
C10   C     C_3   0.679059 0.832527 0.339546 0.528542
H22   H     H_    0.547216 0.813513 0.348980 -0.030162
H23   H     H_    0.642593 0.940871 0.276246 0.257617
O20   O     O_3   0.574800 0.630800 0.528960 -0.365536
C11   C     C_3   0.539947 0.308331 0.342758 0.412110
H24   H     H_    0.428262 0.338686 0.333257 0.017625
H25   H     H_    0.617318 0.373653 0.369413 0.163366
C12   C     C_3   0.622413 0.282816 0.284287 -0.884818
H26   H     H_    0.540132 0.221856 0.255568 0.242866
H27   H     H_    0.652253 0.356397 0.261842 0.230927
H28   H     H_    0.735679 0.250923 0.291359 0.283987
P7    P     P_3+3 0.523268 0.235937 0.446425 0.403650
O21   O     O_2   0.344900 0.234690 0.472540 -0.371544
O22   O     O_3   0.499665 0.213528 0.369693 -0.593867
H29   H     H_    0.284467 0.858055 0.223878 0.243862
C13   C     C_3   0.929722 0.158541 0.672297 0.337716
H30   H     H_    0.923441 0.243900 0.668967 0.075607
H31   H     H_    0.816292 0.106683 0.655269 0.024522
C14   C     C_3   0.948105 0.147553 0.737060 -0.856932
H32   H     H_    0.051844 0.207185 0.755667 0.294150
H33   H     H_    0.835422 0.161697 0.760901 0.243723
H34   H     H_    0.971553 0.066340 0.743398 0.247109
P8    P     P_3+3 0.543326 0.384475 0.681235 0.488212
C15   C     C_3   0.479396 0.186184 0.697053 0.453713
H35   H     H_    0.611713 0.196924 0.705550 -0.015139
O23   O     O_2   0.474183 0.487039 0.703753 -0.344329
O24   O     O_3   0.417480 0.282003 0.712530 -0.485113
H36   H     H_    0.454833 0.157355 0.649883 0.110012
H37   H     H_    0.453931 0.027306 0.724947 0.213962
C16   C     C_3   0.398800 0.101205 0.734487 -0.944547
H38   H     H_    0.267161 0.081548 0.724801 0.285732
H39   H     H_    0.416338 0.130791 0.781801 0.262776
H40   H     H_    0.031575 0.228292 0.044565 0.169921
H41   H     H_    0.956870 0.221139 0.942217 0.170061
C17   C     C_R   0.342768 0.526782 0.331182 -0.475822
C18   C     C_R   0.096299 0.586059 0.941999 -0.054874
C19   C     C_R   0.051065 0.580426 0.882024 0.521895
O25   O     O_2   0.063109 0.662920 0.858544 -0.589146
N1    N     N_R   0.991044 0.482698 0.850186 -0.166618
C20   C     C_R   0.975667 0.389476 0.877733 0.517304
O26   O     O_2   0.925386 0.302992 0.850108 -0.620759
C21   C     C_R   0.018859 0.392629 0.937518 -0.040155
C22   C     C_R   0.079486 0.491476 0.969811 -0.017595
C23   C     C_R   0.157198 0.684294 0.975055 -0.122105
C24   C     C_R   0.200330 0.688437 0.034201 -0.117370
C25   C     C_R   0.184184 0.594494 0.062525 -0.048642
C26   C     C_R   0.123404 0.495659 0.030152 -0.017970
C27   C     C_R   0.002962 0.298625 0.965760 -0.120967
C28   C     C_R   0.046031 0.302706 0.024817 -0.121756
C29   C     C_R   0.106595 0.400934 0.057851 -0.049701
C30   C     C_R   0.151399 0.406309 0.117739 0.517280
N2    N     N_R   0.210497 0.503973 0.149743 -0.165265
C31   C     C_R   0.227141 0.597378 0.122412 0.526396
C32   C     C_2   0.796278 0.423952 0.768572 -0.147187
C33   C     C_3   0.762159 0.403476 0.702975 0.040860
C34   C     C_1   0.007219 0.530619 0.688436 0.263349
C35   C     C_2   0.056954 0.529693 0.743522 -0.163996
C36   C     C_2   0.943624 0.477579 0.788186 0.143796
C37   C     C_R   0.414205 0.557981 0.231025 -0.212073
C38   C     C_R   0.456905 0.566445 0.290716 0.182766
C39   C     C_R   0.190143 0.471925 0.313158 0.279467
C40   C     C_R   0.145882 0.463940 0.253419 -0.209502
C41   C     C_R   0.256700 0.508677 0.211567 0.158510
O27   O     O_2   0.139704 0.323654 0.141078 -0.596992
O28   O     O_2   0.278352 0.683532 0.150311 -0.611619
C42   C     C_2   0.858923 0.489162 0.671066 -0.278764
H42   H     H_    0.246543 0.765885 0.057757 0.168002
H43   H     H_    0.502962 0.589657 0.199832 0.164001
H44   H     H_    0.171760 0.758663 0.955265 0.167746
H45   H     H_    0.178565 0.568195 0.756711 0.157418
H46   H     H_    0.709613 0.385786 0.798643 0.155935
H47   H     H_    0.026025 0.423621 0.239668 0.169423
H48   H     H_    0.376464 0.533710 0.377000 0.171410
H49   H     H_    0.800627 0.522237 0.637060 0.140183
C43   C     C_R   0.801250 0.163981 0.491561 -0.238612
C44   C     C_R   0.433684 0.806602 0.472377 -0.496803
C45   C     C_R   0.414111 0.984771 0.449303 -0.226869
C46   C     C_R   0.347689 0.877508 0.448818 0.168467
C47   C     C_R   0.579486 0.844322 0.502821 0.288989
C48   C     C_R   0.649183 0.954505 0.503468 -0.054871
C49   C     C_R   0.566539 0.024344 0.474704 -0.055290
C50   C     C_R   0.637567 0.132441 0.472803 0.199682
C51   C     C_R   0.875402 0.101118 0.526127 0.191376
C52   C     C_R   0.797113 0.997655 0.532660 -0.225927
H50   H     H_    0.345288 0.035782 0.429018 0.173085
H51   H     H_    0.854166 0.952345 0.560506 0.174736
H52   H     H_    0.380573 0.722870 0.470809 0.169992
O29   O     O_3   0.730048 0.694754 0.699995 -0.665582
C53   C     C_3   0.606279 0.737214 0.733354 -0.021187
H53   H     H_    0.492923 0.728892 0.707406 0.178967
H54   H     H_    0.645548 0.821882 0.751707 0.096974
H55   H     H_    0.577123 0.690257 0.771178 0.151786
C54   C     C_3   0.877236 0.277558 0.491368 -0.219005
C55   C     C_3   0.815529 0.335598 0.547837 -0.518492
H56   H     H_    0.690234 0.301275 0.549502 0.225104
H57   H     H_    0.845344 0.313334 0.590597 0.129227
H58   H     H_    0.830385 0.422434 0.548571 0.253441
H59   H     H_    0.009470 0.285996 0.484776 0.226145
H60   H     H_    0.845136 0.308896 0.451492 0.227531

loop_
_geom_bond_atom_site_label_1
_geom_bond_atom_site_label_2
_geom_bond_distance
_ccdc_geom_bond_type
P7    C50   1.902246 S    
C16   H38   1.107599 S    
C18   C19   1.422988 A    
P2    O20   1.584056 S    
C43   C54   1.480591 S    
C13   H30   1.106463 S    
H41   C27   1.083232 S    
C32   C33   1.520356 S    
C14   H34   1.107621 S    
C30   O27   1.221972 D    
P8    O24   1.748441 S    
C35   C36   1.515846 S    
O8    Ba1   2.747092 S    
C37   C38   1.407837 A    
C43   C50   1.420380 A    
C23   C24   1.401909 A    
C8    O29   1.421995 S    
C25   C31   1.419873 A    
C5    H10   1.106816 S    
C2    H5    1.111481 S    
C14   H33   1.108979 S    
Ba1   O20   2.932224 S    
C1    C10   1.521393 S    
P7    O21   1.593173 D    
C52   H51   1.072461 S    
C6    H14   1.095709 S    
C28   C29   1.408000 A    
C20   O26   1.219694 D    
C22   C26   1.430125 A    
C6    C7    1.523425 S    
C30   N2    1.389421 Am   
O1    Ba1   2.805658 S    
P1    O1    1.536944 D    
C55   H58   1.089193 S    
P7    O22   1.758693 S    
C17   C39   1.394967 A    
C4    O15   1.396954 S    
Ba1   O16   2.808180 S    
C11   H25   1.097714 S    
O16   P7    1.776447 S    
H1    C10   1.111855 S    
C39   C40   1.412800 A    
C2    H4    1.114204 S    
C12   H27   1.109685 S    
C23   H44   1.083141 S    
P2    O10   1.757817 S    
C44   C47   1.401400 A    
C55   H56   1.067870 S    
N1    C36   1.473511 S    
C1    H2    1.109926 S    
O6    C10   1.405636 S    
C11   C12   1.521498 S    
P5    C51   1.884802 S    
C8    C9    1.526056 S    
C54   H60   1.091983 S    
P2    Ba1   3.440593 S    
P3    C46   1.831849 S    
C24   C25   1.409888 A    
C9    H20   1.110248 S    
P8    O23   1.543037 D    
C24   H42   1.083199 S    
C3    H29   1.109628 S    
C20   C21   1.417704 A    
O29   C53   1.414997 S    
C53   H54   1.109426 S    
C7    H17   1.108592 S    
C21   C27   1.409640 A    
P4    O13   1.547816 S    
P1    O5    1.758497 S    
C2    C3    1.518991 S    
C51   C52   1.393777 A    
H40   C28   1.083192 S    
C33   C42   1.499592 S    
C34   C35   1.338147 D    
C18   C23   1.408927 A    
H37   C16   1.110293 S    
O11   C2    1.402765 S    
C4    H8    1.104429 S    
P1    Ba1   3.392637 S    
C15   H35   1.108973 S    
C37   C41   1.418171 A    
P1    O2    1.547785 S    
O10   C8    1.407630 S    
O3    P6    1.756094 S    
C17   H48   1.082236 S    
C17   C38   1.393124 A    
C11   H24   1.099718 S    
C45   H50   1.080103 S    
C53   H55   1.109170 S    
O2    Ba2   2.783856 S    
C21   C22   1.406779 A    
C34   C42   1.314380 D    
C29   C30   1.420406 A    
C12   H28   1.109143 S    
N1    C20   1.392271 Am   
P8    C33   1.872783 S    
C6    H13   1.110903 S    
C19   O25   1.221672 D    
Ba2   O20   2.807578 S    
O3    Ba1   2.782926 S    
C14   H32   1.110648 S    
C19   N1    1.390107 Am   
C1    H3    1.110429 S    
C18   C22   1.410357 A    
C15   C16   1.520036 S    
P3    O11   1.747518 S    
C8    H18   1.106282 S    
P2    O7    1.513356 D    
Ba2   O21   2.885161 S    
C37   H43   1.082480 S    
P3    O8    1.731386 S    
C13   C14   1.519445 S    
C3    H7    1.109859 S    
C4    H9    1.108881 S    
C9    H19   1.103947 S    
C13   H31   1.111786 S    
C32   H46   1.085368 S    
C15   O24   1.406101 S    
P6    C38   1.851290 S    
C53   H53   1.110987 S    
C48   C49   1.431250 A    
O17   Ba2   2.747799 S    
O13   Ba2   2.955512 S    
C48   C52   1.414416 A    
P4    O12   1.537139 D    
C7    H15   1.110458 S    
C44   H52   1.081729 S    
P4    C34   1.842957 S    
C42   H49   1.084562 S    
C3    H6    1.110907 S    
C5    H12   1.107001 S    
O7    Ba1   2.884896 S    
C47   C48   1.425727 A    
C45   C49   1.401454 A    
C40   C41   1.421513 A    
O14   P8    1.762044 S    
C45   C46   1.385339 A    
C43   C51   1.404570 A    
O14   Ba2   2.782453 S    
C27   C28   1.399899 A    
P4    O15   1.751397 S    
O5    C6    1.396777 S    
O4    P6    1.546624 D    
C54   H59   1.101084 S    
C1    H23   1.110607 S    
P5    O18   1.544067 D    
C7    H16   1.109862 S    
C10   H22   1.110716 S    
N2    C31   1.391107 Am   
C31   O28   1.220710 D    
C35   H45   1.085372 S    
Ba1   O13   2.783423 S    
C5    H11   1.109094 S    
C40   H47   1.082440 S    
Ba1   Ba2   4.632024 S    
C11   O22   1.406332 S    
P5    O19   1.747899 S    
P1    C39   1.860663 S    
C55   H57   1.094326 S    
O2    Ba1   2.954606 S    
C49   C50   1.411010 A    
C9    H21   1.107729 S    
C4    C5    1.526002 S    
O19   C13   1.399828 S    
C12   H26   1.110577 S    
P2    C47   1.868755 S    
P3    O9    1.541340 D    
P4    Ba2   3.393303 S    
C25   C26   1.407721 A    
C44   C46   1.398359 A    
C16   H39   1.110766 S    
C54   C55   1.538395 S    
C32   C36   1.363233 D    
P5    O17   1.785862 S    
O6    P6    1.751364 S    
C26   C29   1.410559 A    
C15   H36   1.112912 S    
O16   Ba2   2.931285 S    
N2    C41   1.467365 S    
O12   Ba2   2.806162 S    
