data_mof_unit_3177.cif
_audit_creation_date              2013-03-05T15:41:47-0500
_audit_creation_method            fapswitch 2.2
_symmetry_space_group_name_H-M    P1
_symmetry_Int_Tables_number       1
_space_group_crystal_system       triclinic
_cell_length_a                    19.379729
_cell_length_b                    8.76992
_cell_length_c                    7.478986
_cell_angle_alpha                 102.828159
_cell_angle_beta                  95.493019
_cell_angle_gamma                 92.6691
_cell_volume                      1230.68466943

loop_
_atom_site_label
_atom_site_type_symbol
_atom_site_description
_atom_site_fract_x
_atom_site_fract_y
_atom_site_fract_z
_atom_type_partial_charge
O1    O     O_R   0.505010 0.286130 0.619770 -0.569120
O2    O     O_R   0.494990 0.713870 0.380230 -0.569120
O3    O     O_R   0.491990 0.256780 0.308370 -0.521079
O4    O     O_R   0.508010 0.743220 0.691630 -0.521079
C1    C     C_R   0.498126 0.200527 0.453948 0.809819
C2    C     C_R   0.501874 0.799473 0.546051 0.809817
O5    O     O_R   0.406650 0.514660 0.655750 -0.591152
O6    O     O_R   0.593350 0.485340 0.344250 -0.591152
O7    O     O_R   0.393640 0.485310 0.344340 -0.531843
O8    O     O_R   0.606360 0.514690 0.655660 -0.531843
C3    C     C_R   0.367455 0.502722 0.500059 0.811948
C4    C     C_R   0.632544 0.497278 0.499941 0.811947
Cu1   Cu    Cu3+1 0.507710 0.517380 0.684380 1.119236
Cu2   Cu    Cu3+1 0.492290 0.482620 0.315620 1.119236
C5    C     C_R   0.261415 0.520066 0.663633 -0.131720
C6    C     C_R   0.738585 0.479934 0.336367 -0.131721
C7    C     C_R   0.189566 0.518426 0.666016 -0.091459
C8    C     C_R   0.810434 0.481574 0.333984 -0.091459
C9    C     C_R   0.145872 0.503180 0.501394 -0.036197
C10   C     C_R   0.854128 0.496820 0.498605 -0.036197
C11   C     C_R   0.175231 0.491570 0.335569 -0.197091
C12   C     C_R   0.824769 0.508430 0.664431 -0.197091
C13   C     C_R   0.247011 0.495743 0.332549 0.375077
C14   C     C_R   0.752988 0.504257 0.667451 0.375077
C15   C     C_R   0.291202 0.507233 0.498030 -0.176446
C16   C     C_R   0.708797 0.492767 0.501970 -0.176446
N1    N     N_R   0.028249 0.487304 0.340883 -0.217487
N2    N     N_R   0.971751 0.512696 0.659117 -0.217487
N3    N     N_R   0.959614 0.485988 0.339687 -0.220801
N4    N     N_R   0.040386 0.514012 0.660313 -0.220801
C17   C     C_R   0.930039 0.498691 0.498914 0.451023
C18   C     C_R   0.069961 0.501309 0.501086 0.451023
C19   C     C_2   0.502166 0.034736 0.428464 0.039549
C20   C     C_2   0.497833 0.965263 0.571536 0.039549
N5    N     N_2   0.480680 0.456420 0.038530 -0.165017
N6    N     N_2   0.519320 0.543580 0.961470 -0.165017
H1    H     H_    0.294075 0.531136 0.791381 0.248817
H2    H     H_    0.705925 0.468863 0.208619 0.248817
H3    H     H_    0.168383 0.528740 0.796668 0.194802
H4    H     H_    0.831617 0.471260 0.203331 0.194802
H5    H     H_    0.142597 0.482253 0.207071 0.184783
H6    H     H_    0.857402 0.517746 0.792928 0.184783
N7    N     N_R   0.273659 0.492531 0.160440 0.109941
O9    O     O_R   0.304847 0.618863 0.133546 -0.353243
O10   O     O_R   0.256690 0.373327 0.022302 -0.374840
N8    N     N_R   0.726341 0.507469 0.839559 0.109941
O11   O     O_R   0.695153 0.381136 0.866454 -0.353244
O12   O     O_R   0.743310 0.626673 0.977697 -0.374841
N9    N     N_R   0.515422 0.950077 0.248819 0.141723
O13   O     O_R   0.464431 0.908519 0.117793 -0.252252
O14   O     O_R   0.579107 0.932659 0.210977 -0.328174
N10   N     N_R   0.484576 0.049922 0.751180 0.141724
O15   O     O_R   0.535567 0.091477 0.882208 -0.252250
O16   O     O_R   0.420892 0.067347 0.789018 -0.328178
H7    H     H_    0.443584 0.382462 0.948901 0.271207
H8    H     H_    0.556416 0.617538 0.051099 0.271205

loop_
_geom_bond_atom_site_label_1
_geom_bond_atom_site_label_2
_geom_bond_distance
_ccdc_geom_bond_type
N4    C18   1.355276 A    
O7    Cu2   1.944809 S    
N6    H8    1.028650 S    
N1    N3    1.328796 A    
C6    H2    1.077117 S    
O7    C3    1.295591 A    
C20   N10   1.436414 S    
N5    N6    1.304658 D    
O6    C4    1.308777 A    
C14   N8    1.427189 S    
N9    O14   1.300725 A    
N2    N4    1.328796 A    
C19   C20   1.350987 D    
N3    C17   1.355276 A    
O2    C2    1.290349 A    
Cu1   Cu2   2.692381 S    
O5    C3    1.308777 A    
N7    O10   1.300662 A    
C14   C16   1.417390 A    
C12   H6    1.083597 S    
O3    Cu2   1.968991 S    
O8    C4    1.295591 A    
O1    C1    1.290348 A    
C9    C18   1.470231 S    
C12   C14   1.392339 A    
C6    C8    1.393681 A    
C9    C11   1.398800 A    
N10   O16   1.300722 A    
C8    C10   1.402691 A    
C11   C13   1.392339 A    
N7    O9    1.301207 A    
C6    C16   1.400327 A    
O2    Cu2   1.974667 S    
C11   H5    1.083597 S    
C5    C15   1.400327 A    
O1    Cu1   1.974667 S    
C3    C15   1.478850 S    
N5    H7    1.028649 S    
N8    O12   1.300662 A    
O5    Cu1   1.948152 S    
C13   C15   1.417390 A    
C13   N7    1.427189 S    
N10   O15   1.300815 A    
Cu1   N6    2.023002 S    
O4    C2    1.289246 A    
N9    O13   1.300816 A    
C7    H3    1.082835 S    
C4    C16   1.478850 S    
Cu2   N5    2.023002 S    
C5    C7    1.393681 A    
C8    H4    1.082835 S    
N8    O11   1.301208 A    
C5    H1    1.077117 S    
O6    Cu2   1.948152 S    
C7    C9    1.402691 A    
N1    C18   1.357972 A    
C19   N9    1.436415 S    
O8    Cu1   1.944807 S    
N2    C17   1.357972 A    
C2    C20   1.430692 S    
O4    Cu1   1.968991 S    
C10   C12   1.398800 A    
O3    C1    1.289246 A    
C10   C17   1.470231 S    
C1    C19   1.430691 S    
