data_mof_unit_2301.cif
_audit_creation_date              2012-12-10T16:44:15-0500
_audit_creation_method            fapswitch 2.2
_symmetry_space_group_name_H-M    P1
_symmetry_Int_Tables_number       1
_space_group_crystal_system       triclinic
_cell_length_a                    7.539427
_cell_length_b                    8.694657
_cell_length_c                    13.509803
_cell_angle_alpha                 96.079358
_cell_angle_beta                  80.129126
_cell_angle_gamma                 101.906194
_cell_volume                      851.435703048

loop_
_atom_site_label
_atom_site_type_symbol
_atom_type_description
_atom_site_fract_x
_atom_site_fract_y
_atom_site_fract_z
_atom_type_partial_charge
C1    C     C_R   0.547419 0.798326 0.495780 0.831647
C2    C     C_R   0.421050 0.485807 0.971120 0.074203
C3    C     C_R   0.449555 0.540634 0.874098 0.081469
C4    C     C_R   0.540915 0.557939 0.039656 0.039927
C5    C     C_R   0.708493 0.654780 0.004456 0.152536
C6    C     C_R   0.725378 0.722104 0.913299 -0.217461
C7    C     C_R   0.587327 0.673979 0.852966 -0.208832
C8    C     C_R   0.492660 0.549295 0.143722 0.079365
C9    C     C_R   0.815824 0.630235 0.160039 -0.234447
C10   C     C_R   0.340452 0.461769 0.801450 -0.118733
C11   C     C_2   0.578842 0.960594 0.473186 -0.161013
C12   C     C_R   0.401298 0.488010 0.693113 0.758780
C13   C     C_2   0.436941 0.034641 0.499393 -0.443743
C14   C     C_R   0.457688 0.200703 0.494994 0.859512
C15   C     C_R   0.595461 0.520782 0.307910 0.777939
C16   C     C_R   0.848154 0.688866 0.064544 -0.195471
C17   C     C_R   0.637034 0.561146 0.201851 -0.065885
C18   C     C_R   0.189858 0.338337 0.831534 0.002497
C19   C     C_R   0.165089 0.285436 0.927833 -0.217570
C20   C     C_R   0.281430 0.355075 0.995828 -0.214214
Cu1   Cu    Cu3+1 0.321300 0.483160 0.488710 0.963700
Cu2   Cu    Cu3+1 0.678700 0.516840 0.511290 0.982141
H1    H     H_    0.925437 0.651514 0.204580 0.175077
H2    H     H_    0.305040 0.975143 0.535726 0.159788
H3    H     H_    0.984680 0.364558 0.430718 0.209809
H4    H     H_    0.841294 0.814339 0.890581 0.138620
H5    H     H_    0.981449 0.757498 0.037278 0.141991
H6    H     H_    0.262144 0.305246 0.067923 0.143630
H7    H     H_    0.055906 0.187352 0.950183 0.133855
H8    H     H_    0.590555 0.737298 0.788261 0.142791
N1    N     N_2   0.947230 0.542220 0.528320 -0.060597
N2    N     N_2   0.052770 0.457780 0.471680 -0.195009
O1    O     O_R   0.383920 0.714220 0.492660 -0.647211
O2    O     O_R   0.685730 0.742660 0.511730 -0.549653
O3    O     O_R   0.275440 0.478800 0.636790 -0.558307
O4    O     O_R   0.577250 0.507240 0.655860 -0.559923
O5    O     O_R   0.314270 0.257340 0.488270 -0.552405
O6    O     O_R   0.616080 0.285780 0.507340 -0.582287
O7    O     O_R   0.422750 0.492760 0.344140 -0.585946
O8    O     O_R   0.724560 0.521200 0.363210 -0.598418
C21   C     C_3   0.031700 0.688659 0.577811 -0.010904
C22   C     C_3   0.917551 0.737280 0.674206 -0.846331
H9    H     H_    0.003086 0.831619 0.717248 0.175893
H10   H     H_    0.803055 0.787866 0.660108 0.267526
H11   H     H_    0.872089 0.634175 0.720297 0.298167
H12   H     H_    0.062057 0.783462 0.525175 0.183190
H13   H     H_    0.150078 0.674602 0.608243 0.218053
C23   C     C_3   0.299938 0.578083 0.189282 -0.388994
C24   C     C_3   0.307734 0.740578 0.246973 -0.732465
H14   H     H_    0.172587 0.747994 0.293056 0.249863
H15   H     H_    0.412054 0.765245 0.297963 0.254319
H16   H     H_    0.342716 0.833930 0.192848 0.226398
H17   H     H_    0.215349 0.579745 0.130020 0.193204
H18   H     H_    0.219739 0.481652 0.235334 0.217514
C25   C     C_2   0.060049 0.253210 0.764520 0.389144
H19   H     H_    0.035468 0.125467 0.755598 0.034473
O9    O     O_2   0.968741 0.323507 0.725600 -0.505717
C26   C     C_2   0.755733 0.030574 0.411321 0.389363
H20   H     H_    0.764490 0.131885 0.369053 0.060864
O10   O     O_2   0.892345 0.972888 0.404345 -0.555713

loop_
_geom_bond_atom_site_label_1
_geom_bond_atom_site_label_2
_ccdc_geom_bond_type
C2    C4    A    
C25   H19   S    
C8    C23   S    
C6    C7    A    
Cu1   O3    S    
C23   H17   S    
C12   O4    A    
C11   C26   S    
N1    C21   S    
C21   C22   S    
C8    C17   A    
Cu1   O7    S    
C4    C8    A    
C24   H16   S    
Cu2   O8    S    
H3    N2    S    
C2    C3    A    
C21   H13   S    
C1    O1    A    
C3    C10   A    
Cu1   Cu2   S    
C14   O5    A    
C23   H18   S    
C11   C13   D    
C15   O7    A    
C6    H4    S    
C21   H12   S    
C22   H10   S    
C18   C25   S    
C10   C18   A    
C10   C12   S    
C9    C17   A    
C23   C24   S    
C9    C16   A    
C1    O2    A    
C18   C19   A    
C3    C7    A    
C25   O9    D    
C5    C6    A    
Cu2   O2    S    
Cu1   N2    S    
C12   O3    A    
C15   O8    A    
Cu1   O1    S    
Cu2   N1    S    
C26   O10   D    
C14   O6    A    
C19   H7    S    
Cu1   O5    S    
C7    H8    S    
C24   H14   S    
C22   H9    S    
C16   H5    S    
C15   C17   S    
C9    H1    S    
C5    C16   A    
C1    C11   S    
C20   H6    S    
C26   H20   S    
C13   C14   S    
C2    C20   A    
N1    N2    D    
Cu2   O4    S    
C19   C20   A    
C13   H2    S    
C4    C5    A    
C24   H15   S    
C22   H11   S    
Cu2   O6    S    
