data_mof_unit_1482.cif
_audit_creation_date              2012-12-11T16:57:18-0500
_audit_creation_method            fapswitch 2.2
_symmetry_space_group_name_H-M    P1
_symmetry_Int_Tables_number       1
_space_group_crystal_system       triclinic
_cell_length_a                    14.344839
_cell_length_b                    16.459906
_cell_length_c                    6.963454
_cell_angle_alpha                 90.000803
_cell_angle_beta                  99.624963
_cell_angle_gamma                 90.00006
_cell_volume                      1621.02929508

loop_
_atom_site_label
_atom_site_type_symbol
_atom_type_description
_atom_site_fract_x
_atom_site_fract_y
_atom_site_fract_z
_atom_type_partial_charge
O1    O     O_R   0.584990 0.413650 0.534420 -0.525536
O2    O     O_R   0.584990 0.586350 0.534420 -0.525554
O3    O     O_R   0.596190 0.585230 0.208380 -0.525523
O4    O     O_R   0.596190 0.414770 0.208380 -0.525512
O5    O     O_R   0.415010 0.586420 0.976930 -0.540473
O6    O     O_R   0.415010 0.413580 0.976930 -0.540454
C1    C     C_R   0.617487 0.615510 0.385090 0.768462
C2    C     C_R   0.617492 0.384491 0.385091 0.768546
O7    O     O_3   0.440560 0.500000 0.319140 -0.362461
V1    V     V_3+5 0.511030 0.500000 0.068070 1.641432
O8    O     O_R   0.403810 0.414840 0.643540 -0.517116
O9    O     O_R   0.403810 0.585160 0.643540 -0.517142
C3    C     C_R   0.380723 0.386550 0.805798 0.763750
C4    C     C_R   0.380726 0.613451 0.805800 0.763657
V2    V     V_3+5 0.488970 0.500000 0.560620 1.667968
O10   O     O_3   0.559440 0.500000 0.859420 -0.355397
H1    H     H_    0.197210 0.816259 0.809240 0.173389
H2    H     H_    0.197208 0.183740 0.809244 0.173386
C5    C     C_2   0.320325 0.687370 0.800727 0.082173
C6    C     C_2   0.320317 0.312634 0.800721 0.082260
C7    C     C_2   0.267401 0.705046 0.942165 0.136578
C8    C     C_2   0.267396 0.294959 0.942165 0.136486
H3    H     H_    0.209222 0.785284 0.247937 0.198216
H4    H     H_    0.209207 0.214727 0.247934 0.198232
C9    C     C_2   0.189113 0.814968 0.108736 -0.228076
C10   C     C_2   0.189103 0.185039 0.108736 -0.228195
C11   C     C_2   0.216293 0.783962 0.945973 -0.067237
C12   C     C_2   0.216286 0.216042 0.945974 -0.067396
C13   C     C_R   0.757027 0.689703 0.585342 0.006585
C14   C     C_R   0.756967 0.310250 0.585473 0.006494
C15   C     C_R   0.684918 0.686400 0.419798 -0.126301
C16   C     C_R   0.684926 0.313599 0.419801 -0.126261
C17   C     C_R   0.668606 0.759008 0.310491 0.236639
C18   C     C_R   0.668618 0.240996 0.310459 0.236452
C19   C     C_R   0.738389 0.820987 0.327634 -0.161077
C20   C     C_R   0.738399 0.179015 0.327608 -0.160915
H5    H     H_    0.724707 0.875444 0.240245 0.145025
H6    H     H_    0.724714 0.124554 0.240215 0.144989
C21   C     C_R   0.817971 0.818474 0.477396 -0.128594
C22   C     C_R   0.817966 0.181522 0.477418 -0.128422
C23   C     C_R   0.822160 0.755177 0.611502 0.064258
C24   C     C_R   0.822079 0.244758 0.611680 0.064176
C25   C     C_3   0.814730 0.769981 0.817932 0.051954
C26   C     C_3   0.814407 0.229838 0.817959 0.051906
C27   C     C_3   0.740493 0.704209 0.791449 0.292588
C28   C     C_3   0.740294 0.295710 0.791468 0.292622
H7    H     H_    0.785918 0.830959 0.844437 0.134713
H8    H     H_    0.785437 0.168870 0.843998 0.134670
O11   O     O_R   0.921430 0.915960 0.371040 -0.529417
O12   O     O_R   0.921430 0.084040 0.371040 -0.529287
O13   O     O_R   0.910450 0.087500 0.697310 -0.541679
O14   O     O_R   0.910450 0.912500 0.697310 -0.541766
O15   O     O_R   0.091710 0.087460 0.928430 -0.539637
O16   O     O_R   0.091710 0.912540 0.928430 -0.539647
C29   C     C_R   0.886001 0.112495 0.517251 0.724133
C30   C     C_R   0.886003 0.887502 0.517248 0.724006
O17   O     O_3   0.065970 1.000000 0.586140 -0.373373
V3    V     V_3+5 0.995640 0.000000 0.837400 1.528132
O18   O     O_R   0.103020 0.915700 0.261710 -0.531846
O19   O     O_R   0.103020 0.084300 0.261710 -0.531803
C31   C     C_R   0.125530 0.886353 0.100423 0.788428
C32   C     C_R   0.125529 0.113648 0.100424 0.788604
V4    V     V_3+5 0.017940 1.000000 0.344880 1.550588
O20   O     O_3   0.947330 0.000000 0.046180 -0.371684
I1    I     I_    0.770595 0.605393 0.984080 -0.196817
I2    I     I_    0.770543 0.394487 0.984178 -0.196880
I3    I     I_    0.239100 0.616894 0.150979 -0.234122
I4    I     I_    0.239103 0.383112 0.150989 -0.234282
Br1   Br    Br    0.337769 0.766480 0.606546 -0.478044
Br2   Br    Br    0.337745 0.233526 0.606519 -0.477983
I5    I     I_    0.526277 0.793154 0.203523 -0.192228
I6    I     I_    0.526290 0.206841 0.203533 -0.192260
Br3   Br    Br    0.936578 0.749287 0.982223 -0.472228
Br4   Br    Br    0.936137 0.250241 0.982960 -0.472320
Br5   Br    Br    0.614594 0.747260 0.792793 -0.493385
Br6   Br    Br    0.614289 0.252833 0.792519 -0.493165

loop_
_geom_bond_atom_site_label_1
_geom_bond_atom_site_label_2
_ccdc_geom_bond_type
C25   Br3   S    
O11   V4    S    
O1    C2    A    
O2    C1    A    
O4    C2    A    
C28   Br6   S    
C21   C23   A    
O19   V4    S    
C5    C7    D    
H4    C10   S    
C28   I2    S    
O3    C1    A    
V2    O10   S    
O19   C32   A    
O8    V2    S    
C15   C17   A    
O1    V2    S    
O7    V1    S    
O13   C29   A    
C13   C23   A    
C22   C24   A    
C7    C11   S    
C8    C12   S    
C7    I3    S    
O12   V4    S    
C23   C25   S    
C6    Br2   S    
C24   C26   S    
C26   C28   S    
O17   V4    S    
V3    O20   S    
O18   C31   A    
C1    C15   S    
C2    C16   S    
C20   C22   A    
H2    C12   S    
C13   C27   S    
H1    C11   S    
C19   C21   A    
O15   C32   A    
C21   C30   S    
O9    V2    S    
C22   C29   S    
O13   V3    S    
C9    C31   S    
C26   Br4   S    
O2    V2    S    
C25   C27   S    
C8    I4    S    
O5    C4    A    
O14   V3    S    
C6    C8    D    
C27   I1    S    
C5    Br1   S    
O4    V1    S    
C18   I6    S    
O16   V3    S    
C3    C6    S    
C19   H5    S    
O18   V4    S    
C4    C5    S    
C14   C28   S    
O9    C4    A    
O6    V1    S    
O15   V3    S    
O16   C31   A    
C9    C11   D    
O11   C30   A    
C10   C12   D    
O12   C29   A    
C27   Br5   S    
C20   H6    S    
C10   C32   S    
O5    V1    S    
C13   C15   A    
O3    V1    S    
V1    O10   S    
O6    C3    A    
C14   C16   A    
O8    C3    A    
O17   V3    S    
C17   C19   A    
C18   C20   A    
H3    C9    S    
O7    V2    S    
C17   I5    S    
V4    O20   S    
C26   H8    S    
C14   C24   A    
C25   H7    S    
O14   C30   A    
C16   C18   A    
