data_mof_unit_2981.cif
_audit_creation_date              2013-03-05T16:05:18-0500
_audit_creation_method            fapswitch 2.2
_symmetry_space_group_name_H-M    P1
_symmetry_Int_Tables_number       1
_space_group_crystal_system       triclinic
_cell_length_a                    27.222761
_cell_length_b                    7.253608
_cell_length_c                    22.835422
_cell_angle_alpha                 90.081067
_cell_angle_beta                  101.686843
_cell_angle_gamma                 89.950723
_cell_volume                      4415.67343332

loop_
_atom_site_label
_atom_site_type_symbol
_atom_site_description
_atom_site_fract_x
_atom_site_fract_y
_atom_site_fract_z
_atom_type_partial_charge
O1    O     O_R   0.707300 0.594030 0.176840 -0.582786
O2    O     O_R   0.292700 0.405970 0.823160 -0.582783
O3    O     O_R   0.792700 0.094030 0.323160 -0.579356
O4    O     O_R   0.207300 0.905970 0.676840 -0.579357
O5    O     O_R   0.697330 0.262360 0.295660 -0.565925
O6    O     O_R   0.302670 0.737640 0.704340 -0.565906
O7    O     O_R   0.802670 0.762360 0.204340 -0.565316
O8    O     O_R   0.197330 0.237640 0.795660 -0.565309
C1    C     C_R   0.684480 0.433893 0.311482 0.945926
C2    C     C_R   0.315529 0.566106 0.688530 0.945918
C3    C     C_R   0.815350 0.933667 0.188292 0.945773
C4    C     C_R   0.184650 0.066332 0.811707 0.945774
O9    O     O_R   0.701410 0.264250 0.175600 -0.585438
O10   O     O_R   0.298590 0.735750 0.824400 -0.585435
O11   O     O_R   0.798590 0.764250 0.324400 -0.586248
O12   O     O_R   0.201410 0.235750 0.675600 -0.586259
O13   O     O_R   0.796800 0.094950 0.202240 -0.542376
O14   O     O_R   0.203200 0.905050 0.797760 -0.542364
O15   O     O_R   0.703200 0.594950 0.297760 -0.544689
O16   O     O_R   0.296800 0.405050 0.702240 -0.544739
C5    C     C_R   0.689801 0.432370 0.153570 0.943928
C6    C     C_R   0.310200 0.567629 0.846429 0.943900
C7    C     C_R   0.810171 0.932487 0.346435 0.952069
C8    C     C_R   0.189830 0.067509 0.653564 0.951977
O17   O     O_3   0.781290 0.427390 0.258880 -0.249076
O18   O     O_3   0.218710 0.572610 0.741120 -0.249051
O19   O     O_3   0.718710 0.927390 0.241120 -0.252594
O20   O     O_3   0.281290 0.072610 0.758880 -0.252581
V1    V     V_3+5 0.744190 0.152150 0.248350 1.281397
V2    V     V_3+5 0.255810 0.847850 0.751650 1.281403
V3    V     V_3+5 0.755810 0.652150 0.251650 1.281498
V4    V     V_3+5 0.244190 0.347850 0.748350 1.281489
C9    C     C_R   0.154916 0.062498 0.595021 -0.121764
C10   C     C_R   0.845086 0.937456 0.404979 -0.121732
C11   C     C_R   0.345081 0.563262 0.905026 -0.117836
C12   C     C_R   0.654920 0.436733 0.094972 -0.117859
C13   C     C_R   0.139973 0.122015 0.488181 -0.099745
C14   C     C_R   0.860044 0.877522 0.511792 -0.099552
C15   C     C_R   0.360323 0.629978 0.011475 -0.096514
C16   C     C_R   0.639673 0.369935 0.988529 -0.096536
C17   C     C_R   0.172376 0.113087 0.544135 -0.172863
C18   C     C_R   0.827629 0.886711 0.455854 -0.172808
C19   C     C_R   0.327871 0.619526 0.955577 -0.181946
C20   C     C_R   0.672127 0.380412 0.044425 -0.181911
C21   C     C_R   0.103902 0.022849 0.590608 -0.222115
C22   C     C_R   0.896105 0.977041 0.409395 -0.222249
C23   C     C_R   0.395669 0.515328 0.909960 -0.229331
C24   C     C_R   0.604333 0.484693 0.090037 -0.229339
C25   C     C_R   0.069213 0.032725 0.534848 0.122961
C26   C     C_R   0.930802 0.966885 0.465143 0.123021
C27   C     C_R   0.430512 0.528067 0.965570 0.120909
C28   C     C_R   0.569488 0.471921 0.034429 0.120915
C29   C     C_R   0.088388 0.076893 0.482954 0.082733
C30   C     C_R   0.911632 0.922553 0.517025 0.082731
C31   C     C_R   0.412263 0.591272 0.016327 0.086095
C32   C     C_R   0.587735 0.408675 0.983674 0.086098
C33   C     C_R   0.016284 0.999147 0.528912 0.064242
C34   C     C_R   0.983735 0.000336 0.471080 0.064259
C35   C     C_R   0.483034 0.485380 0.971987 0.067126
C36   C     C_R   0.516966 0.514607 0.028013 0.067122
C37   C     C_R   0.005354 0.031375 0.420907 -0.183773
C38   C     C_R   0.994672 0.967863 0.579078 -0.183703
C39   C     C_R   0.497359 0.587629 0.075671 -0.199835
C40   C     C_R   0.502639 0.412334 0.924330 -0.199837
C41   C     C_R   0.056055 0.069159 0.426773 -0.147718
C42   C     C_R   0.943974 0.929996 0.573203 -0.147788
C43   C     C_R   0.446567 0.623549 0.070041 -0.161031
C44   C     C_R   0.553430 0.376386 0.929963 -0.161046
H1    H     H_    0.069766 0.087669 0.385954 0.172389
H2    H     H_    0.930270 0.911182 0.614014 0.172235
H3    H     H_    0.434892 0.683738 0.108333 0.170760
H4    H     H_    0.565102 0.316166 0.891674 0.170784
H5    H     H_    0.907273 0.014850 0.368408 0.115295
H6    H     H_    0.092735 0.985235 0.631612 0.115234
H7    H     H_    0.593166 0.523289 0.130993 0.112413
H8    H     H_    0.406839 0.476780 0.869000 0.112412
H9    H     H_    0.788450 0.850021 0.451575 0.180383
H10   H     H_    0.211552 0.149825 0.548414 0.180436
H11   H     H_    0.711496 0.346283 0.048637 0.171015
H12   H     H_    0.288500 0.653627 0.951368 0.170992
H13   H     H_    0.984155 0.025170 0.375723 0.145126
H14   H     H_    0.015874 0.973815 0.624263 0.145134
H15   H     H_    0.520515 0.622128 0.118296 0.144389
H16   H     H_    0.479481 0.377819 0.881708 0.144398
C45   C     C_R   0.875976 0.123639 0.139320 0.270781
C46   C     C_R   0.124016 0.876360 0.860669 0.270778
C47   C     C_R   0.632327 0.624506 0.372014 0.274245
C48   C     C_R   0.367741 0.375473 0.628076 0.274153
C49   C     C_R   0.912513 0.134309 0.103451 0.246183
C50   C     C_R   0.087480 0.865686 0.896538 0.246133
C51   C     C_R   0.597297 0.634683 0.409834 0.244008
C52   C     C_R   0.402814 0.365282 0.590313 0.244160
C53   C     C_R   0.926842 0.974453 0.076073 -0.123489
C54   C     C_R   0.073156 0.025536 0.923925 -0.123464
C55   C     C_R   0.572691 0.474386 0.423333 -0.121176
C56   C     C_R   0.427426 0.525569 0.576825 -0.121203
C57   C     C_R   0.904353 0.806451 0.085101 -0.102730
C58   C     C_R   0.095651 0.193533 0.914905 -0.102721
C59   C     C_R   0.583172 0.306571 0.398180 -0.104329
C60   C     C_R   0.416913 0.693409 0.601937 -0.104399
H17   H     H_    0.914016 0.684061 0.063142 0.220137
H18   H     H_    0.085992 0.315917 0.936870 0.220115
H19   H     H_    0.563457 0.183923 0.406688 0.219615
H20   H     H_    0.436625 0.816064 0.593425 0.219671
C61   C     C_R   0.869683 0.794071 0.122533 -0.093280
C62   C     C_R   0.130322 0.205917 0.877474 -0.093293
C63   C     C_R   0.619468 0.294496 0.362827 -0.098602
C64   C     C_R   0.380583 0.705500 0.637245 -0.098555
H21   H     H_    0.853780 0.661811 0.128493 0.231230
H22   H     H_    0.146230 0.338172 0.871522 0.231208
H23   H     H_    0.626886 0.161968 0.345396 0.232480
H24   H     H_    0.373142 0.838050 0.654644 0.232515
C65   C     C_R   0.854516 0.950620 0.150347 -0.343458
C66   C     C_R   0.145482 0.049376 0.849651 -0.343444
C67   C     C_R   0.645169 0.451292 0.349255 -0.343958
C68   C     C_R   0.354872 0.548701 0.650802 -0.343981
C69   C     C_R   0.952738 0.922999 0.977867 -0.112190
C70   C     C_R   0.047259 0.076997 0.022130 -0.112223
C71   C     C_R   0.486298 0.422298 0.442946 -0.117631
C72   C     C_R   0.513835 0.577592 0.557233 -0.117514
H25   H     H_    0.916085 0.865414 0.959870 0.141446
H26   H     H_    0.083912 0.134584 0.040127 0.141435
H27   H     H_    0.474904 0.364318 0.398539 0.139247
H28   H     H_    0.525229 0.635567 0.601642 0.139261
C73   C     C_R   0.987384 0.941571 0.940526 -0.048056
C74   C     C_R   0.012612 0.058427 0.059471 -0.048060
C75   C     C_R   0.450783 0.441216 0.479161 -0.039578
C76   C     C_R   0.549352 0.558664 0.521019 -0.039592
H29   H     H_    0.977108 0.895496 0.894536 0.142895
H30   H     H_    0.022887 0.104509 0.105459 0.142907
H31   H     H_    0.412717 0.394886 0.462375 0.148560
H32   H     H_    0.587421 0.604967 0.537805 0.148495
C77   C     C_R   0.035101 0.017699 0.962401 0.174817
C78   C     C_R   0.964896 0.982292 0.037596 0.174803
C79   C     C_R   0.464284 0.518023 0.536798 0.173438
C80   C     C_R   0.535847 0.481892 0.463376 0.173462
C81   C     C_2   0.161317 0.187511 0.436995 1.006727
O21   O     O_2   0.202628 0.133370 0.431169 -0.592531
O22   O     O_R   0.135455 0.317566 0.397135 -0.795517
H33   H     H_    0.154244 0.352689 0.364739 0.342977
C82   C     C_2   0.838713 0.811810 0.562956 1.006646
O23   O     O_2   0.797470 0.866322 0.568914 -0.592509
O24   O     O_R   0.864507 0.681163 0.602639 -0.795419
H34   H     H_    0.845720 0.645830 0.635018 0.342980
C83   C     C_2   0.338090 0.678805 0.063734 1.008530
O25   O     O_2   0.306031 0.799162 0.059047 -0.612501
O26   O     O_R   0.351995 0.581746 0.117418 -0.789636
H35   H     H_    0.333731 0.626456 0.149295 0.342615
C84   C     C_2   0.661904 0.321024 0.936275 1.008544
O27   O     O_2   0.693962 0.200654 0.940977 -0.612501
O28   O     O_R   0.648001 0.418009 0.882576 -0.789640
H36   H     H_    0.666260 0.373229 0.850704 0.342620
N1    N     N_R   0.857802 0.292411 0.159322 0.248872
O29   O     O_R   0.879828 0.365156 0.209944 -0.368810
O30   O     O_R   0.816106 0.362602 0.129721 -0.431689
N2    N     N_R   0.142184 0.707592 0.840657 0.248890
O31   O     O_R   0.120162 0.634901 0.790026 -0.368798
O32   O     O_R   0.183880 0.637379 0.870252 -0.431678
N3    N     N_R   0.650493 0.793699 0.352479 0.246137
O33   O     O_R   0.630886 0.857098 0.299627 -0.419760
O34   O     O_R   0.689478 0.874301 0.384669 -0.388827
N4    N     N_R   0.349547 0.206284 0.647580 0.246093
O35   O     O_R   0.369110 0.142849 0.700441 -0.419752
O36   O     O_R   0.310614 0.125586 0.615315 -0.388772
N5    N     N_R   0.932851 0.310291 0.092299 0.224354
O37   O     O_R   0.933576 0.361195 0.037847 -0.411449
O38   O     O_R   0.953755 0.414538 0.136793 -0.381482
N6    N     N_R   0.067140 0.689702 0.907685 0.224357
O39   O     O_R   0.046250 0.585435 0.863190 -0.381459
O40   O     O_R   0.066411 0.638792 0.962135 -0.411456
N7    N     N_R   0.584893 0.810542 0.431826 0.223623
O41   O     O_R   0.619994 0.914122 0.462299 -0.365335
O42   O     O_R   0.538214 0.860718 0.425701 -0.415071
N8    N     N_R   0.415249 0.189420 0.568358 0.223605
O43   O     O_R   0.461936 0.139274 0.574557 -0.415086
O44   O     O_R   0.380182 0.085949 0.537769 -0.365379

loop_
_geom_bond_atom_site_label_1
_geom_bond_atom_site_label_2
_geom_bond_distance
_ccdc_geom_bond_type
O17   V3    1.766002 S    
C59   H19   1.077415 S    
N7    O41   1.300837 A    
C25   C29   1.425253 A    
O1    C5    1.334528 A    
N5    O37   1.301569 A    
C47   C51   1.412089 A    
O19   V1    1.766670 S    
C9    C21   1.401915 A    
O3    C7    1.334218 A    
O26   H35   1.013862 S    
C10   C18   1.391456 A    
O1    V3    1.981153 S    
O15   V3    1.986247 S    
C83   O25   1.223295 D    
C25   C33   1.440549 A    
C33   C38   1.408528 A    
C5    C12   1.475971 S    
O7    C3    1.360425 A    
C6    C11   1.475965 S    
N7    O42   1.301586 A    
C35   C40   1.408213 A    
C26   C30   1.425190 A    
C62   C66   1.402398 A    
C36   C39   1.408220 A    
C40   C44   1.386991 A    
C61   C65   1.402406 A    
N2    O31   1.300850 A    
C75   C79   1.407150 A    
C23   H8    1.076944 S    
C14   C18   1.399378 A    
C76   C80   1.407160 A    
C62   H22   1.072967 S    
O4    C8    1.334190 A    
C55   C59   1.398881 A    
N6    O40   1.301569 A    
C43   H3    1.080503 S    
C54   C58   1.398385 A    
C73   C77   1.406919 A    
O24   H34   1.013850 S    
C52   C56   1.407673 A    
C54   C77   1.489099 S    
O13   V1    1.985117 S    
O2    V4    1.981155 S    
C70   H26   1.083091 S    
O3    V1    1.981700 S    
C69   H25   1.083090 S    
N8    O43   1.301580 A    
C40   H16   1.076303 S    
C46   N2    1.428645 S    
C28   C36   1.440890 A    
C72   H28   1.083049 S    
C1    O15   1.337700 A    
C60   H20   1.077423 S    
C15   C31   1.423464 A    
C48   C52   1.412064 A    
C2    O16   1.337709 A    
C16   C32   1.423470 A    
O2    C6    1.334525 A    
O28   H36   1.013859 S    
N3    O34   1.300874 A    
C10   C22   1.401952 A    
N1    O30   1.301426 A    
C11   C19   1.391406 A    
C16   C20   1.399467 A    
C47   C67   1.428966 A    
C44   H4    1.080500 S    
C13   C29   1.423455 A    
C34   C37   1.408478 A    
O11   C7    1.332836 A    
C38   H14   1.076250 S    
C11   C23   1.402357 A    
C35   C36   1.433811 A    
O12   C8    1.332855 A    
C13   C81   1.485502 S    
C49   C53   1.408364 A    
C24   H7    1.076938 S    
O10   V2    1.998922 S    
C69   C78   1.403763 A    
C76   H32   1.083061 S    
C83   O26   1.398478 S    
C50   C54   1.408370 A    
C56   C79   1.488793 S    
N4    O36   1.300892 A    
C39   C43   1.386995 A    
C60   C64   1.399487 A    
O7    V3    1.999010 S    
C38   C42   1.387005 A    
O8    V4    1.999012 S    
C53   C78   1.489092 S    
C46   C50   1.412993 A    
C17   H10   1.084499 S    
C45   C49   1.412988 A    
O18   V4    1.766001 S    
C23   C27   1.425719 A    
C52   N8    1.435068 S    
C19   H12   1.084908 S    
C32   C44   1.402452 A    
O4    V2    1.981700 S    
C64   H24   1.074485 S    
C39   H15   1.076301 S    
C21   H6    1.076922 S    
C82   O24   1.398493 S    
C1    C67   1.509496 S    
C48   C68   1.428969 A    
O5    C1    1.360220 A    
C73   H29   1.083051 S    
C81   O22   1.398476 S    
C31   C43   1.402452 A    
N3    O33   1.301209 A    
C14   C30   1.423367 A    
C21   C25   1.425208 A    
O8    C4    1.360428 A    
C7    C10   1.475490 S    
C49   N5    1.435302 S    
C15   C83   1.485577 S    
C26   C34   1.440510 A    
O9    C5    1.332944 A    
C45   N1    1.428647 S    
C63   C67   1.403328 A    
C70   C77   1.403765 A    
C4    C66   1.509164 S    
O14   V2    1.985111 S    
N6    O39   1.300871 A    
O6    V2    1.996909 S    
C14   C82   1.485375 S    
C84   O28   1.398479 S    
C12   C20   1.391405 A    
C27   C35   1.440882 A    
O5    V1    1.996909 S    
C53   C57   1.398386 A    
C29   C41   1.402194 A    
N4    O35   1.301208 A    
O16   V4    1.986249 S    
O9    V1    1.998920 S    
C41   H1    1.080544 S    
C61   H21   1.072973 S    
C3    O13   1.337218 A    
C50   N6    1.435312 S    
C63   H23   1.074468 S    
C20   H11   1.084905 S    
C8    C9    1.475484 S    
O6    C2    1.360216 A    
C15   C19   1.399466 A    
O22   H33   1.013842 S    
C72   C76   1.400341 A    
O11   V3    1.997823 S    
C30   C42   1.402172 A    
C71   H27   1.083046 S    
O12   V4    1.997825 S    
C59   C63   1.399455 A    
C81   O21   1.223274 D    
C22   C26   1.425216 A    
C71   C80   1.403361 A    
C58   C62   1.398808 A    
C51   N7    1.435120 S    
C46   C66   1.428812 A    
C72   C79   1.403381 A    
C9    C17   1.391438 A    
O10   C6    1.332945 A    
N2    O32   1.301426 A    
C57   C61   1.398808 A    
O20   V2    1.766671 S    
C58   H18   1.077288 S    
C82   O23   1.223255 D    
C64   C68   1.403378 A    
C33   C34   1.433590 A    
C42   H2    1.080554 S    
C48   N4    1.428893 S    
C56   C60   1.398869 A    
C45   C65   1.428815 A    
C55   C80   1.488781 S    
N8    O44   1.300828 A    
C47   N3    1.428873 S    
C16   C84   1.485588 S    
C12   C24   1.402353 A    
C27   C31   1.425407 A    
C13   C17   1.399423 A    
C3    C65   1.509165 S    
C2    C68   1.509503 S    
C75   H31   1.083057 S    
C51   C55   1.407712 A    
C37   C41   1.386994 A    
C24   C28   1.425720 A    
C74   C78   1.406916 A    
C18   H9    1.084502 S    
N5    O38   1.300870 A    
C4    O14   1.337217 A    
C74   H30   1.083049 S    
C37   H13   1.076269 S    
C70   C74   1.400416 A    
N1    O29   1.300851 A    
C84   O27   1.223292 D    
C69   C73   1.400416 A    
C22   H5    1.076939 S    
C57   H17   1.077289 S    
C28   C32   1.425415 A    
C71   C75   1.400293 A    
