data_mof_unit_3072.cif
_audit_creation_date              2012-12-11T15:32:34-0500
_audit_creation_method            fapswitch 2.2
_symmetry_space_group_name_H-M    P1
_symmetry_Int_Tables_number       1
_space_group_crystal_system       triclinic
_cell_length_a                    6.953121
_cell_length_b                    20.45608
_cell_length_c                    24.3958
_cell_angle_alpha                 89.599396
_cell_angle_beta                  90.492107
_cell_angle_gamma                 89.433101
_cell_volume                      3469.51772615

loop_
_atom_site_label
_atom_site_type_symbol
_atom_type_description
_atom_site_fract_x
_atom_site_fract_y
_atom_site_fract_z
_atom_type_partial_charge
O1    O     O_R   0.507320 0.423560 0.460500 -0.536486
O2    O     O_R   0.170760 0.556250 0.437010 -0.536240
O3    O     O_R   0.004030 0.576440 0.539500 -0.535544
C1    C     C_R   0.338733 0.576392 0.421049 0.725182
O4    O     O_R   0.177370 0.422820 0.454110 -0.538382
O5    O     O_R   0.010680 0.442050 0.556720 -0.535502
C2    C     C_R   0.346290 0.398926 0.443402 0.692481
O6    O     O_R   0.500680 0.557950 0.443280 -0.535025
O7    O     O_3   0.340380 0.506470 0.533650 -0.367115
V1    V     V_3+5 0.064130 0.498800 0.493760 1.428525
O8    O     O_R   0.681160 0.443750 0.562990 -0.538080
C3    C     C_R   0.850955 0.423675 0.578889 0.724881
O9    O     O_R   0.674560 0.577180 0.545890 -0.537934
C4    C     C_R   0.842660 0.601114 0.556525 0.696741
V2    V     V_3+5 0.564560 0.501200 0.506240 1.427141
O10   O     O_3   0.838180 0.493530 0.466350 -0.367067
C5    C     C_R   0.976439 0.838154 0.911250 -0.041767
C6    C     C_R   0.847471 0.661814 0.588701 -0.045960
C7    C     C_R   0.040631 0.722054 0.906141 -0.163154
C8    C     C_R   0.031558 0.779370 0.936409 -0.168856
C9    C     C_R   0.930927 0.839376 0.854948 -0.215294
C10   C     C_R   0.942360 0.781574 0.822705 0.086579
C11   C     C_R   0.997989 0.722638 0.849795 0.140835
C12   C     C_R   0.903265 0.780154 0.764741 0.058190
C13   C     C_R   0.920558 0.719818 0.735208 0.058878
C14   C     C_R   0.975732 0.662950 0.764653 -0.188187
C15   C     C_R   0.013096 0.664520 0.820596 -0.203242
C16   C     C_R   0.848083 0.837021 0.735296 -0.187824
C17   C     C_R   0.810738 0.835450 0.679350 -0.200630
C18   C     C_R   0.825869 0.777333 0.650149 0.136924
C19   C     C_R   0.881481 0.718398 0.677244 0.087124
C20   C     C_R   0.783283 0.777914 0.593799 -0.156826
C21   C     C_R   0.792392 0.720596 0.563532 -0.160517
C22   C     C_R   0.892934 0.660595 0.645004 -0.215283
H1    H     H_    0.055611 0.619486 0.841267 0.121137
H2    H     H_    0.932001 0.613685 0.662300 0.093396
H3    H     H_    0.755111 0.721990 0.520316 0.116205
H4    H     H_    0.768229 0.880484 0.658677 0.122693
H5    H     H_    0.083837 0.677098 0.926782 0.111704
H6    H     H_    0.068913 0.777975 0.979620 0.105762
H7    H     H_    0.891857 0.886288 0.837654 0.093363
H8    H     H_    0.992147 0.615936 0.745643 0.122256
H9    H     H_    0.831657 0.884034 0.754308 0.122359
H10   H     H_    0.740107 0.822870 0.573153 0.118831
C23   C     C_3   0.847712 0.307623 0.769047 -0.138530
C24   C     C_3   0.037034 0.272873 0.787405 -0.139316
H11   H     H_    0.140353 0.291437 0.818406 0.107573
H12   H     H_    0.794381 0.355323 0.784505 0.108321
H13   H     H_    0.226720 0.265282 0.707286 0.110111
C25   C     C_1   0.960538 0.121841 0.875290 -0.194129
C26   C     C_1   0.863784 0.378183 0.624738 -0.194321
C27   C     C_3   0.739860 0.241821 0.773400 -0.139340
C28   C     C_3   0.928969 0.207697 0.791143 0.170077
C29   C     C_3   0.787288 0.227231 0.712686 -0.139126
C30   C     C_3   0.895352 0.292407 0.708945 0.170127
C31   C     C_3   0.976608 0.192483 0.731042 -0.138190
C32   C     C_3   0.084462 0.258283 0.726690 -0.139319
C33   C     C_1   0.947203 0.160374 0.837272 -0.066034
C34   C     C_1   0.877122 0.339695 0.662789 -0.066280
H14   H     H_    0.029939 0.144782 0.715585 0.108867
H15   H     H_    0.683963 0.208665 0.681687 0.107649
H16   H     H_    0.597605 0.234823 0.792807 0.110084
C35   C     C_3   0.545654 0.727039 0.215561 -0.132967
C36   C     C_3   0.354308 0.692505 0.229826 -0.149425
H17   H     H_    0.307026 0.644846 0.213225 0.113510
H18   H     H_    0.656498 0.708149 0.187104 0.107984
H19   H     H_    0.105416 0.765754 0.200442 0.114411
C37   C     C_1   0.348533 0.621988 0.375070 -0.185343
C38   C     C_1   0.475627 0.878116 0.125007 -0.194278
C39   C     C_3   0.579136 0.741821 0.277243 -0.133836
C40   C     C_3   0.388123 0.707734 0.291006 0.121709
C41   C     C_3   0.469603 0.808022 0.270215 -0.156054
C42   C     C_3   0.435561 0.792502 0.209100 0.154898
C43   C     C_3   0.280206 0.772986 0.283862 0.000148
C44   C     C_3   0.244154 0.758567 0.222665 -0.174736
C45   C     C_1   0.363879 0.660458 0.337058 -0.048783
C46   C     C_1   0.460154 0.839673 0.163039 -0.052445
H20   H     H_    0.516335 0.855692 0.286943 0.127133
H21   H     H_    0.717385 0.734559 0.299648 0.138212
C47   C     C_R   0.472397 0.162268 0.088307 -0.084879
C48   C     C_R   0.352488 0.338356 0.410992 -0.042179
C49   C     C_R   0.534672 0.278771 0.092051 0.178241
C50   C     C_R   0.524641 0.220363 0.062708 -0.163102
C51   C     C_R   0.429871 0.161893 0.144386 -0.222806
C52   C     C_R   0.441343 0.219833 0.176323 0.052819
C53   C     C_R   0.494296 0.278781 0.149113 0.123041
C54   C     C_R   0.404477 0.221001 0.234346 0.070315
C55   C     C_R   0.421074 0.280955 0.264250 0.060906
C56   C     C_R   0.472863 0.337722 0.235222 -0.196068
C57   C     C_R   0.507912 0.336611 0.179378 -0.198338
C58   C     C_R   0.352005 0.164141 0.263558 -0.184111
C59   C     C_R   0.316951 0.165467 0.319459 -0.201568
C60   C     C_R   0.331699 0.223305 0.348954 0.137931
C61   C     C_R   0.384526 0.282186 0.322202 0.085722
C62   C     C_R   0.291383 0.222505 0.405236 -0.159984
C63   C     C_R   0.299988 0.279596 0.435781 -0.168459
C64   C     C_R   0.395751 0.339754 0.354755 -0.214384
H22   H     H_    0.547339 0.382349 0.160231 0.136773
H23   H     H_    0.432784 0.386653 0.337760 0.093269
H24   H     H_    0.264236 0.278052 0.478914 0.106238
H25   H     H_    0.276498 0.120449 0.339859 0.127345
H26   H     H_    0.559094 0.219809 0.019441 0.107351
H27   H     H_    0.393122 0.115201 0.161774 0.103340
H28   H     H_    0.488304 0.384540 0.254529 0.122276
H29   H     H_    0.335782 0.117239 0.244501 0.124604
H30   H     H_    0.250240 0.177567 0.425601 0.114645
O11   O     O_R   0.323550 0.942140 0.056770 -0.535207
O12   O     O_R   0.647080 0.077200 0.045890 -0.537865
O13   O     O_R   0.813610 0.057920 0.943260 -0.535455
C65   C     C_R   0.478218 0.101138 0.056603 0.705894
O14   O     O_R   0.653470 0.943760 0.063000 -0.536865
O15   O     O_R   0.820050 0.923540 0.960490 -0.536642
C66   C     C_R   0.485480 0.923676 0.078998 0.724260
O16   O     O_R   0.317110 0.076520 0.039540 -0.535853
O17   O     O_3   0.483830 0.993580 0.966380 -0.367489
V3    V     V_3+5 0.760140 0.001190 0.006240 1.425756
O18   O     O_R   0.149510 0.922740 0.954070 -0.538195
C67   C     C_R   0.981358 0.898849 0.943433 0.693597
O19   O     O_R   0.143120 0.056170 0.936970 -0.537972
C68   C     C_R   0.973344 0.076296 0.921100 0.726014
V4    V     V_3+5 0.259690 0.998700 0.993700 1.425388
O20   O     O_3   0.986130 0.006420 0.033620 -0.366474
C69   C     C_1   0.133551 0.798480 0.321145 0.274993
N1    N     N_1   0.017844 0.818586 0.350557 -0.368813
C70   C     C_3   0.591533 0.340034 0.061573 -0.820694
H31   H     H_    0.617218 0.330677 0.017420 0.209367
H32   H     H_    0.474921 0.377310 0.064333 0.207350
H33   H     H_    0.726445 0.359647 0.079399 0.211334

loop_
_geom_bond_atom_site_label_1
_geom_bond_atom_site_label_2
_ccdc_geom_bond_type
C13   C19   A    
C18   C20   A    
C54   C55   A    
C60   C61   A    
O17   V4    S    
C50   H26   S    
C54   C58   A    
C4    C6    S    
C38   C46   T    
C62   C63   A    
C47   C51   A    
C49   C53   A    
C69   N1    T    
C52   C53   A    
C38   C66   S    
C14   C15   A    
V3    O20   S    
C25   C68   S    
C16   C17   A    
C30   C34   S    
O5    C3    A    
C40   C45   S    
C8    H6    S    
C28   C31   S    
O17   V3    S    
C5    C8    A    
H13   C32   S    
C31   C32   S    
C36   C40   S    
C58   H29   S    
O11   C66   A    
C41   H20   S    
O13   V3    S    
C24   H11   S    
O16   V4    S    
O8    V2    S    
C7    C8    A    
C17   H4    S    
C70   H33   S    
O14   V3    S    
O1    V2    S    
C11   C15   A    
O7    V1    S    
C65   O16   A    
C1    O6    A    
C52   C54   A    
C43   C69   S    
C35   H18   S    
C60   C62   A    
O9    C4    A    
C42   C44   S    
C47   C50   A    
C64   H23   S    
C27   C29   S    
C55   C61   A    
O19   V4    S    
C29   C31   S    
C43   C44   S    
C25   C33   T    
C12   C13   A    
C41   C43   S    
C53   C57   A    
C58   C59   A    
C1    C37   S    
C48   C63   A    
C7    C11   A    
C35   C42   S    
C23   C27   S    
C15   H1    S    
C13   C14   A    
C23   C24   S    
C21   H3    S    
C31   H14   S    
O2    C1    A    
C49   C70   S    
C17   C18   A    
C62   H30   S    
C35   C39   S    
O8    C3    A    
C20   H10   S    
C19   C22   A    
O14   C66   A    
C51   C52   A    
O19   C68   A    
C6    C22   A    
V4    O20   S    
C39   C40   S    
O3    C4    A    
C7    H5    S    
C5    C67   S    
C9    H7    S    
C59   H25   S    
C2    C48   S    
O6    V2    S    
O9    V2    S    
C56   H28   S    
C70   H31   S    
C10   C12   A    
C26   C34   T    
O11   V4    S    
O2    V1    S    
O15   V3    S    
C3    C26   S    
C27   C28   S    
C14   H8    S    
O4    C2    A    
C23   H12   S    
C29   C30   S    
C39   H21   S    
O1    C2    A    
C12   C16   A    
C41   C42   S    
O5    V1    S    
C40   C43   S    
C39   C41   S    
C28   C33   S    
C29   H15   S    
O18   V4    S    
C37   C45   T    
C16   H9    S    
C61   C64   A    
C20   C21   A    
O12   V3    S    
C30   C32   S    
O7    V2    S    
O4    V1    S    
C24   C32   S    
O3    V1    S    
C27   H16   S    
O18   C67   A    
C36   H17   S    
O15   C67   A    
C18   C19   A    
C48   C64   A    
C63   H24   S    
C24   C28   S    
C59   C60   A    
C36   C44   S    
O12   C65   A    
C22   H2    S    
C6    C21   A    
C5    C9    A    
C35   C36   S    
H19   C44   S    
C55   C56   A    
C23   C30   S    
C49   C50   A    
C47   C65   S    
C70   H32   S    
C51   H27   S    
C42   C46   S    
C10   C11   A    
V1    O10   S    
C56   C57   A    
C9    C10   A    
C57   H22   S    
V2    O10   S    
O13   C68   A    
