data_mof_unit_2583.cif
_audit_creation_date              2012-12-10T17:49:39-0500
_audit_creation_method            fapswitch 2.2
_symmetry_space_group_name_H-M    P1
_symmetry_Int_Tables_number       1
_space_group_crystal_system       triclinic
_cell_length_a                    14.749212
_cell_length_b                    14.786864
_cell_length_c                    15.865484
_cell_angle_alpha                 76.315665
_cell_angle_beta                  102.425159
_cell_angle_gamma                 115.063358
_cell_volume                      3019.30848539

loop_
_atom_site_label
_atom_site_type_symbol
_atom_type_description
_atom_site_fract_x
_atom_site_fract_y
_atom_site_fract_z
_atom_type_partial_charge
C1    C     C_R   0.880339 0.312447 0.514931 0.785927
C2    C     C_3   0.038099 0.419901 0.073677 -0.372968
C3    C     C_3   0.000494 0.499895 0.082908 0.326766
C4    C     C_3   0.070521 0.605264 0.039632 -0.378771
C5    C     C_3   0.069839 0.605365 0.941796 -0.374706
C6    C     C_1   0.001018 0.499828 0.175244 -0.115010
C7    C     C_1   0.998855 0.500120 0.824725 -0.108661
C8    C     C_1   0.998896 0.500095 0.749123 -0.156139
C9    C     C_R   0.812400 0.204889 0.526184 -0.047292
C10   C     C_R   0.187405 0.794707 0.482887 -0.051310
C11   C     C_R   0.783033 0.027238 0.559558 -0.199864
C12   C     C_R   0.999596 0.499937 0.659561 0.827704
C13   C     C_R   0.849713 0.128437 0.549803 -0.197553
C14   C     C_R   0.708116 0.179083 0.513720 -0.257770
C15   C     C_R   0.639326 0.077758 0.526140 0.089415
C16   C     C_R   0.678429 0.001380 0.547198 0.162918
C17   C     C_R   0.533049 0.050437 0.516193 0.067075
C18   C     C_R   0.466965 0.946682 0.518963 0.062713
C19   C     C_R   0.509305 0.872814 0.541018 -0.223082
C20   C     C_R   0.612949 0.899964 0.555511 -0.227340
C21   C     C_R   0.490773 0.123102 0.505437 -0.223041
C22   C     C_R   0.387178 0.095807 0.493381 -0.234619
C23   C     C_R   0.119625 0.687516 0.485982 0.788698
C24   C     C_R   0.321631 0.995613 0.490171 0.164964
C25   C     C_R   0.360660 0.920188 0.501659 0.088952
C26   C     C_R   0.217014 0.969953 0.475897 -0.202752
C27   C     C_R   0.150204 0.869866 0.473119 -0.195987
C28   C     C_R   0.291654 0.820797 0.494448 -0.251334
C29   C     C_R   0.710730 0.658062 0.344311 -0.326049
C30   C     C_R   0.792470 0.629187 0.369943 0.009080
C31   C     C_R   0.717301 0.517590 0.493597 0.507032
C32   C     C_R   0.627129 0.535228 0.464552 -0.039588
C33   C     C_R   0.628075 0.611801 0.391726 0.100753
C34   C     C_R   0.000388 0.500050 0.340435 0.828430
C35   C     C_R   0.536988 0.480586 0.505778 0.098323
C36   C     C_R   0.456182 0.514891 0.483023 0.056312
C37   C     C_R   0.464388 0.597268 0.414069 -0.234017
C38   C     C_R   0.547205 0.642331 0.367682 -0.176429
C39   C     C_R   0.522105 0.388725 0.564375 -0.173934
C40   C     C_R   0.437746 0.338983 0.607862 -0.232351
C41   C     C_R   0.362319 0.376105 0.592055 0.166581
C42   C     C_R   0.368853 0.463176 0.528301 -0.021965
C43   C     C_R   0.278296 0.324238 0.637492 -0.318736
C44   C     C_R   0.199854 0.357249 0.618625 0.076479
C45   C     C_3   0.037424 0.419990 0.975846 -0.379715
C46   C     C_R   0.286021 0.492649 0.512119 0.011165
C47   C     C_3   0.891502 0.474714 0.935543 -0.366336
C48   C     C_3   0.892173 0.474621 0.033378 -0.378614
C49   C     C_1   0.001029 0.499863 0.250858 -0.179711
C50   C     C_3   0.999357 0.500054 0.917053 0.320364
Cu1   Cu    Cu3+1 0.081750 0.475690 0.522550 0.934579
Cu2   Cu    Cu3+1 0.918250 0.524310 0.477450 0.945378
H1    H     H_    0.988860 0.343344 0.104206 0.162493
H2    H     H_    0.115000 0.436601 0.963867 0.164057
H3    H     H_    0.115995 0.436489 0.108628 0.163838
H4    H     H_    0.044989 0.664198 0.045296 0.161312
H5    H     H_    0.642033 0.840885 0.572540 0.150811
H6    H     H_    0.317132 0.762009 0.496502 0.147165
H7    H     H_    0.069766 0.851294 0.464038 0.157318
H8    H     H_    0.358204 0.153918 0.485969 0.149867
H9    H     H_    0.813241 0.969047 0.576550 0.134968
H10   H     H_    0.930145 0.146724 0.559889 0.152040
H11   H     H_    0.682222 0.239700 0.492053 0.148157
H12   H     H_    0.987866 0.343468 0.959444 0.161702
H13   H     H_    0.464598 0.792624 0.550371 0.146951
H14   H     H_    0.535581 0.201867 0.508593 0.134833
H15   H     H_    0.186891 0.027265 0.467781 0.134118
H16   H     H_    0.548567 0.702781 0.313115 0.139887
H17   H     H_    0.283462 0.556534 0.463766 0.120016
H18   H     H_    0.133771 0.316113 0.652123 0.123234
H19   H     H_    0.430614 0.269456 0.653166 0.146319
H20   H     H_    0.711771 0.715639 0.287280 0.147676
H21   H     H_    0.855288 0.663715 0.332256 0.143762
H22   H     H_    0.862429 0.531334 0.894141 0.170640
H23   H     H_    0.406188 0.626532 0.392180 0.130506
H24   H     H_    0.572327 0.350290 0.574901 0.168591
H25   H     H_    0.272523 0.257499 0.686208 0.136259
H26   H     H_    0.839318 0.399184 0.918399 0.165547
H27   H     H_    0.840290 0.399048 0.063167 0.164049
H28   H     H_    0.863405 0.531195 0.038913 0.163840
H29   H     H_    0.148001 0.625343 0.929189 0.163442
H30   H     H_    0.043963 0.664337 0.900524 0.163977
H31   H     H_    0.149000 0.625169 0.073964 0.161875
N1    N     N_R   0.795410 0.560790 0.443550 -0.207890
N2    N     N_R   0.204590 0.439170 0.556520 -0.177226
O1    O     O_R   0.977910 0.338120 0.529720 -0.588420
O2    O     O_R   0.839850 0.379180 0.491640 -0.614264
O3    O     O_R   0.069060 0.479460 0.639610 -0.581583
O4    O     O_R   0.931000 0.520530 0.601530 -0.546694
O5    O     O_R   0.160150 0.620820 0.508360 -0.591160
O6    O     O_R   0.022090 0.661880 0.470280 -0.584945
O7    O     O_R   0.069000 0.479470 0.398470 -0.575967
O8    O     O_R   0.930940 0.520540 0.360390 -0.581902
O9    O     O_3   0.731651 0.470006 0.577745 -0.747278
H32   H     H_    0.755987 0.418336 0.575237 0.344117

loop_
_geom_bond_atom_site_label_1
_geom_bond_atom_site_label_2
_ccdc_geom_bond_type
C10   C27   A    
C1    O2    A    
C40   H19   S    
C21   H14   S    
C41   C42   A    
C36   C42   A    
C19   C20   A    
C34   O8    A    
C9    C14   A    
C3    C6    S    
Cu1   N2    S    
C7    C8    T    
C25   C28   A    
C26   C27   A    
C29   C30   A    
C26   H15   S    
C48   H27   S    
C36   C37   A    
C24   C26   A    
C2    H3    S    
Cu1   O5    S    
C22   H8    S    
C15   C16   A    
C29   C33   A    
C3    C48   S    
C18   C19   A    
C42   C46   A    
Cu2   N1    S    
C9    C13   A    
C46   H17   S    
C13   H10   S    
C31   C32   A    
C44   H18   S    
C8    C12   S    
C29   H20   S    
C37   H23   S    
C21   C22   A    
C4    H4    S    
C41   C43   A    
Cu2   O4    S    
C18   C25   A    
Cu1   O1    S    
C47   C50   S    
C2    C45   S    
C12   O3    A    
Cu1   Cu2   S    
C32   C35   A    
C12   O4    A    
C1    C9    S    
C24   C25   A    
C47   H22   S    
C39   C40   A    
C30   H21   S    
C17   C21   A    
C31   N1    A    
C35   C36   A    
C35   C39   A    
C43   C44   A    
C37   C38   A    
Cu1   O7    S    
C5    H29   S    
C11   C16   A    
C47   C48   S    
C16   C20   A    
C17   C18   A    
C23   O5    A    
Cu2   O8    S    
C39   H24   S    
C40   C41   A    
C38   H16   S    
C45   H2    S    
C23   O6    A    
C5    C50   S    
C3    C4    S    
C10   C28   A    
C1    O1    A    
C15   C17   A    
C34   C49   S    
Cu2   O2    S    
C7    C50   S    
C4    C5    S    
C11   H9    S    
C2    H1    S    
Cu1   O3    S    
C28   H6    S    
C10   C23   S    
C43   H25   S    
C31   O9    S    
C45   H12   S    
C33   C38   A    
C32   C33   A    
C46   N2    A    
C2    C3    S    
C27   H7    S    
C5    H30   S    
C11   C13   A    
C48   H28   S    
C4    H31   S    
C45   C50   S    
C14   H11   S    
C19   H13   S    
C22   C24   A    
C6    C49   T    
C30   N1    A    
O9    H32   S    
C34   O7    A    
C14   C15   A    
Cu2   O6    S    
C47   H26   S    
C20   H5    S    
C44   N2    A    
