data_mof_unit_2709.cif
_audit_creation_date              2012-12-11T15:50:30-0500
_audit_creation_method            fapswitch 2.2
_symmetry_space_group_name_H-M    P1
_symmetry_Int_Tables_number       1
_space_group_crystal_system       triclinic
_cell_length_a                    18.893086
_cell_length_b                    10.995572
_cell_length_c                    18.760633
_cell_angle_alpha                 90.115387
_cell_angle_beta                  91.259941
_cell_angle_gamma                 89.90953
_cell_volume                      3896.38452812

loop_
_atom_site_label
_atom_site_type_symbol
_atom_type_description
_atom_site_fract_x
_atom_site_fract_y
_atom_site_fract_z
_atom_type_partial_charge
C1    C     C_R   0.273437 0.039958 0.854769 0.547152
C2    C     C_R   0.726293 0.039484 0.145116 0.544587
C3    C     C_R   0.773438 0.539958 0.854770 0.544524
C4    C     C_R   0.226294 0.539488 0.145118 0.544939
C5    C     C_3   0.531756 0.731552 0.971565 -0.109821
C6    C     C_3   0.472742 0.726922 0.027157 -0.101273
C7    C     C_3   0.031750 0.231546 0.971566 -0.109561
C8    C     C_3   0.972736 0.226925 0.027159 -0.101393
C9    C     C_R   0.240509 0.573700 0.071896 -0.002139
C10   C     C_R   0.758100 0.575673 0.927723 0.007959
C11   C     C_R   0.740506 0.073692 0.071893 -0.002196
C12   C     C_R   0.258099 0.075676 0.927722 0.007956
C13   C     C_R   0.304884 0.549887 0.039184 -0.022497
C14   C     C_R   0.695842 0.542039 0.961941 -0.031761
C15   C     C_R   0.804881 0.049879 0.039180 -0.022662
C16   C     C_R   0.195841 0.042044 0.961939 -0.031586
C17   C     C_R   0.310742 0.559403 0.965422 0.076056
C18   C     C_R   0.691218 0.550201 0.036067 0.032050
C19   C     C_R   0.810738 0.059393 0.965419 0.077219
C20   C     C_R   0.191217 0.050206 0.036066 0.031933
C21   C     C_R   0.187028 0.612556 0.955426 -0.187642
C22   C     C_R   0.811827 0.621223 0.043113 -0.182663
C23   C     C_R   0.687024 0.112543 0.955422 -0.187570
C24   C     C_R   0.311826 0.121228 0.043112 -0.182723
C25   C     C_R   0.182219 0.609324 0.028770 -0.170012
C26   C     C_R   0.815078 0.619777 0.969709 -0.170428
C27   C     C_R   0.682215 0.109311 0.028766 -0.169949
C28   C     C_R   0.315077 0.119783 0.969708 -0.170488
C29   C     C_3   0.348648 0.437385 0.043037 -0.224584
C30   C     C_3   0.658665 0.422731 0.958681 -0.219933
C31   C     C_3   0.848645 0.937377 0.043034 -0.224580
C32   C     C_3   0.158662 0.922738 0.958679 -0.219919
C33   C     C_3   0.354653 0.446057 0.962729 -0.049805
C34   C     C_3   0.655798 0.428391 0.039244 -0.045418
C35   C     C_3   0.854650 0.946047 0.962726 -0.050071
C36   C     C_3   0.155796 0.928395 0.039242 -0.045403
C37   C     C_R   0.251236 0.587731 0.922579 -0.009150
C38   C     C_R   0.749745 0.587823 0.077412 0.001099
C39   C     C_R   0.751233 0.087720 0.922575 -0.008293
C40   C     C_R   0.249745 0.087827 0.077410 0.000997
C41   C     C_R   0.495792 0.829247 0.421504 0.020543
C42   C     C_R   0.485484 0.831129 0.570874 0.018645
C43   C     C_R   0.994035 0.330435 0.420667 0.017657
C44   C     C_R   0.982766 0.329784 0.569848 0.022247
C45   C     C_R   0.470514 0.821771 0.855453 0.548043
C46   C     C_R   0.529595 0.821647 0.144451 0.543756
C47   C     C_R   0.970514 0.321771 0.855453 0.547866
C48   C     C_R   0.029594 0.321647 0.144452 0.543397
C49   C     C_R   0.487454 0.721297 0.459813 0.026832
C50   C     C_R   0.484057 0.723247 0.532429 0.026016
C51   C     C_R   0.979730 0.222744 0.457496 0.027118
C52   C     C_R   0.974924 0.223184 0.530314 0.043116
C53   C     C_R   0.481263 0.941038 0.532338 -0.161828
C54   C     C_R   0.485977 0.940063 0.457587 -0.169117
C55   C     C_R   0.985142 0.440793 0.532704 -0.163171
C56   C     C_R   0.989518 0.441128 0.458027 -0.170817
C57   C     C_3   0.530047 0.606060 0.462061 -0.266183
C58   C     C_3   0.526234 0.610067 0.542476 -0.282356
C59   C     C_3   0.017416 0.102480 0.458979 -0.269012
C60   C     C_3   0.012852 0.105095 0.539210 -0.278202
C61   C     C_R   0.253185 0.613258 0.416666 0.019357
C62   C     C_R   0.748171 0.588725 0.577642 0.014637
C63   C     C_R   0.751377 0.105481 0.418572 0.019438
C64   C     C_R   0.245647 0.096215 0.579999 0.018205
C65   C     C_R   0.204594 0.688760 0.451020 0.025043
C66   C     C_R   0.783639 0.684518 0.545669 0.014731
C67   C     C_R   0.702392 0.177073 0.455064 0.020925
C68   C     C_R   0.280715 0.192445 0.547793 0.021450
C69   C     C_R   0.213330 0.716813 0.521936 0.020195
C70   C     C_R   0.783887 0.691958 0.473077 0.050948
C71   C     C_R   0.705471 0.182190 0.527621 0.036159
C72   C     C_R   0.280722 0.199656 0.475070 0.046989
C73   C     C_R   0.326183 0.613788 0.523985 -0.156084
C74   C     C_R   0.705473 0.520093 0.461500 -0.178228
C75   C     C_R   0.814716 0.069849 0.529491 -0.152003
C76   C     C_R   0.200529 0.030722 0.464222 -0.175050
C77   C     C_R   0.317692 0.586511 0.451371 -0.160622
C78   C     C_R   0.704082 0.512799 0.535368 -0.166176
C79   C     C_R   0.812334 0.064972 0.455127 -0.155162
C80   C     C_R   0.198839 0.024925 0.538219 -0.171158
C81   C     C_3   0.126413 0.671822 0.458370 -0.269112
C82   C     C_3   0.859110 0.726775 0.551871 -0.270517
C83   C     C_3   0.622672 0.175294 0.455605 -0.268363
C84   C     C_3   0.355030 0.240172 0.554003 -0.273369
C85   C     C_3   0.136135 0.700098 0.536265 -0.269634
C86   C     C_3   0.859323 0.731390 0.471532 -0.265916
C87   C     C_3   0.627278 0.180726 0.535815 -0.280067
C88   C     C_3   0.355109 0.244364 0.473424 -0.267384
C89   C     C_R   0.260723 0.635206 0.851218 0.548976
C90   C     C_R   0.739505 0.635041 0.148840 0.541438
C91   C     C_R   0.760722 0.135202 0.851217 0.540341
C92   C     C_R   0.239505 0.135041 0.148840 0.542167
C93   C     C_R   0.271494 0.672321 0.560583 0.017734
C94   C     C_R   0.748667 0.606618 0.430065 0.024802
C95   C     C_R   0.757284 0.119265 0.566198 0.023316
C96   C     C_R   0.245771 0.113629 0.432187 0.025978
C97   C     C_R   0.270330 0.047514 0.647071 0.549522
C98   C     C_R   0.729390 0.048879 0.352575 0.550344
C99   C     C_R   0.770864 0.545766 0.646359 0.555046
C100  C     C_R   0.229344 0.548812 0.352995 0.548088
C101  C     C_R   0.467887 0.823568 0.645725 0.536932
C102  C     C_R   0.529303 0.823337 0.352469 0.544459
C103  C     C_R   0.967158 0.323256 0.645280 0.547167
C104  C     C_R   0.029086 0.323406 0.352359 0.545124
C105  C     C_R   0.274573 0.690604 0.636984 0.572711
C106  C     C_R   0.740501 0.637410 0.356423 0.544595
C107  C     C_R   0.761272 0.141808 0.641520 0.547511
C108  C     C_R   0.239808 0.139578 0.357480 0.546221
C109  C     C_3   0.468178 0.926968 0.028635 -0.130713
C110  C     C_3   0.526893 0.931729 0.972382 -0.128430
C111  C     C_3   0.968181 0.426973 0.028636 -0.130969
C112  C     C_3   0.026897 0.431724 0.972383 -0.128128
C113  C     C_3   0.430321 0.824910 0.985821 -0.094109
C114  C     C_3   0.569501 0.833774 0.014046 -0.112145
C115  C     C_3   0.930320 0.324919 0.985822 -0.094337
C116  C     C_3   0.069500 0.333765 0.014047 -0.111946
C117  C     C_3   0.489817 0.829236 0.931011 0.058946
C118  C     C_3   0.510034 0.828740 0.068881 0.044278
C119  C     C_3   0.989815 0.329236 0.931012 0.059420
C120  C     C_3   0.010032 0.328739 0.068881 0.044207
Cr1   Cr    Cr6+3 0.229640 0.835880 0.747370 0.997029
Cr2   Cr    Cr6+3 0.770360 0.835880 0.252630 1.006039
Cr3   Cr    Cr6+3 0.729640 0.335880 0.747370 1.003193
Cr4   Cr    Cr6+3 0.270360 0.335880 0.252630 1.006605
Cr5   Cr    Cr6+3 0.387390 0.989720 0.750850 0.999656
Cr6   Cr    Cr6+3 0.612610 0.989720 0.249150 1.010163
Cr7   Cr    Cr6+3 0.887390 0.489720 0.750850 1.005946
Cr8   Cr    Cr6+3 0.112610 0.489720 0.249150 1.011118
Cr9   Cr    Cr6+3 0.385770 0.677220 0.749340 1.001704
Cr10  Cr    Cr6+3 0.614230 0.677220 0.250660 1.001315
Cr11  Cr    Cr6+3 0.885770 0.177220 0.749340 1.005317
Cr12  Cr    Cr6+3 0.114230 0.177220 0.250660 1.001739
H1    H     H_    0.372765 0.821576 0.972491 0.119622
H2    H     H_    0.627055 0.837300 0.027363 0.123147
H3    H     H_    0.872764 0.321591 0.972492 0.119737
H4    H     H_    0.127054 0.337283 0.027364 0.123221
H5    H     H_    0.476496 0.026914 0.559817 0.121929
H6    H     H_    0.486759 0.025268 0.428963 0.113783
H7    H     H_    0.986687 0.526115 0.561302 0.118425
H8    H     H_    0.995452 0.526680 0.430518 0.117158
H9    H     H_    0.072426 0.109143 0.440730 0.175901
H10   H     H_    0.979308 0.031665 0.560632 0.130161
H11   H     H_    0.584188 0.620203 0.442746 0.179007
H12   H     H_    0.495022 0.534169 0.564835 0.132473
H13   H     H_    0.500993 0.527909 0.437779 0.124446
H14   H     H_    0.577984 0.627637 0.569789 0.144912
H15   H     H_    0.985517 0.028629 0.433704 0.122341
H16   H     H_    0.064924 0.116166 0.567085 0.142794
H17   H     H_    0.372424 0.580472 0.552522 0.139087
H18   H     H_    0.673344 0.458716 0.429252 0.124152
H19   H     H_    0.859664 0.031981 0.558094 0.125826
H20   H     H_    0.167842 0.969538 0.432400 0.125034
H21   H     H_    0.358229 0.535521 0.424580 0.117750
H22   H     H_    0.673731 0.440682 0.558807 0.144341
H23   H     H_    0.854240 0.020004 0.427007 0.117201
H24   H     H_    0.166812 0.956089 0.562286 0.137186
H25   H     H_    0.110276 0.576165 0.449135 0.164130
H26   H     H_    0.896806 0.658253 0.573163 0.164423
H27   H     H_    0.600073 0.088011 0.436684 0.174615
H28   H     H_    0.394455 0.174853 0.575739 0.159660
H29   H     H_    0.095040 0.741593 0.428652 0.130405
H30   H     H_    0.863594 0.817646 0.577422 0.125051
H31   H     H_    0.598739 0.258137 0.431139 0.124595
H32   H     H_    0.357088 0.331990 0.578907 0.137042
H33   H     H_    0.108288 0.784315 0.552151 0.123940
H34   H     H_    0.865665 0.824060 0.450162 0.139768
H35   H     H_    0.606079 0.266656 0.558041 0.133283
H36   H     H_    0.358794 0.337485 0.451863 0.143250
H37   H     H_    0.125459 0.620117 0.570633 0.159077
H38   H     H_    0.894126 0.661809 0.447327 0.134071
H39   H     H_    0.608562 0.096465 0.562064 0.139207
H40   H     H_    0.391656 0.177239 0.449415 0.133021
H41   H     H_    0.443539 0.006223 0.054687 0.112720
H42   H     H_    0.547250 0.015314 0.947447 0.108553
H43   H     H_    0.943547 0.506232 0.054687 0.112683
H44   H     H_    0.047258 0.515306 0.947448 0.108892
H45   H     H_    0.557727 0.652995 0.945739 0.131069
H46   H     H_    0.450332 0.644749 0.051984 0.143680
H47   H     H_    0.057717 0.152985 0.945741 0.131216
H48   H     H_    0.950323 0.144755 0.051986 0.143659
H49   H     H_    0.140970 0.641350 0.924486 0.136427
H50   H     H_    0.857491 0.654685 0.072996 0.133601
H51   H     H_    0.640967 0.141337 0.924481 0.136131
H52   H     H_    0.357490 0.154690 0.072994 0.133636
H53   H     H_    0.130907 0.628353 0.050965 0.165252
H54   H     H_    0.864894 0.645710 0.946638 0.145451
H55   H     H_    0.630903 0.128339 0.050961 0.165295
H56   H     H_    0.364893 0.145716 0.946637 0.145491
H57   H     H_    0.816981 0.858678 0.060176 0.151552
H58   H     H_    0.193863 0.849828 0.939488 0.158264
H59   H     H_    0.316983 0.358685 0.060177 0.151477
H60   H     H_    0.693866 0.349820 0.939492 0.158730
H61   H     H_    0.399164 0.450909 0.073464 0.151235
H62   H     H_    0.606324 0.429047 0.930646 0.145225
H63   H     H_    0.899161 0.950902 0.073461 0.151190
H64   H     H_    0.106321 0.929057 0.930644 0.145372
H65   H     H_    0.328987 0.370550 0.932246 0.131718
H66   H     H_    0.688611 0.358142 0.066995 0.153964
H67   H     H_    0.828983 0.870540 0.932244 0.130729
H68   H     H_    0.188610 0.858146 0.066992 0.154060
O1    O     O_R   0.214300 0.709080 0.827500 -0.531619
O2    O     O_R   0.785700 0.709080 0.172500 -0.533681
O3    O     O_R   0.714300 0.209080 0.827500 -0.535041
O4    O     O_R   0.285700 0.209080 0.172500 -0.533261
O5    O     O_R   0.445900 0.919370 0.676500 -0.510168
O6    O     O_R   0.554100 0.919370 0.323500 -0.510242
O7    O     O_R   0.945900 0.419370 0.676500 -0.508173
O8    O     O_R   0.054100 0.419370 0.323500 -0.508785
O9    O     O_R   0.456660 0.717710 0.669820 -0.529411
O10   O     O_R   0.543340 0.717710 0.330180 -0.524771
O11   O     O_R   0.956660 0.217710 0.669820 -0.521581
O12   O     O_R   0.043340 0.217710 0.330180 -0.525405
O13   O     O_R   0.320590 0.625770 0.672930 -0.511140
O14   O     O_R   0.679410 0.625770 0.327070 -0.513578
O15   O     O_R   0.820590 0.125770 0.672930 -0.511625
O16   O     O_R   0.179410 0.125770 0.327070 -0.512173
O17   O     O_3   0.334270 0.834280 0.749190 -0.268685
O18   O     O_3   0.665730 0.834280 0.250810 -0.246291
O19   O     O_3   0.834270 0.334280 0.749190 -0.248313
O20   O     O_3   0.165730 0.334280 0.250810 -0.246945
O21   O     O_R   0.236190 0.958390 0.823150 -0.505707
O22   O     O_R   0.763810 0.958390 0.176850 -0.506334
O23   O     O_R   0.736190 0.458390 0.823150 -0.506529
O24   O     O_R   0.263810 0.458390 0.176850 -0.506050
O25   O     O_R   0.332090 0.075280 0.831290 -0.526638
O26   O     O_R   0.667910 0.075280 0.168710 -0.524787
O27   O     O_R   0.832090 0.575280 0.831290 -0.528894
O28   O     O_R   0.167910 0.575280 0.168710 -0.524638
O29   O     O_R   0.446280 0.918040 0.826620 -0.504615
O30   O     O_R   0.553720 0.918040 0.173380 -0.502515
O31   O     O_R   0.946280 0.418040 0.826620 -0.506159
O32   O     O_R   0.053720 0.418040 0.173380 -0.502749
O33   O     O_R   0.457080 0.716270 0.831760 -0.517414
O34   O     O_R   0.542920 0.716270 0.168240 -0.526851
O35   O     O_R   0.957080 0.216270 0.831760 -0.518144
O36   O     O_R   0.042920 0.216270 0.168240 -0.527072
O37   O     O_R   0.320980 0.624440 0.823040 -0.494742
O38   O     O_R   0.679020 0.624440 0.176960 -0.501475
O39   O     O_R   0.820980 0.124440 0.823040 -0.499559
O40   O     O_R   0.179020 0.124440 0.176960 -0.501142
O41   O     O_R   0.213880 0.710510 0.665560 -0.522124
O42   O     O_R   0.786120 0.710510 0.334440 -0.519161
O43   O     O_R   0.713880 0.210510 0.665560 -0.520556
O44   O     O_R   0.286120 0.210510 0.334440 -0.519675
O45   O     O_R   0.235800 0.959720 0.673040 -0.525958
O46   O     O_R   0.764200 0.959720 0.326960 -0.505273
O47   O     O_R   0.735800 0.459720 0.673040 -0.511431
O48   O     O_R   0.264200 0.459720 0.326960 -0.505567
O49   O     O_R   0.331670 0.076720 0.669350 -0.524254
O50   O     O_R   0.668330 0.076720 0.330650 -0.527156
O51   O     O_R   0.831670 0.576720 0.669350 -0.525565
O52   O     O_R   0.168330 0.576720 0.330650 -0.523856
N1    N     N_3   0.426847 0.471476 0.941080 -0.634403
H69   H     H_    0.425724 0.484563 0.885912 0.259873
H70   H     H_    0.456939 0.392982 0.950401 0.227270
N2    N     N_3   0.583500 0.434249 0.065516 -0.640145
H71   H     H_    0.556847 0.508917 0.043465 0.252305
H72   H     H_    0.586649 0.448646 0.120582 0.253359
N3    N     N_3   0.926843 0.971467 0.941076 -0.634368
H73   H     H_    0.925719 0.984553 0.885908 0.259306
H74   H     H_    0.956935 0.892973 0.950397 0.227247
N4    N     N_3   0.083499 0.934253 0.065515 -0.640170
H75   H     H_    0.056846 0.008923 0.043467 0.252279
H76   H     H_    0.086649 0.948644 0.120582 0.253382

loop_
_geom_bond_atom_site_label_1
_geom_bond_atom_site_label_2
_ccdc_geom_bond_type
C89   O1    A    
C55   C56   A    
Cr4   O20   S    
C67   C83   S    
C88   H40   S    
C57   H13   S    
C5    C114  S    
C24   H52   S    
Cr1   O21   S    
C46   O30   A    
C5    C117  S    
C14   C18   A    
C83   C87   S    
C111  C112  S    
Cr12  O12   S    
C73   C93   A    
C32   H64   S    
C99   O47   A    
Cr3   O43   S    
C84   H28   S    
Cr7   O19   S    
C7    C8    S    
C48   C120  S    
C63   C79   A    
C53   C54   A    
C21   H49   S    
C2    O26   A    
C33   H65   S    
Cr8   O52   S    
C55   H7    S    
C17   C33   S    
C23   C39   A    
C12   C28   A    
C53   H5    S    
C46   O34   A    
C13   C29   S    
Cr6   O30   S    
C45   O33   A    
Cr6   O50   S    
C98   O46   A    
C63   C98   S    
C69   C93   A    
C28   H56   S    
C42   C53   A    
C97   O45   A    
C5    C6    S    
C56   H8    S    
C72   C96   A    
C109  H41   S    
C71   C95   A    
C76   H20   S    
C19   C39   A    
C45   C117  S    
C97   O49   A    
C22   C38   A    
C29   C33   S    
C2    O22   A    
C49   C57   S    
C41   C102  S    
C46   C118  S    
C89   O37   A    
C1    O21   A    
C39   C91   S    
Cr10  O18   S    
C9    C13   A    
C43   C104  S    
Cr9   O17   S    
C83   H27   S    
C52   C60   S    
C8    C115  S    
C93   C105  S    
Cr5   O5    S    
C11   C15   A    
C41   C49   A    
C92   O40   A    
C12   C16   A    
C75   H19   S    
C88   H36   S    
C86   H34   S    
C3    O23   A    
C76   C80   A    
C29   H59   S    
Cr4   O24   S    
N1    H69   S    
Cr12  O16   S    
C104  O8    A    
C30   H60   S    
Cr4   O44   S    
Cr8   O20   S    
N4    H75   S    
Cr7   O51   S    
C84   H32   S    
C109  C113  S    
Cr2   O46   S    
C6    C113  S    
C60   H10   S    
C10   C26   A    
Cr1   O45   S    
C96   C108  S    
Cr2   O22   S    
C59   C60   S    
Cr8   O32   S    
C113  H1    S    
C6    H46   S    
Cr7   O27   S    
C4    O24   A    
C64   C80   A    
C107  O43   A    
Cr6   O26   S    
C1    C12   S    
C45   O29   A    
C106  O42   A    
Cr5   O25   S    
C2    C11   S    
C101  O5    A    
C110  C117  S    
C105  O41   A    
Cr9   O13   S    
C72   C88   S    
C44   C103  S    
C109  C118  S    
C80   H24   S    
C47   O35   A    
C110  H42   S    
C111  C115  S    
C106  O14   A    
C63   C67   A    
C81   H25   S    
C90   O38   A    
C75   C95   A    
C51   C52   A    
C68   C84   S    
C35   H67   S    
C7    C119  S    
Cr11  O19   S    
Cr7   O7    S    
Cr2   O42   S    
C21   C25   A    
C10   C14   A    
C3    O27   A    
Cr11  O39   S    
N1    H70   S    
C30   C34   S    
C102  O10   A    
Cr5   O29   S    
C27   H55   S    
C82   H30   S    
C101  O9    A    
C14   C30   S    
Cr3   O23   S    
Cr10  O34   S    
C85   H37   S    
C116  C120  S    
C34   N2    S    
N2    H72   S    
C68   C72   A    
Cr12  O20   S    
C36   N4    S    
C7    C116  S    
Cr4   O48   S    
C15   C19   A    
C79   H23   S    
Cr11  O15   S    
C23   H51   S    
C100  O48   A    
C35   N3    S    
C66   C82   S    
C18   C34   S    
C16   C32   S    
C8    H48   S    
C65   C81   S    
C114  C118  S    
C20   C40   A    
C11   C27   A    
C16   C20   A    
C87   H39   S    
N2    H71   S    
C108  O44   A    
Cr7   O31   S    
C114  H2    S    
C50   C58   S    
C32   H58   S    
C82   H26   S    
C108  O16   A    
C40   C92   S    
Cr12  O36   S    
C5    H45   S    
C25   H53   S    
C48   O36   A    
C87   H35   S    
C95   C107  S    
C83   H31   S    
C42   C50   A    
C102  O6    A    
C71   C87   S    
C47   O31   A    
C99   O51   A    
C64   C97   S    
C112  H44   S    
Cr6   O18   S    
Cr4   O4    S    
C54   H6    S    
C23   C27   A    
Cr11  O11   S    
C77   H21   S    
C111  H43   S    
Cr10  O10   S    
C61   C100  S    
C51   C59   S    
C17   C37   A    
C103  O11   A    
C48   O32   A    
C70   C86   S    
C42   C101  S    
C64   C68   A    
C110  C114  S    
C112  C116  S    
C69   C85   S    
C8    C120  S    
C98   O50   A    
Cr1   O41   S    
C113  C117  S    
C1    O25   A    
C65   C69   A    
C61   C77   A    
Cr3   O19   S    
C94   C106  S    
C73   C77   A    
Cr2   O18   S    
C75   C79   A    
C73   H17   S    
C86   H38   S    
C81   H29   S    
C62   C78   A    
C78   H22   S    
C24   C28   A    
C103  O7    A    
C100  O52   A    
C105  O13   A    
C92   O4    A    
C44   C52   A    
C9    C25   A    
C112  C119  S    
N4    H76   S    
C32   C36   S    
C15   C31   S    
C36   H68   S    
C116  H4    S    
C37   C89   S    
C70   C94   A    
Cr1   O17   S    
C60   H16   S    
C31   H57   S    
C115  C119  S    
C13   C17   A    
C58   H14   S    
C7    H47   S    
C85   H33   S    
Cr2   O2    S    
C33   N1    S    
C18   C38   A    
C74   H18   S    
Cr1   O1    S    
Cr11  O35   S    
C22   H50   S    
N3    H74   S    
C82   C86   S    
C109  C110  S    
C76   C96   A    
C31   H63   S    
C26   H54   S    
C44   C55   A    
C43   C51   A    
C57   C58   S    
C30   H62   S    
C84   C88   S    
C115  H3    S    
Cr5   O49   S    
Cr6   O6    S    
C29   H61   S    
Cr9   O33   S    
C31   C35   S    
C47   C119  S    
C24   C40   A    
C6    C118  S    
Cr10  O14   S    
Cr10  O38   S    
C67   C71   A    
C4    O28   A    
C61   C65   A    
Cr12  O40   S    
Cr8   O28   S    
C91   O3    A    
C41   C54   A    
Cr3   O47   S    
Cr9   O37   S    
C62   C66   A    
C38   C90   S    
C62   C99   S    
C20   C36   S    
C58   H12   S    
C43   C56   A    
C21   C37   A    
C66   C70   A    
C59   H9    S    
C34   H66   S    
C49   C50   A    
C22   C26   A    
C91   O39   A    
C74   C94   A    
C3    C10   S    
C104  O12   A    
C111  C120  S    
C19   C35   S    
Cr8   O8    S    
Cr3   O3    S    
C4    C9    S    
Cr9   O9    S    
C107  O15   A    
C81   C85   S    
N3    H73   S    
C57   H11   S    
C59   H15   S    
C74   C78   A    
C90   O2    A    
Cr5   O17   S    
