data_mof_unit_122.cif
_audit_creation_date              2012-12-10T17:01:12-0500
_audit_creation_method            fapswitch 2.2
_symmetry_space_group_name_H-M    P1
_symmetry_Int_Tables_number       1
_space_group_crystal_system       triclinic
_cell_length_a                    15.249462
_cell_length_b                    15.778152
_cell_length_c                    10.016177
_cell_angle_alpha                 89.880922
_cell_angle_beta                  59.932201
_cell_angle_gamma                 90.045957
_cell_volume                      2085.66352701

loop_
_atom_site_label
_atom_site_type_symbol
_atom_type_description
_atom_site_fract_x
_atom_site_fract_y
_atom_site_fract_z
_atom_type_partial_charge
C1    C     C_R   0.373775 0.119417 0.560836 0.846230
C2    C     C_R   0.629493 0.883357 0.438106 0.860645
C3    C     C_R   0.626148 0.119601 0.439028 0.846404
C4    C     C_R   0.369485 0.883940 0.562322 0.852826
C5    C     C_R   0.873444 0.619053 0.560906 0.852140
C6    C     C_R   0.130572 0.384091 0.437855 0.854193
C7    C     C_R   0.126216 0.619503 0.438991 0.849365
C8    C     C_R   0.869223 0.384142 0.562369 0.856453
C9    C     C_2   0.513720 0.003858 0.916431 0.159635
C10   C     C_2   0.486318 0.003925 0.083513 0.159463
C11   C     C_2   0.013035 0.505238 0.917193 0.171392
C12   C     C_2   0.985249 0.507336 0.085064 0.123667
C13   C     C_2   0.287366 0.824314 0.597863 -0.363000
C14   C     C_2   0.697370 0.189005 0.404079 -0.353298
C15   C     C_2   0.708608 0.821402 0.402832 -0.364656
C16   C     C_2   0.302159 0.188244 0.595802 -0.353323
C17   C     C_2   0.786497 0.325080 0.597780 -0.367799
C18   C     C_2   0.197407 0.688836 0.404102 -0.355681
C19   C     C_2   0.213025 0.325045 0.402596 -0.364210
C20   C     C_2   0.802279 0.687950 0.595081 -0.341791
C21   C     C_2   0.271174 0.797925 0.485100 -0.155193
C22   C     C_2   0.688972 0.239950 0.515848 -0.150018
C23   C     C_2   0.725293 0.794242 0.514427 -0.161102
C24   C     C_2   0.310237 0.239434 0.484259 -0.149812
C25   C     C_2   0.770042 0.299242 0.484872 -0.150641
C26   C     C_2   0.190327 0.738381 0.516605 -0.150083
C27   C     C_2   0.228844 0.298224 0.515657 -0.154400
C28   C     C_2   0.803754 0.732405 0.480904 -0.165993
Cu1   Cu    Cu3+1 0.522650 0.000000 0.349410 0.913697
Cu2   Cu    Cu3+1 0.477350 1.000000 0.650590 0.913338
Cu3   Cu    Cu3+1 0.022650 0.500000 0.349410 0.907749
Cu4   Cu    Cu3+1 0.977350 0.500000 0.650590 0.912211
H1    H     H_    0.630110 0.985350 0.043343 0.193322
H2    H     H_    0.369728 0.985660 0.956873 0.193348
H3    H     H_    0.125314 0.473987 0.046050 0.195972
H4    H     H_    0.883218 0.461436 0.944538 0.192555
H5    H     H_    0.624444 0.235413 0.631627 0.169988
H6    H     H_    0.321054 0.817077 0.365941 0.178697
H7    H     H_    0.374813 0.235562 0.368484 0.169955
H8    H     H_    0.678557 0.815344 0.633009 0.180519
H9    H     H_    0.127092 0.732427 0.633259 0.174018
H10   H     H_    0.820060 0.318453 0.365773 0.181716
H11   H     H_    0.860950 0.721507 0.361606 0.171269
H12   H     H_    0.178195 0.316335 0.634944 0.177306
H13   H     H_    0.759488 0.196598 0.286329 0.146284
H14   H     H_    0.239061 0.803051 0.716111 0.152005
H15   H     H_    0.240012 0.195241 0.713586 0.146471
H16   H     H_    0.754197 0.798605 0.285182 0.149663
H17   H     H_    0.258319 0.697579 0.285774 0.147694
H18   H     H_    0.738025 0.303762 0.715941 0.151472
H19   H     H_    0.746715 0.701267 0.714769 0.147551
H20   H     H_    0.261979 0.304647 0.284223 0.151630
N1    N     N_2   0.443290 0.000000 0.876860 -0.318160
N2    N     N_2   0.556710 0.000000 0.123140 -0.318147
N3    N     N_2   0.943290 0.500000 0.876860 -0.316456
N4    N     N_2   0.056710 0.500000 0.123140 -0.323990
O1    O     O_R   0.422430 0.089640 0.419570 -0.584342
O2    O     O_R   0.577570 0.910360 0.580430 -0.598461
O3    O     O_R   0.577570 0.089640 0.580430 -0.583883
O4    O     O_R   0.422430 0.910360 0.419570 -0.597352
O5    O     O_R   0.922430 0.589640 0.419570 -0.603818
O6    O     O_R   0.077570 0.410360 0.580430 -0.600409
O7    O     O_R   0.077570 0.589640 0.580430 -0.583257
O8    O     O_R   0.922430 0.410360 0.419570 -0.592324
O9    O     O_R   0.384170 0.089650 0.673910 -0.573412
O10   O     O_R   0.615830 0.910350 0.326090 -0.571701
O11   O     O_R   0.615830 0.089650 0.326090 -0.573171
O12   O     O_R   0.384170 0.910350 0.673910 -0.571395
O13   O     O_R   0.884170 0.589650 0.673910 -0.569055
O14   O     O_R   0.115830 0.410350 0.326090 -0.572283
O15   O     O_R   0.115830 0.589650 0.326090 -0.570094
O16   O     O_R   0.884170 0.410350 0.673910 -0.577215
C29   C     C_3   0.373426 0.008587 0.203198 -0.332981
C30   C     C_3   0.325025 0.093186 0.197754 -0.382430
C31   C     C_3   0.213638 0.096716 0.323756 -0.829794
H21   H     H_    0.170906 0.044009 0.309042 0.247241
H22   H     H_    0.206072 0.091753 0.439671 0.262854
H23   H     H_    0.179929 0.157527 0.316083 0.249555
H24   H     H_    0.367269 0.145922 0.211530 0.227669
H25   H     H_    0.329022 0.103989 0.085664 0.214376
H26   H     H_    0.333210 0.954551 0.186634 0.136558
H27   H     H_    0.356593 0.999144 0.320802 0.262186
C32   C     C_3   0.626661 0.008307 0.796667 -0.332894
C33   C     C_3   0.675791 0.092790 0.801038 -0.382440
C34   C     C_3   0.786975 0.096383 0.674141 -0.830149
H28   H     H_    0.829646 0.043495 0.688413 0.247168
H29   H     H_    0.793908 0.091784 0.558632 0.262737
H30   H     H_    0.821234 0.157067 0.681156 0.249310
H31   H     H_    0.633621 0.145666 0.787584 0.227691
H32   H     H_    0.672472 0.103331 0.912637 0.214086
H33   H     H_    0.666464 0.954173 0.813832 0.136159
H34   H     H_    0.643367 0.998893 0.679204 0.262450
C35   C     C_3   0.879423 0.538362 0.207434 -0.317112
C36   C     C_3   0.784368 0.531488 0.191433 -0.488112
C37   C     C_3   0.691097 0.565995 0.334830 -0.825152
H35   H     H_    0.677483 0.530564 0.439537 0.254612
H36   H     H_    0.701315 0.634236 0.349962 0.266448
H37   H     H_    0.623367 0.558945 0.321633 0.247433
H38   H     H_    0.793364 0.569925 0.092300 0.248114
H39   H     H_    0.768228 0.463869 0.180961 0.222708
H40   H     H_    0.857069 0.502168 0.313313 0.261209
H41   H     H_    0.888581 0.606745 0.220339 0.211509
C38   C     C_3   0.126171 0.509255 0.797640 -0.332294
C39   C     C_3   0.177146 0.591947 0.805127 -0.377876
C40   C     C_3   0.287635 0.595834 0.675693 -0.833199
H42   H     H_    0.330553 0.541627 0.685433 0.247778
H43   H     H_    0.292764 0.593699 0.561215 0.263815
H44   H     H_    0.322997 0.655524 0.684304 0.249940
H45   H     H_    0.134949 0.646740 0.797371 0.224257
H46   H     H_    0.176274 0.598286 0.915807 0.220295
H47   H     H_    0.165052 0.453858 0.813009 0.133673
H48   H     H_    0.142944 0.500820 0.679898 0.261684

loop_
_geom_bond_atom_site_label_1
_geom_bond_atom_site_label_2
_ccdc_geom_bond_type
C21   C26   S    
C35   C36   S    
C29   C30   S    
Cu3   O5    S    
C37   H35   S    
C18   C26   D    
C24   C27   S    
C37   H37   S    
Cu4   O16   S    
C5    C20   S    
C34   H28   S    
C6    C19   S    
C40   H43   S    
C20   H19   S    
C7    O15   A    
C13   H14   S    
C10   C29   S    
Cu1   N2    S    
C23   H8    S    
C24   H7    S    
C38   H47   S    
C4    C13   S    
C5    O13   A    
Cu1   O11   S    
C19   H20   S    
Cu3   O14   S    
C21   H6    S    
Cu3   Cu4   S    
C22   C25   S    
C1    O9    A    
Cu3   N4    S    
C19   C27   D    
C9    C10   S    
Cu4   N3    S    
C15   C23   D    
C16   C24   D    
C30   H25   S    
C33   H32   S    
C15   H16   S    
C27   H12   S    
C16   H15   S    
C29   H26   S    
C39   C40   S    
C40   H44   S    
C14   H13   S    
C34   H29   S    
Cu2   N1    S    
C8    O16   A    
C30   C31   S    
C5    O5    A    
C33   C34   S    
C35   H40   S    
C4    O12   A    
C20   C28   D    
C22   H5    S    
C38   H48   S    
C17   H18   S    
C31   H21   S    
Cu1   Cu2   S    
C32   H34   S    
C1    O1    A    
C32   C33   S    
Cu1   O4    S    
C36   H39   S    
C7    C18   S    
Cu2   O3    S    
C4    O4    A    
C37   H36   S    
C13   C21   D    
C1    C16   S    
C23   C28   S    
C2    C15   S    
C31   H22   S    
C7    O7    A    
C12   N4    D    
C3    C14   S    
C8    O8    A    
C9    C32   S    
C30   H24   S    
C12   C35   S    
C9    N1    D    
C33   H31   S    
C29   H27   S    
C11   N3    D    
C34   H30   S    
H1    N2    S    
C6    O14   A    
H3    N4    S    
C35   H41   S    
Cu3   O8    S    
C3    O11   A    
Cu4   O7    S    
Cu1   O1    S    
C2    O10   A    
C25   H10   S    
C11   C12   S    
C2    O2    A    
Cu4   O13   S    
C32   H33   S    
C40   H42   S    
C28   H11   S    
C8    C17   S    
C17   C25   D    
C14   C22   D    
Cu4   O6    S    
H4    N3    S    
C39   H46   S    
C6    O6    A    
C39   H45   S    
C36   H38   S    
Cu2   O2    S    
Cu3   O15   S    
C36   C37   S    
C10   N2    D    
C31   H23   S    
Cu2   O9    S    
Cu1   O10   S    
C26   H9    S    
H2    N1    S    
C38   C39   S    
C11   C38   S    
Cu2   O12   S    
C18   H17   S    
C3    O3    A    
