data_mof_unit_3201.cif
_audit_creation_date              2012-12-11T14:41:04-0500
_audit_creation_method            fapswitch 2.2
_symmetry_space_group_name_H-M    P1
_symmetry_Int_Tables_number       1
_space_group_crystal_system       triclinic
_cell_length_a                    24.569017
_cell_length_b                    17.424199
_cell_length_c                    15.548066
_cell_angle_alpha                 89.999929
_cell_angle_beta                  129.297995
_cell_angle_gamma                 89.999622
_cell_volume                      5150.87143296

loop_
_atom_site_label
_atom_site_type_symbol
_atom_type_description
_atom_site_fract_x
_atom_site_fract_y
_atom_site_fract_z
_atom_type_partial_charge
C1    C     C_R   0.346749 0.364191 0.229022 -0.119965
C2    C     C_R   0.683971 0.618097 0.501390 0.005585
C3    C     C_1   0.831466 0.335763 0.400437 0.041889
C4    C     C_R   0.183973 0.881911 0.501389 0.005581
C5    C     C_R   0.183971 0.118098 0.501391 0.005585
C6    C     C_R   0.356916 0.319614 0.502500 0.010471
C7    C     C_R   0.356918 0.680390 0.502495 0.010460
C8    C     C_R   0.856913 0.819617 0.502499 0.010469
C9    C     C_R   0.856917 0.180386 0.502501 0.010471
C10   C     C_3   0.358283 0.213411 0.612770 -0.396505
C11   C     C_3   0.358290 0.786616 0.612743 -0.396488
C12   C     C_3   0.858281 0.713412 0.612768 -0.396505
C13   C     C_R   0.346747 0.635809 0.229020 -0.119964
C14   C     C_3   0.858281 0.286577 0.612781 -0.396511
C15   C     C_3   0.809920 0.657225 0.612031 -0.412015
C16   C     C_3   0.809918 0.342758 0.612048 -0.412019
C17   C     C_3   0.309920 0.157228 0.612036 -0.412011
C18   C     C_3   0.309930 0.842814 0.611997 -0.412004
C19   C     C_3   0.256572 0.305309 0.494234 -0.438451
C20   C     C_3   0.256591 0.694697 0.494273 -0.438460
C21   C     C_3   0.756570 0.805309 0.494234 -0.438458
C22   C     C_3   0.756564 0.194693 0.494212 -0.438458
C23   C     C_3   0.279277 0.204628 0.402159 -0.071524
C24   C     C_R   0.846749 0.864190 0.229024 -0.119964
C25   C     C_3   0.279256 0.795359 0.402127 -0.071509
C26   C     C_3   0.779274 0.704631 0.402156 -0.071523
C27   C     C_3   0.779288 0.295383 0.402173 -0.071528
C28   C     C_3   0.314629 0.260871 0.503215 0.329743
C29   C     C_3   0.314630 0.739135 0.503208 0.329738
C30   C     C_3   0.814627 0.760873 0.503213 0.329747
C31   C     C_3   0.814630 0.239129 0.503216 0.329750
C32   C     C_3   0.733051 0.666126 0.502358 0.381073
C33   C     C_3   0.733053 0.333874 0.502361 0.381074
C34   C     C_3   0.233052 0.166126 0.502359 0.381070
C35   C     C_R   0.846750 0.135812 0.229026 -0.119966
C36   C     C_3   0.233054 0.833882 0.502355 0.381062
C37   C     C_3   0.708099 0.749647 0.491845 -0.388608
C38   C     C_3   0.708090 0.250355 0.491816 -0.388617
C39   C     C_3   0.208098 0.249647 0.491839 -0.388614
C40   C     C_3   0.208128 0.750358 0.491907 -0.388600
C41   C     C_R   0.667219 0.391659 0.798719 -0.121052
C42   C     C_R   0.667217 0.608342 0.798715 -0.121053
C43   C     C_R   0.167212 0.891638 0.798703 -0.121067
C44   C     C_R   0.167218 0.108341 0.798716 -0.121055
C45   C     C_3   0.732311 0.646987 0.404065 -0.457945
C46   C     C_R   0.647298 0.372180 0.861627 0.153376
C47   C     C_3   0.732329 0.353029 0.404087 -0.457942
C48   C     C_3   0.232316 0.146983 0.404070 -0.457943
C49   C     C_3   0.232281 0.852991 0.404023 -0.457952
C50   C     C_2   0.693607 0.343887 0.975819 -0.223756
C51   C     C_2   0.693605 0.656116 0.975812 -0.223756
C52   C     C_2   0.193583 0.843818 0.975766 -0.223759
C53   C     C_2   0.193605 0.156115 0.975813 -0.223753
C54   C     C_2   0.763307 0.343754 0.034809 -0.107105
C55   C     C_2   0.763305 0.656252 0.034801 -0.107107
C56   C     C_2   0.263289 0.843745 0.034804 -0.107134
C57   C     C_R   0.647296 0.627822 0.861621 0.153379
C58   C     C_2   0.263306 0.156252 0.034802 -0.107117
C59   C     C_2   0.354002 0.748492 0.133876 -0.226236
C60   C     C_2   0.354011 0.251510 0.133885 -0.226244
C61   C     C_2   0.854012 0.248495 0.133890 -0.226242
C62   C     C_2   0.854011 0.751509 0.133887 -0.226243
C63   C     C_2   0.305164 0.789811 0.125903 -0.095051
C64   C     C_2   0.305169 0.210188 0.125901 -0.095040
C65   C     C_2   0.805174 0.289821 0.125913 -0.095049
C66   C     C_2   0.805169 0.710187 0.125902 -0.095043
C67   C     C_R   0.615633 0.396859 0.408494 -0.142353
C68   C     C_R   0.147284 0.872143 0.861595 0.153376
C69   C     C_R   0.615632 0.603141 0.408493 -0.142351
C70   C     C_R   0.115633 0.896865 0.408493 -0.142355
C71   C     C_R   0.115632 0.103142 0.408494 -0.142352
C72   C     C_R   0.410693 0.360641 0.594564 -0.134787
C73   C     C_R   0.410694 0.639362 0.594561 -0.134789
C74   C     C_R   0.910690 0.860643 0.594563 -0.134784
C75   C     C_R   0.910694 0.139359 0.594564 -0.134786
C76   C     C_R   0.689358 0.397550 0.593144 -0.139755
C77   C     C_R   0.689358 0.602450 0.593143 -0.139756
C78   C     C_R   0.189359 0.897551 0.593142 -0.139748
C79   C     C_R   0.147297 0.127821 0.861622 0.153377
C80   C     C_R   0.189358 0.102451 0.593144 -0.139752
C81   C     C_R   0.332644 0.361876 0.409113 -0.139926
C82   C     C_R   0.332644 0.638125 0.409111 -0.139920
C83   C     C_R   0.832642 0.861877 0.409112 -0.139928
C84   C     C_R   0.832644 0.138126 0.409113 -0.139928
C85   C     C_R   0.577378 0.392496 0.801715 -0.156511
C86   C     C_R   0.577377 0.607505 0.801712 -0.156515
C87   C     C_R   0.077370 0.892475 0.801698 -0.156503
C88   C     C_R   0.077378 0.107504 0.801713 -0.156513
C89   C     C_R   0.440800 0.361071 0.235898 -0.153455
C90   C     C_R   0.683971 0.381903 0.501392 0.005587
C91   C     C_R   0.440797 0.638930 0.235893 -0.153450
C92   C     C_R   0.940801 0.861070 0.235899 -0.153457
C93   C     C_R   0.940801 0.138931 0.235901 -0.153453
C94   C     C_R   0.379814 0.322652 0.197484 0.152722
C95   C     C_R   0.379810 0.677349 0.197477 0.152710
C96   C     C_R   0.879815 0.822651 0.197486 0.152722
C97   C     C_R   0.879816 0.177351 0.197489 0.152719
C98   C     C_1   0.331446 0.164245 0.400404 0.041883
C99   C     C_1   0.331409 0.835754 0.400345 0.041884
C100  C     C_1   0.831444 0.664247 0.400403 0.041887
H1    H     H_    0.294373 0.355017 0.200704 0.082054
H2    H     H_    0.828440 0.402720 0.620780 0.154192
H3    H     H_    0.328435 0.097266 0.620746 0.154193
H4    H     H_    0.328428 0.902775 0.620641 0.154208
H5    H     H_    0.313717 0.170348 0.685599 0.149142
H6    H     H_    0.313752 0.829735 0.685593 0.149126
H7    H     H_    0.813719 0.670338 0.685599 0.149140
H8    H     H_    0.813706 0.329628 0.685601 0.149147
H9    H     H_    0.280597 0.345042 0.566138 0.168539
H10   H     H_    0.280631 0.654967 0.566185 0.168532
H11   H     H_    0.780594 0.845045 0.566136 0.168538
H12   H     H_    0.294372 0.644981 0.200703 0.082050
H13   H     H_    0.780581 0.154951 0.566107 0.168543
H14   H     H_    0.707528 0.763550 0.561226 0.163683
H15   H     H_    0.707503 0.236442 0.561178 0.163687
H16   H     H_    0.207522 0.263552 0.561214 0.163684
H17   H     H_    0.207591 0.736473 0.561326 0.163680
H18   H     H_    0.744617 0.737270 0.323058 0.086061
H19   H     H_    0.744630 0.262752 0.323068 0.086066
H20   H     H_    0.244618 0.237267 0.323061 0.086063
H21   H     H_    0.244602 0.762706 0.323042 0.086051
H22   H     H_    0.749845 0.586554 0.411963 0.160494
H23   H     H_    0.794373 0.855015 0.200706 0.082054
H24   H     H_    0.749875 0.413459 0.412015 0.160497
H25   H     H_    0.249853 0.086551 0.411977 0.160497
H26   H     H_    0.249784 0.913430 0.411859 0.160489
H27   H     H_    0.678288 0.651337 0.323254 0.136333
H28   H     H_    0.678308 0.348697 0.323268 0.136332
H29   H     H_    0.178293 0.151328 0.323257 0.136332
H30   H     H_    0.178254 0.848604 0.323231 0.136338
H31   H     H_    0.224735 0.340928 0.417387 0.155854
H32   H     H_    0.224743 0.659075 0.417431 0.155862
H33   H     H_    0.724730 0.840927 0.417384 0.155855
H34   H     H_    0.794374 0.144988 0.200708 0.082058
H35   H     H_    0.724728 0.159082 0.417357 0.155852
H36   H     H_    0.719526 0.391522 0.823991 0.078497
H37   H     H_    0.719523 0.608480 0.823985 0.078499
H38   H     H_    0.219519 0.891488 0.823976 0.078515
H39   H     H_    0.219523 0.108480 0.823985 0.078498
H40   H     H_    0.653468 0.757301 0.412683 0.156753
H41   H     H_    0.653463 0.242712 0.412640 0.156750
H42   H     H_    0.153469 0.257300 0.412672 0.156753
H43   H     H_    0.153488 0.742684 0.412776 0.156762
H44   H     H_    0.287708 0.774538 0.172745 0.127465
H45   H     H_    0.401279 0.181615 0.622906 0.164843
H46   H     H_    0.287709 0.225455 0.172739 0.127452
H47   H     H_    0.787718 0.274557 0.172758 0.127452
H48   H     H_    0.787708 0.725455 0.172740 0.127452
H49   H     H_    0.787731 0.371566 0.004442 0.122974
H50   H     H_    0.787731 0.628440 0.004438 0.122974
H51   H     H_    0.287719 0.871616 0.004485 0.122993
H52   H     H_    0.287731 0.128440 0.004438 0.122972
H53   H     H_    0.371100 0.763870 0.086514 0.126267
H54   H     H_    0.371117 0.236133 0.086533 0.126253
H55   H     H_    0.871114 0.263867 0.086530 0.126254
H56   H     H_    0.401281 0.818402 0.622856 0.164839
H57   H     H_    0.871118 0.736132 0.086535 0.126253
H58   H     H_    0.669917 0.315365 0.007170 0.125959
H59   H     H_    0.669914 0.684639 0.007160 0.125958
H60   H     H_    0.169888 0.815235 0.007067 0.125966
H61   H     H_    0.169914 0.184637 0.007162 0.125959
H62   H     H_    0.593618 0.395438 0.322469 0.084525
H63   H     H_    0.593617 0.604563 0.322468 0.084527
H64   H     H_    0.093617 0.895451 0.322467 0.084534
H65   H     H_    0.093617 0.104564 0.322468 0.084526
H66   H     H_    0.438059 0.348765 0.681169 0.089690
H67   H     H_    0.901279 0.681619 0.622905 0.164842
H68   H     H_    0.438059 0.651242 0.681165 0.089691
H69   H     H_    0.938053 0.848768 0.681167 0.089683
H70   H     H_    0.938062 0.151236 0.681169 0.089691
H71   H     H_    0.735755 0.397307 0.679611 0.083111
H72   H     H_    0.735756 0.602696 0.679609 0.083108
H73   H     H_    0.235756 0.897302 0.679608 0.083103
H74   H     H_    0.235756 0.102696 0.679609 0.083109
H75   H     H_    0.284430 0.353476 0.325968 0.076333
H76   H     H_    0.284429 0.646520 0.325966 0.076332
H77   H     H_    0.784428 0.853480 0.325967 0.076334
H78   H     H_    0.901282 0.318372 0.622934 0.164843
H79   H     H_    0.784430 0.146527 0.325969 0.076332
H80   H     H_    0.549008 0.394637 0.833555 0.088903
H81   H     H_    0.549007 0.605364 0.833552 0.088904
H82   H     H_    0.049000 0.894607 0.833538 0.088906
H83   H     H_    0.049008 0.105362 0.833554 0.088905
H84   H     H_    0.477605 0.345657 0.222695 0.094652
H85   H     H_    0.477601 0.654344 0.222689 0.094651
H86   H     H_    0.977606 0.845656 0.222697 0.094654
H87   H     H_    0.977606 0.154346 0.222699 0.094653
H88   H     H_    0.383032 0.251347 0.686329 0.146806
H89   H     H_    0.828435 0.597263 0.620734 0.154198
H90   H     H_    0.383045 0.748693 0.686317 0.146810
H91   H     H_    0.883028 0.751347 0.686326 0.146807
H92   H     H_    0.883022 0.248632 0.686331 0.146807
N1    N     N_R   0.389430 0.421450 0.294590 -0.044320
N2    N     N_R   0.581780 0.577610 0.443390 -0.031753
N3    N     N_R   0.081780 0.922390 0.443390 -0.031754
N4    N     N_R   0.081780 0.077610 0.443390 -0.031753
N5    N     N_R   0.419850 0.423100 0.556610 -0.037685
N6    N     N_R   0.419850 0.576900 0.556610 -0.037684
N7    N     N_R   0.919850 0.923100 0.556610 -0.037684
N8    N     N_R   0.919850 0.076900 0.556610 -0.037685
N9    N     N_R   0.627410 0.423100 0.556610 -0.032509
N10   N     N_R   0.627410 0.576900 0.556610 -0.032509
N11   N     N_R   0.127410 0.923100 0.556610 -0.032508
N12   N     N_R   0.389430 0.578550 0.294590 -0.044319
N13   N     N_R   0.127410 0.076900 0.556610 -0.032508
N14   N     N_R   0.374220 0.422390 0.443390 -0.036028
N15   N     N_R   0.374220 0.577610 0.443390 -0.036029
N16   N     N_R   0.874220 0.922390 0.443390 -0.036027
N17   N     N_R   0.874220 0.077610 0.443390 -0.036027
N18   N     N_R   0.555000 0.424040 0.705410 -0.038546
N19   N     N_R   0.555000 0.575960 0.705410 -0.038546
N20   N     N_R   0.055000 0.924040 0.705410 -0.038546
N21   N     N_R   0.055000 0.075960 0.705410 -0.038547
N22   N     N_R   0.446630 0.421450 0.294590 -0.043154
N23   N     N_R   0.889430 0.921450 0.294590 -0.044320
N24   N     N_R   0.446630 0.578550 0.294590 -0.043154
N25   N     N_R   0.946630 0.921450 0.294590 -0.043155
N26   N     N_R   0.946630 0.078550 0.294590 -0.043155
N27   N     N_1   0.372308 0.132680 0.398973 -0.081269
N28   N     N_1   0.372258 0.867329 0.398894 -0.081272
N29   N     N_1   0.872306 0.632681 0.398974 -0.081268
N30   N     N_1   0.872335 0.367327 0.399022 -0.081269
N31   N     N_R   0.889430 0.078550 0.294590 -0.044320
N32   N     N_R   0.612200 0.424040 0.705410 -0.043575
N33   N     N_R   0.612200 0.575960 0.705410 -0.043576
N34   N     N_R   0.112200 0.924040 0.705410 -0.043576
N35   N     N_R   0.112200 0.075960 0.705410 -0.043576
N36   N     N_R   0.581780 0.422390 0.443390 -0.031753
Ni1   Ni    Ni4+2 0.382890 0.500000 0.370170 0.209422
Ni2   Ni    Ni4+2 0.882890 1.000000 0.370170 0.209424
Ni3   Ni    Ni4+2 0.618740 0.500000 0.629830 0.205762
Ni4   Ni    Ni4+2 0.118740 0.000000 0.629830 0.205763
Ni5   Ni    Ni4+2 0.514090 0.500000 0.370170 0.209892
Ni6   Ni    Ni4+2 0.014090 1.000000 0.370170 0.209891
Ni7   Ni    Ni4+2 0.487550 0.500000 0.629830 0.206673
Ni8   Ni    Ni4+2 0.987550 0.000000 0.629830 0.206675

loop_
_geom_bond_atom_site_label_1
_geom_bond_atom_site_label_2
_ccdc_geom_bond_type
C52   H60   S    
N9    N36   A    
C4    C36   S    
C11   C18   S    
C7    C29   S    
C93   C97   A    
C76   H71   S    
N23   Ni2   S    
C87   N20   A    
N1    Ni1   S    
C14   C31   S    
C53   H61   S    
C77   N10   A    
C12   H67   S    
C4    C70   A    
N5    Ni7   S    
C47   H28   S    
C7    C73   A    
C54   C65   S    
C75   N8    A    
C50   H58   S    
C6    C72   A    
C49   H26   S    
N33   Ni3   S    
C13   C95   A    
C81   H75   S    
N16   Ni2   S    
C74   N7    A    
C53   C79   S    
C18   C36   S    
C13   H12   S    
C35   N31   A    
N6    Ni7   S    
N23   N25   A    
N11   Ni4   S    
C20   C40   S    
C24   N23   A    
C92   H86   S    
C19   H31   S    
N3    N11   A    
C10   C17   S    
C10   C28   S    
N20   N34   A    
C22   C38   S    
C89   C94   A    
C57   C86   A    
C42   C57   A    
C43   H38   S    
C2    C32   S    
C32   C45   S    
C15   H7    S    
N12   Ni1   S    
C79   C88   A    
C74   H69   S    
C32   C37   S    
C26   C45   S    
N20   Ni8   S    
C72   N5    A    
C25   C99   S    
C22   H13   S    
C6    C28   S    
C70   N3    A    
C37   H40   S    
C78   H73   S    
C10   H88   S    
C41   C46   A    
C39   H42   S    
N3    Ni6   S    
C51   C57   S    
C65   H47   S    
C2    C69   A    
C9    C31   S    
C66   H48   S    
C52   C68   S    
C43   N34   A    
C46   C85   A    
C14   H92   S    
N15   Ni1   S    
C91   N24   A    
N35   Ni4   S    
C91   H85   S    
C59   H53   S    
C6    C81   A    
C98   N27   T    
C85   N18   A    
N14   Ni1   S    
C58   C64   S    
N24   Ni5   S    
N5    N14   A    
N4    N13   A    
C59   C95   S    
C20   H32   S    
C73   H68   S    
C85   H80   S    
C61   H55   S    
C35   H34   S    
C21   H33   S    
C82   N15   A    
C21   H11   S    
C58   H52   S    
C54   H49   S    
C25   C49   S    
C20   C29   S    
C19   H9    S    
C92   C96   A    
C25   C29   S    
C40   H17   S    
C62   H57   S    
N18   N32   A    
C88   N21   A    
C62   C66   D    
C27   C31   S    
C34   C39   S    
C89   H84   S    
C69   H63   S    
N26   N31   A    
C81   N14   A    
C86   N19   A    
N26   Ni6   S    
C22   C31   S    
N32   Ni3   S    
C23   H20   S    
C83   H77   S    
C76   N9    A    
C1    C94   A    
C88   H83   S    
C37   H14   S    
C10   H45   S    
C23   C28   S    
C67   C90   A    
C70   H64   S    
C93   N26   A    
C56   H51   S    
C84   H79   S    
C1    N1    A    
N1    N22   A    
C4    C78   A    
C83   N16   A    
N21   N35   A    
C87   H82   S    
C17   H5    S    
C16   C33   S    
C86   H81   S    
C12   C15   S    
C36   C40   S    
C63   H44   S    
C67   N36   A    
C5    C34   S    
C23   C98   S    
C75   H70   S    
C8    C74   A    
C56   C63   S    
C71   N4    A    
C73   N6    A    
C18   H4    S    
N18   Ni7   S    
C48   H25   S    
C5    C80   A    
C19   C28   S    
N36   Ni5   S    
C14   H78   S    
C19   C39   S    
C11   H56   S    
C60   C94   S    
C20   H10   S    
C93   H87   S    
C16   H2    S    
C82   H76   S    
C26   C30   S    
C3    N30   T    
N19   N33   A    
C43   C68   A    
C33   C47   S    
C38   H41   S    
C14   C16   S    
C48   H29   S    
N22   Ni5   S    
C34   C48   S    
C17   C34   S    
N2    Ni5   S    
N21   Ni8   S    
C1    H1    S    
C55   C66   S    
C55   H50   S    
C21   C30   S    
C42   N33   A    
C27   C47   S    
C12   H91   S    
N12   N24   A    
C64   H46   S    
C23   C48   S    
C12   C30   S    
N6    N15   A    
C84   N17   A    
C72   H66   S    
C44   C79   A    
C61   C97   S    
C26   H18   S    
C8    C83   A    
N13   Ni4   S    
C15   C32   S    
N25   Ni6   S    
C53   C58   D    
N31   Ni2   S    
C78   N11   A    
C27   H19   S    
C45   H22   S    
C44   H39   S    
C49   H30   S    
C46   C50   S    
C59   C63   D    
N8    N17   A    
C13   N12   A    
C22   H35   S    
C60   C64   D    
C11   H90   S    
C8    C30   S    
C3    C27   S    
C17   H3    S    
C80   H74   S    
C50   C54   D    
C2    C77   A    
C35   C97   A    
N7    Ni8   S    
C100  N29   T    
C38   H15   S    
C67   H62   S    
N8    Ni8   S    
C47   H24   S    
N4    Ni6   S    
C18   H6    S    
C45   H27   S    
C77   H72   S    
N34   Ni4   S    
C51   H59   S    
N7    N16   A    
N19   Ni7   S    
C80   N13   A    
C51   C55   D    
N17   Ni2   S    
C24   H23   S    
C15   H89   S    
C92   N25   A    
C44   N35   A    
C60   H54   S    
C41   N32   A    
C16   H8    S    
C9    C84   A    
C91   C95   A    
C61   C65   D    
N9    Ni3   S    
C7    C82   A    
C21   C37   S    
C99   N28   T    
C11   C29   S    
C5    C71   A    
C39   H16   S    
C71   H65   S    
C40   H43   S    
C76   C90   A    
C68   C87   A    
N10   Ni3   S    
C33   C38   S    
C9    C75   A    
C24   C96   A    
C62   C96   S    
C33   C90   S    
C25   H21   S    
C41   H36   S    
C36   C49   S    
C52   C56   D    
C26   C100  S    
C89   N22   A    
C42   H37   S    
C69   N2    A    
N2    N10   A    
