data_mof_unit_4536.cif
_audit_creation_date              2012-12-10T16:37:28-0500
_audit_creation_method            fapswitch 2.2
_symmetry_space_group_name_H-M    P1
_symmetry_Int_Tables_number       1
_space_group_crystal_system       triclinic
_cell_length_a                    16.720272
_cell_length_b                    16.720272
_cell_length_c                    16.720272
_cell_angle_alpha                 65.890805
_cell_angle_beta                  65.89081
_cell_angle_gamma                 65.890811
_cell_volume                      3727.12252818

loop_
_atom_site_label
_atom_site_type_symbol
_atom_type_description
_atom_site_fract_x
_atom_site_fract_y
_atom_site_fract_z
_atom_type_partial_charge
Br1   Br    Br    0.357345 0.155940 0.777011 -0.431187
Br2   Br    Br    0.357345 0.777011 0.155941 -0.431187
Br3   Br    Br    0.844059 0.642655 0.222989 -0.431187
Br4   Br    Br    0.155941 0.357345 0.777011 -0.431187
Br5   Br    Br    0.642655 0.844059 0.222989 -0.431187
Br6   Br    Br    0.155940 0.777011 0.357345 -0.431187
Br7   Br    Br    0.844059 0.222989 0.642655 -0.431187
Br8   Br    Br    0.777011 0.357345 0.155941 -0.431187
Br9   Br    Br    0.222989 0.642655 0.844059 -0.431187
Br10  Br    Br    0.222989 0.844059 0.642655 -0.431187
Br11  Br    Br    0.777011 0.155941 0.357345 -0.431187
Br12  Br    Br    0.642655 0.222989 0.844059 -0.431187
C1    C     C_R   0.401414 0.046031 0.665287 -0.245022
C2    C     C_R   0.401414 0.665287 0.046031 -0.245022
C3    C     C_R   0.953969 0.598586 0.334713 -0.245022
C4    C     C_R   0.046031 0.401414 0.665287 -0.245022
C5    C     C_R   0.960836 0.179748 0.438460 0.924666
C6    C     C_R   0.039164 0.820252 0.561540 0.924666
C7    C     C_R   0.179748 0.438460 0.960836 0.924666
C8    C     C_R   0.820252 0.561540 0.039164 0.924665
C9    C     C_R   0.438460 0.960836 0.179748 0.924666
C10   C     C_R   0.561540 0.039164 0.820252 0.924666
C11   C     C_R   0.561540 0.820252 0.039164 0.924666
C12   C     C_R   0.598586 0.953969 0.334713 -0.245022
C13   C     C_R   0.438460 0.179748 0.960836 0.924667
C14   C     C_R   0.039164 0.561540 0.820252 0.924665
C15   C     C_R   0.960836 0.438460 0.179748 0.924665
C16   C     C_R   0.820252 0.039164 0.561540 0.924666
C17   C     C_R   0.179748 0.960836 0.438460 0.924666
C18   C     C_R   0.441325 0.075122 0.703403 0.298126
C19   C     C_R   0.558675 0.924877 0.296596 0.298126
C20   C     C_R   0.075122 0.703403 0.441325 0.298127
C21   C     C_R   0.924878 0.296597 0.558675 0.298127
C22   C     C_R   0.703403 0.441325 0.075122 0.298127
C23   C     C_R   0.046031 0.665287 0.401414 -0.245022
C24   C     C_R   0.296597 0.558675 0.924877 0.298127
C25   C     C_R   0.296597 0.924878 0.558675 0.298127
C26   C     C_R   0.703403 0.075122 0.441325 0.298127
C27   C     C_R   0.558675 0.296597 0.924877 0.298126
C28   C     C_R   0.441325 0.703403 0.075122 0.298126
C29   C     C_R   0.924877 0.558675 0.296596 0.298127
C30   C     C_R   0.075122 0.441325 0.703403 0.298127
C31   C     C_R   0.540170 0.028013 0.540170 0.031213
C32   C     C_R   0.459829 0.971987 0.459830 0.031214
C33   C     C_R   0.028013 0.540170 0.540170 0.031214
C34   C     C_R   0.953969 0.334713 0.598586 -0.245022
C35   C     C_R   0.971987 0.459830 0.459830 0.031214
C36   C     C_R   0.540170 0.540170 0.028013 0.031213
C37   C     C_R   0.459830 0.459829 0.971987 0.031214
C38   C     C_R   0.586530 0.016181 0.451875 0.026829
C39   C     C_R   0.413470 0.983819 0.548125 0.026829
C40   C     C_R   0.016181 0.451875 0.586530 0.026829
C41   C     C_R   0.983819 0.548125 0.413470 0.026829
C42   C     C_R   0.451875 0.586530 0.016181 0.026829
C43   C     C_R   0.548125 0.413470 0.983819 0.026829
C44   C     C_R   0.548125 0.983819 0.413470 0.026829
C45   C     C_R   0.665287 0.401414 0.046031 -0.245022
C46   C     C_R   0.451875 0.016181 0.586530 0.026829
C47   C     C_R   0.413470 0.548125 0.983819 0.026829
C48   C     C_R   0.586530 0.451875 0.016181 0.026829
C49   C     C_R   0.983819 0.413470 0.548125 0.026829
C50   C     C_R   0.016181 0.586530 0.451875 0.026829
C51   C     C_R   0.536948 0.063501 0.670692 0.012034
C52   C     C_R   0.463052 0.936499 0.329307 0.012034
C53   C     C_R   0.063501 0.670692 0.536948 0.012034
C54   C     C_R   0.936499 0.329307 0.463052 0.012034
C55   C     C_R   0.670692 0.536948 0.063501 0.012034
C56   C     C_R   0.334713 0.598586 0.953969 -0.245022
C57   C     C_R   0.329308 0.463052 0.936499 0.012034
C58   C     C_R   0.329307 0.936499 0.463052 0.012034
C59   C     C_R   0.670692 0.063501 0.536948 0.012034
C60   C     C_R   0.463052 0.329307 0.936499 0.012034
C61   C     C_R   0.536948 0.670692 0.063501 0.012034
C62   C     C_R   0.936499 0.463052 0.329307 0.012034
C63   C     C_R   0.063501 0.536948 0.670692 0.012034
C64   C     C_R   0.588965 0.064420 0.720356 -0.105203
C65   C     C_R   0.411035 0.935580 0.279644 -0.105203
C66   C     C_R   0.064420 0.720356 0.588965 -0.105203
C67   C     C_R   0.334713 0.953969 0.598586 -0.245022
C68   C     C_R   0.935580 0.279644 0.411035 -0.105203
C69   C     C_R   0.720356 0.588965 0.064420 -0.105203
C70   C     C_R   0.279644 0.411035 0.935580 -0.105203
C71   C     C_R   0.279644 0.935580 0.411035 -0.105203
C72   C     C_R   0.720356 0.064420 0.588965 -0.105203
C73   C     C_R   0.411035 0.279644 0.935580 -0.105203
C74   C     C_R   0.588965 0.720356 0.064420 -0.105203
C75   C     C_R   0.935580 0.411035 0.279644 -0.105203
C76   C     C_R   0.064420 0.588965 0.720356 -0.105203
C77   C     C_R   0.677180 0.070015 0.677180 -0.230261
C78   C     C_R   0.665287 0.046031 0.401414 -0.245022
C79   C     C_R   0.322819 0.929985 0.322819 -0.230261
C80   C     C_R   0.070015 0.677181 0.677180 -0.230261
C81   C     C_R   0.929985 0.322819 0.322819 -0.230261
C82   C     C_R   0.677180 0.677180 0.070015 -0.230261
C83   C     C_R   0.322819 0.322819 0.929985 -0.230261
C84   C     C_R   0.582692 0.051428 0.582692 -0.007575
C85   C     C_R   0.417307 0.948572 0.417307 -0.007575
C86   C     C_R   0.051428 0.582692 0.582692 -0.007575
C87   C     C_R   0.948572 0.417307 0.417307 -0.007575
C88   C     C_R   0.582692 0.582693 0.051428 -0.007575
C89   C     C_R   0.598586 0.334713 0.953969 -0.245022
C90   C     C_R   0.417307 0.417307 0.948572 -0.007575
H1    H     H_    0.328568 0.054668 0.693365 0.180348
H2    H     H_    0.328568 0.693365 0.054668 0.180348
H3    H     H_    0.945332 0.671432 0.306635 0.180348
H4    H     H_    0.054668 0.328568 0.693365 0.180348
H5    H     H_    0.715969 0.069577 0.715969 0.224132
H6    H     H_    0.284031 0.930423 0.284031 0.224132
H7    H     H_    0.069577 0.715969 0.715969 0.224132
H8    H     H_    0.930423 0.284031 0.284031 0.224132
H9    H     H_    0.715969 0.715969 0.069577 0.224133
H10   H     H_    0.284031 0.284030 0.930423 0.224133
H11   H     H_    0.671432 0.945332 0.306635 0.180348
H12   H     H_    0.054668 0.693365 0.328568 0.180348
H13   H     H_    0.945332 0.306635 0.671432 0.180348
H14   H     H_    0.693365 0.328568 0.054668 0.180348
H15   H     H_    0.306635 0.671432 0.945332 0.180348
H16   H     H_    0.306635 0.945332 0.671432 0.180348
H17   H     H_    0.693365 0.054668 0.328568 0.180348
H18   H     H_    0.671432 0.306635 0.945332 0.180348
O1    O     O_R   0.982940 0.138950 0.510160 -0.606100
O2    O     O_R   0.982940 0.510160 0.138950 -0.606100
O3    O     O_R   0.861050 0.017060 0.489840 -0.606100
O4    O     O_R   0.138950 0.982940 0.510160 -0.606100
O5    O     O_R   0.867700 0.025880 0.612340 -0.601972
O6    O     O_R   0.132300 0.974120 0.387660 -0.601972
O7    O     O_R   0.025880 0.612340 0.867700 -0.601972
O8    O     O_R   0.974120 0.387660 0.132300 -0.601972
O9    O     O_R   0.612340 0.867700 0.025880 -0.601971
O10   O     O_R   0.387660 0.132300 0.974120 -0.601972
O11   O     O_R   0.387660 0.974120 0.132300 -0.601972
O12   O     O_R   0.017060 0.861050 0.489840 -0.606100
O13   O     O_R   0.612340 0.025880 0.867700 -0.601971
O14   O     O_R   0.132300 0.387660 0.974120 -0.601972
O15   O     O_R   0.867700 0.612340 0.025880 -0.601972
O16   O     O_R   0.974120 0.132300 0.387660 -0.601972
O17   O     O_R   0.025880 0.867700 0.612340 -0.601971
O18   O     O_R   0.138950 0.510160 0.982940 -0.606100
O19   O     O_R   0.861050 0.489840 0.017060 -0.606100
O20   O     O_R   0.510160 0.982940 0.138950 -0.606100
O21   O     O_R   0.489840 0.017060 0.861050 -0.606100
O22   O     O_R   0.489840 0.861050 0.017060 -0.606100
O23   O     O_R   0.510160 0.138950 0.982940 -0.606100
O24   O     O_R   0.017060 0.489840 0.861050 -0.606100
Zn1   Zn    Zn3+2 0.004880 0.004880 0.583590 1.077450
Zn2   Zn    Zn3+2 0.995120 0.995120 0.416410 1.077450
Zn3   Zn    Zn3+2 0.004880 0.583590 0.004880 1.077450
Zn4   Zn    Zn3+2 0.995120 0.416410 0.995120 1.077450
Zn5   Zn    Zn3+2 0.583590 0.004880 0.004880 1.077450
Zn6   Zn    Zn3+2 0.416410 0.995120 0.995120 1.077450

loop_
_geom_bond_atom_site_label_1
_geom_bond_atom_site_label_2
_ccdc_geom_bond_type
C61   C88   A    
Br6   C20   S    
C17   O4    A    
C16   C72   S    
C52   C65   A    
C33   C50   A    
C6    O12   A    
C10   C64   S    
O24   Zn4   S    
C60   C73   A    
O6    Zn2   S    
C16   O3    A    
C57   C90   A    
C24   C57   A    
C7    O14   A    
C36   C42   A    
C25   C67   A    
C30   C63   A    
Br4   C30   S    
C34   H13   S    
Br10  C25   S    
C3    C41   A    
C8    O19   A    
O17   Zn1   S    
C53   C86   A    
C17   C71   S    
C83   H10   S    
C56   H15   S    
C80   H7    S    
C51   C64   A    
C67   H16   S    
C82   H9    S    
C35   C87   A    
C28   C61   A    
C11   O9    A    
C23   H12   S    
C15   O8    A    
C9    O11   A    
C57   C70   A    
C74   C82   A    
C31   C46   A    
C29   C62   A    
C38   C78   A    
C65   C79   A    
C76   C80   A    
C11   C74   S    
O10   Zn6   S    
C22   C45   A    
C27   C60   A    
C11   O22   A    
C27   C89   A    
C70   C83   A    
C62   C75   A    
C1    H1    S    
C7    C70   S    
C58   C85   A    
C4    H4    S    
C81   H8    S    
C35   C41   A    
C43   C48   A    
C12   H11   S    
C25   C58   A    
C21   C34   A    
Br7   C21   S    
C13   O23   A    
C14   O24   A    
C13   O10   A    
C19   C52   A    
C15   O2    A    
O21   Zn6   S    
C36   C48   A    
C45   H14   S    
C42   C47   A    
C36   C88   A    
O19   Zn4   S    
C10   O13   A    
C20   C23   A    
C1    C18   A    
O13   Zn5   S    
C3    C29   A    
C37   C90   A    
O8    Zn4   S    
C45   C48   A    
C59   C84   A    
C34   C49   A    
C33   C40   A    
C66   C80   A    
C37   C43   A    
C51   C84   A    
C5    C68   S    
C38   C44   A    
C54   C87   A    
Br11  C26   S    
O9    Zn5   S    
C47   C56   A    
Br9   C24   S    
C32   C85   A    
C32   C44   A    
C2    H2    S    
O3    Zn2   S    
O18   Zn3   S    
C6    C66   S    
C21   C54   A    
C77   H5    S    
C5    O16   A    
C13   C73   S    
C31   C84   A    
C39   C46   A    
Br8   C22   S    
O2    Zn3   S    
C15   C75   S    
C58   C71   A    
C55   C88   A    
C32   C39   A    
C5    O1    A    
C52   C85   A    
C2    C42   A    
C55   C69   A    
O15   Zn3   S    
O1    Zn1   S    
C72   C77   A    
C71   C79   A    
C4    C30   A    
O14   Zn4   S    
C16   O5    A    
C59   C72   A    
C26   C78   A    
C26   C59   A    
Br3   C29   S    
C53   C66   A    
C89   H18   S    
C79   H6    S    
C4    C40   A    
O11   Zn6   S    
C22   C55   A    
C35   C49   A    
C24   C56   A    
C31   C38   A    
C62   C87   A    
C1    C46   A    
C12   C44   A    
C54   C68   A    
O4    Zn1   S    
C43   C89   A    
C37   C47   A    
C40   C49   A    
O12   Zn2   S    
C78   H17   S    
O22   Zn6   S    
Br12  C27   S    
C33   C86   A    
C12   C19   A    
O5    Zn1   S    
C69   C82   A    
C73   C83   A    
C3    H3    S    
C60   C90   A    
C7    O18   A    
C75   C81   A    
C10   O21   A    
C18   C51   A    
Br1   C18   S    
C23   C50   A    
C14   O7    A    
C63   C86   A    
C8    O15   A    
C6    O17   A    
C39   C67   A    
C61   C74   A    
C2    C28   A    
Br2   C28   S    
C63   C76   A    
O23   Zn5   S    
C41   C50   A    
C14   C76   S    
C9    C65   S    
C64   C77   A    
C17   O6    A    
C9    O20   A    
C68   C81   A    
C8    C69   S    
O20   Zn5   S    
O16   Zn2   S    
O7    Zn3   S    
C20   C53   A    
Br5   C19   S    
