data_mof_unit_99.cif
_audit_creation_date              2013-03-05T15:44:05-0500
_audit_creation_method            fapswitch 2.2
_symmetry_space_group_name_H-M    P1
_symmetry_Int_Tables_number       1
_space_group_crystal_system       triclinic
_cell_length_a                    6.948902
_cell_length_b                    17.652324
_cell_length_c                    18.995717
_cell_angle_alpha                 90.000079
_cell_angle_beta                  90.000309
_cell_angle_gamma                 91.286713
_cell_volume                      2329.50820193

loop_
_atom_site_label
_atom_site_type_symbol
_atom_site_description
_atom_site_fract_x
_atom_site_fract_y
_atom_site_fract_z
_atom_type_partial_charge
O1    O     O_R   0.377350 0.828520 0.186660 -0.535236
O2    O     O_R   0.622650 0.171480 0.813340 -0.535234
O3    O     O_R   0.122650 0.171480 0.686660 -0.535403
O4    O     O_R   0.877350 0.828520 0.313340 -0.535388
O5    O     O_R   0.877350 0.671480 0.313340 -0.541047
O6    O     O_R   0.122650 0.328520 0.686660 -0.541044
O7    O     O_R   0.622650 0.328520 0.813340 -0.541046
O8    O     O_R   0.377350 0.671480 0.186660 -0.541049
O9    O     O_R   0.707090 0.671930 0.178410 -0.540732
O10   O     O_R   0.292910 0.328070 0.821590 -0.540731
O11   O     O_R   0.792910 0.328070 0.678410 -0.540734
O12   O     O_R   0.207090 0.671930 0.321590 -0.540737
O13   O     O_R   0.207090 0.828070 0.321590 -0.543903
O14   O     O_R   0.792910 0.171930 0.678410 -0.543916
O15   O     O_R   0.292910 0.171930 0.821590 -0.543850
O16   O     O_R   0.707090 0.828070 0.178410 -0.543849
C1    C     C_R   0.537263 0.645126 0.162172 0.910902
C2    C     C_R   0.462737 0.354874 0.837828 0.910909
C3    C     C_R   0.962736 0.354874 0.662172 0.910907
C4    C     C_R   0.037264 0.645125 0.337828 0.910909
C5    C     C_R   0.041247 0.855378 0.337647 0.906122
C6    C     C_R   0.958753 0.144621 0.662353 0.906144
C7    C     C_R   0.458754 0.144625 0.837651 0.905946
C8    C     C_R   0.541246 0.855375 0.162349 0.905949
O17   O     O_3   0.543850 0.750000 0.294270 -0.271710
O18   O     O_3   0.456150 0.250000 0.705730 -0.271723
O19   O     O_3   0.956150 0.250000 0.794270 -0.271592
O20   O     O_3   0.043850 0.750000 0.205730 -0.271592
V1    V     V_3+5 0.818700 0.750000 0.241790 1.284404
V2    V     V_3+5 0.181300 0.250000 0.758210 1.284385
V3    V     V_3+5 0.681300 0.250000 0.741790 1.284355
V4    V     V_3+5 0.318700 0.750000 0.258210 1.284378
C9    C     C_R   0.972487 0.419183 0.611635 -0.198723
C10   C     C_R   0.027513 0.580816 0.388365 -0.198723
C11   C     C_R   0.527511 0.580817 0.111635 -0.198726
C12   C     C_R   0.472488 0.419183 0.888365 -0.198729
C13   C     C_R   0.455463 0.081235 0.889744 -0.188935
C14   C     C_R   0.544538 0.918764 0.110255 -0.188944
C15   C     C_R   0.044538 0.918774 0.389738 -0.188919
C16   C     C_R   0.955464 0.081223 0.610265 -0.188904
C17   C     C_R   0.060550 0.446571 0.418078 0.311464
C18   C     C_R   0.939451 0.553429 0.581921 0.311466
C19   C     C_R   0.439455 0.553429 0.918078 0.311492
C20   C     C_R   0.560544 0.446571 0.081922 0.311494
C21   C     C_R   0.708933 0.029115 0.056510 0.359952
C22   C     C_R   0.291078 0.970881 0.943488 0.359958
C23   C     C_R   0.791129 0.970859 0.556521 0.360024
C24   C     C_R   0.208891 0.029130 0.443488 0.360023
C25   C     C_R   0.064087 0.505513 0.367202 0.288623
C26   C     C_R   0.935913 0.494486 0.632797 0.288626
C27   C     C_R   0.435916 0.494486 0.867202 0.288627
C28   C     C_R   0.564082 0.505514 0.132798 0.288627
C29   C     C_R   0.693965 0.974808 0.111043 0.302948
C30   C     C_R   0.306037 0.025190 0.888955 0.302944
C31   C     C_R   0.806066 0.025160 0.611065 0.302769
C32   C     C_R   0.193946 0.974831 0.388943 0.302781
C33   C     C_R   0.983417 0.595626 0.458980 -0.112383
C34   C     C_R   0.016585 0.404373 0.541020 -0.112383
C35   C     C_R   0.516582 0.404374 0.958980 -0.112385
C36   C     C_R   0.483418 0.595627 0.041020 -0.112383
C37   C     C_R   0.410994 0.918698 0.055027 -0.043999
C38   C     C_R   0.589010 0.081299 0.944972 -0.044009
C39   C     C_R   0.089009 0.081292 0.555036 -0.044298
C40   C     C_R   0.910994 0.918705 0.444967 -0.044256
C41   C     C_R   0.980739 0.537601 0.510328 -0.064807
C42   C     C_R   0.019263 0.462399 0.489672 -0.064806
C43   C     C_R   0.519260 0.462399 0.010328 -0.064811
C44   C     C_R   0.480739 0.537602 0.989672 -0.064812
C45   C     C_R   0.424221 0.972393 0.999849 -0.051215
C46   C     C_R   0.575784 0.027604 0.000149 -0.051228
C47   C     C_R   0.075772 0.027604 0.499853 -0.051126
C48   C     C_R   0.924235 0.972390 0.500152 -0.051113
H1    H     H_    0.047611 0.346581 0.526674 0.136974
H2    H     H_    0.952392 0.653418 0.473325 0.136975
H3    H     H_    0.452394 0.653419 0.026673 0.136961
H4    H     H_    0.547605 0.346581 0.973326 0.136960
H5    H     H_    0.698573 0.125802 0.945822 0.151986
H6    H     H_    0.301431 0.874195 0.054177 0.152006
H7    H     H_    0.801406 0.874210 0.445813 0.151874
H8    H     H_    0.198596 0.125788 0.554188 0.151841
N1    N     N_R   0.904991 0.512424 0.706009 0.132100
O21   O     O_R   0.981955 0.573549 0.733335 -0.170582
O22   O     O_R   0.804840 0.467135 0.746483 -0.339106
N2    N     N_R   0.095007 0.487575 0.293990 0.132103
O23   O     O_R   0.018047 0.426448 0.266666 -0.170580
O24   O     O_R   0.195139 0.532867 0.253513 -0.339108
N3    N     N_R   0.595002 0.487577 0.206010 0.132100
O25   O     O_R   0.518031 0.426453 0.233336 -0.170584
O26   O     O_R   0.695159 0.532864 0.246483 -0.339106
N4    N     N_R   0.404995 0.512423 0.793990 0.132102
O27   O     O_R   0.481961 0.573548 0.766665 -0.170578
O28   O     O_R   0.304843 0.467135 0.753516 -0.339106
N5    N     N_R   0.164861 0.024113 0.833760 0.122127
O29   O     O_R   0.982320 0.023348 0.849078 -0.264686
O30   O     O_R   0.218040 0.021891 0.768174 -0.264821
N6    N     N_R   0.835133 0.975886 0.166241 0.122120
O31   O     O_R   0.017687 0.976605 0.150924 -0.264736
O32   O     O_R   0.781939 0.978137 0.231826 -0.264787
N7    N     N_R   0.335009 0.975970 0.333702 0.121962
O33   O     O_R   0.517617 0.977128 0.348959 -0.264416
O34   O     O_R   0.281632 0.977973 0.268125 -0.264957
N8    N     N_R   0.665025 0.024012 0.666317 0.121950
O35   O     O_R   0.482419 0.022756 0.651082 -0.264308
O36   O     O_R   0.718454 0.022059 0.731892 -0.264994
N9    N     N_R   0.104688 0.370863 0.396958 0.116959
O37   O     O_R   0.271583 0.356708 0.369488 -0.212302
O38   O     O_R   0.972649 0.317487 0.399497 -0.254083
N10   N     N_R   0.895309 0.629136 0.603041 0.116960
O39   O     O_R   0.728413 0.643290 0.630510 -0.212299
O40   O     O_R   0.027346 0.682513 0.600503 -0.254081
N11   N     N_R   0.395318 0.629137 0.896957 0.116939
O41   O     O_R   0.228425 0.643292 0.869486 -0.212359
O42   O     O_R   0.527359 0.682512 0.899496 -0.254150
N12   N     N_R   0.604680 0.370863 0.103043 0.116938
O43   O     O_R   0.771573 0.356708 0.130514 -0.212363
O44   O     O_R   0.472639 0.317488 0.100503 -0.254157
N13   N     N_R   0.858435 0.086546 0.059686 0.111525
O45   O     O_R   0.871419 0.131273 0.114002 -0.197724
O46   O     O_R   0.992484 0.089353 0.011891 -0.339767
N14   N     N_R   0.141595 0.913443 0.940306 0.111515
O47   O     O_R   0.128647 0.868712 0.885976 -0.197691
O48   O     O_R   0.007556 0.910618 0.988112 -0.339759
N15   N     N_R   0.641779 0.913378 0.559711 0.111583
O49   O     O_R   0.629531 0.868402 0.613882 -0.197720
O50   O     O_R   0.507410 0.910638 0.512031 -0.339713
N16   N     N_R   0.358273 0.086598 0.440304 0.111601
O51   O     O_R   0.370535 0.131580 0.386157 -0.197788
O52   O     O_R   0.492643 0.089321 0.487978 -0.339747

loop_
_geom_bond_atom_site_label_1
_geom_bond_atom_site_label_2
_geom_bond_distance
_ccdc_geom_bond_type
N3    O25   1.301459 A    
N5    O29   1.301186 A    
O7    C2    1.300325 A    
C38   H5    1.081743 S    
N11   O41   1.301048 A    
O14   V3    1.999555 S    
C12   C35   1.401833 A    
N12   O43   1.301050 A    
N15   O49   1.301304 A    
O5    C4    1.300324 A    
O6    C3    1.300324 A    
N9    O38   1.301196 A    
C31   N8    1.435841 S    
O11   C3    1.298690 A    
C9    C34   1.401834 A    
C16   C39   1.400638 A    
C17   N9    1.435082 S    
C25   N2    1.443469 S    
O20   V1    1.707928 S    
N2    O24   1.299835 A    
N13   O46   1.300908 A    
C27   N4    1.443466 S    
N15   O50   1.300950 A    
C37   C45   1.414759 A    
N10   O39   1.301047 A    
C38   C46   1.414759 A    
C30   N5    1.435694 S    
O13   V4    1.999554 S    
C35   C43   1.414221 A    
C23   N15   1.436321 S    
C34   C42   1.414224 A    
N7    O33   1.301314 A    
C19   C44   1.418975 A    
C22   C45   1.414858 A    
N6    O32   1.300375 A    
C18   C41   1.418977 A    
C8    C14   1.493561 S    
O4    V1    1.977157 S    
O9    V1    1.975398 S    
C14   C37   1.400606 A    
C4    C10   1.487079 S    
C20   C28   1.419865 A    
O17   V4    1.707921 S    
O15   C7    1.295543 A    
O11   V3    1.975404 S    
O18   V3    1.707921 S    
N5    O30   1.300339 A    
O12   V4    1.975405 S    
O19   V2    1.707928 S    
O12   C4    1.298690 A    
C45   C46   1.418799 A    
C19   N11   1.435080 S    
C17   C25   1.419869 A    
N1    O22   1.299825 A    
N14   O48   1.301011 A    
C13   C38   1.400608 A    
O5    V1    1.989951 S    
C39   H8    1.081771 S    
O17   V1    2.154427 S    
O7    V3    1.989950 S    
O19   V3    2.154418 S    
C43   C44   1.415573 A    
O8    V4    1.989951 S    
O20   V4    2.154418 S    
N2    O23   1.301456 A    
C3    C9    1.487079 S    
C9    C26   1.417152 A    
C7    C13   1.493564 S    
C24   N16   1.436318 S    
O1    V4    1.977162 S    
N1    O21   1.301456 A    
C11   C36   1.401832 A    
C33   H2    1.082293 S    
O3    V2    1.977158 S    
C15   C40   1.400631 A    
C10   C33   1.401834 A    
O10   V2    1.975396 S    
N4    O28   1.299825 A    
C15   C32   1.418166 A    
C5    C15   1.493587 S    
C37   H6    1.081748 S    
C16   C31   1.418185 A    
C6    C16   1.493590 S    
N6    O31   1.301275 A    
C22   C30   1.413667 A    
C22   N14   1.436437 S    
N11   O42   1.301194 A    
N8    O36   1.300464 A    
C12   C27   1.417152 A    
C18   C26   1.419866 A    
C13   C30   1.418103 A    
O9    C1    1.298689 A    
O6    V2    1.989949 S    
C39   C47   1.414748 A    
O18   V2    2.154427 S    
N3    O26   1.299821 A    
C40   H7    1.081764 S    
C24   C47   1.414801 A    
O2    C7    1.307989 A    
N14   O47   1.301333 A    
O15   V2    1.999552 S    
C23   C31   1.413727 A    
C26   N1    1.443466 S    
C21   N13   1.436450 S    
C24   C32   1.413702 A    
C10   C25   1.417154 A    
N16   O52   1.300865 A    
N7    O34   1.300440 A    
C21   C46   1.414867 A    
C28   N3    1.443467 S    
C33   C41   1.414222 A    
C20   C43   1.418974 A    
N12   O44   1.301196 A    
C17   C42   1.418974 A    
N9    O37   1.301047 A    
C36   H3    1.082295 S    
O8    C1    1.300323 A    
O14   C6    1.295553 A    
O16   V1    1.999551 S    
C47   C48   1.418708 A    
N13   O45   1.301099 A    
O13   C5    1.295551 A    
O4    C5    1.307990 A    
C19   C27   1.419865 A    
N4    O27   1.301456 A    
C14   C29   1.418097 A    
C2    C12   1.487075 S    
O10   C2    1.298689 A    
N16   O51   1.301013 A    
N10   O40   1.301194 A    
C40   C48   1.414755 A    
N8    O35   1.301201 A    
C20   N12   1.435081 S    
C23   C48   1.414802 A    
C21   C29   1.413665 A    
C36   C44   1.414221 A    
O1    C8    1.307987 A    
O16   C8    1.295541 A    
C41   C42   1.415572 A    
C11   C28   1.417149 A    
O2    V3    1.977164 S    
O3    C6    1.307989 A    
C1    C11   1.487077 S    
C32   N7    1.435800 S    
C18   N10   1.435078 S    
C35   H4    1.082295 S    
C34   H1    1.082293 S    
C29   N6    1.435690 S    
