data_mof_unit_4234.cif
_audit_creation_date              2012-12-11T14:44:29-0500
_audit_creation_method            fapswitch 2.2
_symmetry_space_group_name_H-M    P1
_symmetry_Int_Tables_number       1
_space_group_crystal_system       triclinic
_cell_length_a                    19.953336
_cell_length_b                    7.22435
_cell_length_c                    19.680017
_cell_angle_alpha                 88.27282
_cell_angle_beta                  98.175301
_cell_angle_gamma                 88.453743
_cell_volume                      2805.36482298

loop_
_atom_site_label
_atom_site_type_symbol
_atom_type_description
_atom_site_fract_x
_atom_site_fract_y
_atom_site_fract_z
_atom_type_partial_charge
O1    O     O_R   0.673210 0.377390 0.686390 -0.534470
O2    O     O_R   0.326790 0.622610 0.313610 -0.534464
O3    O     O_R   0.826790 0.877390 0.813610 -0.542403
O4    O     O_R   0.173210 0.122610 0.186390 -0.542404
O5    O     O_R   0.810750 0.706450 0.681250 -0.543012
O6    O     O_R   0.189250 0.293550 0.318750 -0.543013
O7    O     O_R   0.689250 0.206450 0.818750 -0.534796
O8    O     O_R   0.310750 0.793550 0.181250 -0.534794
C1    C     C_R   0.832378 0.538892 0.666982 0.705622
C2    C     C_R   0.167621 0.461108 0.333017 0.705612
C3    C     C_R   0.667674 0.038794 0.832910 0.706196
C4    C     C_R   0.332325 0.961206 0.167089 0.706188
O9    O     O_R   0.672750 0.707060 0.678240 -0.545304
O10   O     O_R   0.327250 0.292940 0.321760 -0.545305
O11   O     O_R   0.827250 0.207060 0.821760 -0.537797
O12   O     O_R   0.172750 0.792940 0.178240 -0.537798
O13   O     O_R   0.687800 0.877990 0.810580 -0.539084
O14   O     O_R   0.312200 0.122010 0.189420 -0.539081
O15   O     O_R   0.812200 0.377990 0.689420 -0.532445
O16   O     O_R   0.187800 0.622010 0.310580 -0.532445
C5    C     C_R   0.648515 0.542883 0.660508 0.683904
C6    C     C_R   0.351484 0.457116 0.339492 0.683916
C7    C     C_R   0.851499 0.033554 0.838723 0.685808
C8    C     C_R   0.148501 0.966447 0.161278 0.685807
O17   O     O_3   0.755100 0.544060 0.793420 -0.373110
O18   O     O_3   0.244900 0.455940 0.206580 -0.373111
O19   O     O_3   0.744900 0.044060 0.706580 -0.375277
O20   O     O_3   0.255100 0.955940 0.293420 -0.375279
V1    V     V_3+5 0.749050 0.818670 0.741950 1.391601
V2    V     V_3+5 0.250950 0.181330 0.258050 1.391600
V3    V     V_3+5 0.750950 0.318670 0.758050 1.405762
V4    V     V_3+5 0.249050 0.681330 0.241950 1.405771
C9    C     C_R   0.088537 0.998160 0.107122 -0.064801
C10   C     C_R   0.911463 0.001841 0.892877 -0.064801
C11   C     C_R   0.411133 0.449316 0.395331 -0.065530
C12   C     C_R   0.588867 0.550683 0.604669 -0.065533
C13   C     C_R   0.998623 0.784196 0.951780 -0.204648
C14   C     C_R   0.001377 0.215806 0.048220 -0.204652
C15   C     C_R   0.497538 0.734513 0.535058 -0.201331
C16   C     C_R   0.502461 0.265486 0.464942 -0.201324
C17   C     C_R   0.946653 0.828255 0.898019 -0.162083
C18   C     C_R   0.053346 0.171744 0.101982 -0.162080
C19   C     C_R   0.550580 0.717945 0.589913 -0.167174
C20   C     C_R   0.449420 0.282053 0.410088 -0.167171
C21   C     C_R   0.930838 0.132469 0.942759 -0.242676
C22   C     C_R   0.069164 0.867535 0.057239 -0.242678
C23   C     C_R   0.571739 0.398565 0.563151 -0.236916
C24   C     C_R   0.428261 0.601435 0.436849 -0.236914
C25   C     C_R   0.982993 0.087925 0.997615 0.162272
C26   C     C_R   0.017008 0.912079 0.002384 0.162275
C27   C     C_R   0.518653 0.415220 0.507185 0.158696
C28   C     C_R   0.481348 0.584780 0.492815 0.158692
H1    H     H_    0.095802 0.734154 0.059846 0.125854
H2    H     H_    0.904200 0.265852 0.940151 0.125854
H3    H     H_    0.399390 0.731036 0.426760 0.126239
H4    H     H_    0.600611 0.268964 0.573239 0.126240
H5    H     H_    0.066714 0.276701 0.139162 0.138876
H6    H     H_    0.933283 0.723295 0.860840 0.138872
H7    H     H_    0.438211 0.162125 0.379239 0.131751
H8    H     H_    0.561787 0.837871 0.620762 0.131768
H9    H     H_    0.023906 0.648980 0.954088 0.118623
H10   H     H_    0.976093 0.351020 0.045913 0.118626
H11   H     H_    0.469371 0.865251 0.525486 0.118619
H12   H     H_    0.530628 0.134747 0.474515 0.118620
C29   C     C_R   0.548934 0.970619 0.857445 0.096188
C30   C     C_R   0.451066 0.029366 0.142555 0.096174
C31   C     C_R   0.950345 0.597115 0.637743 0.095801
C32   C     C_R   0.049655 0.402866 0.362258 0.095807
C33   C     C_R   0.615882 0.028873 0.879706 -0.091815
C34   C     C_R   0.384116 0.971129 0.120292 -0.091829
C35   C     C_R   0.883792 0.530951 0.619750 -0.094425
C36   C     C_R   0.116207 0.469045 0.380249 -0.094427
C37   C     C_R   0.634706 0.077072 0.947940 -0.248123
C38   C     C_R   0.365289 0.922953 0.052057 -0.248121
C39   C     C_R   0.865487 0.452053 0.555987 -0.247993
C40   C     C_R   0.134512 0.547941 0.444012 -0.247990
C41   C     C_R   0.589204 0.064896 0.995699 0.104397
C42   C     C_R   0.410792 0.935132 0.004297 0.104402
C43   C     C_R   0.911145 0.440153 0.508457 0.103105
C44   C     C_R   0.088856 0.559828 0.491544 0.103102
C45   C     C_R   0.522850 0.005936 0.975367 0.028629
C46   C     C_R   0.477146 0.994085 0.024630 0.028622
C47   C     C_R   0.977043 0.506600 0.524464 0.027936
C48   C     C_R   0.022958 0.493381 0.475537 0.027935
C49   C     C_R   0.502073 0.959407 0.906034 0.081703
C50   C     C_R   0.497924 0.040606 0.093965 0.081731
C51   C     C_R   0.997198 0.585272 0.589228 0.082213
C52   C     C_R   0.002804 0.414700 0.410774 0.082212
C53   C     C_R   0.609648 0.109878 0.063973 -0.179433
C54   C     C_R   0.390346 0.890164 0.936023 -0.179431
C55   C     C_R   0.891383 0.362769 0.444742 -0.180275
C56   C     C_R   0.108621 0.637190 0.555263 -0.180272
C57   C     C_R   0.565077 0.097534 0.112336 -0.189464
C58   C     C_R   0.434918 0.902503 0.887660 -0.189481
C59   C     C_R   0.936168 0.350447 0.396660 -0.189750
C60   C     C_R   0.063837 0.649500 0.603347 -0.189748
H13   H     H_    0.685835 0.121641 0.964153 0.118460
H14   H     H_    0.314159 0.878395 0.035842 0.118457
H15   H     H_    0.814773 0.400868 0.543136 0.119882
H16   H     H_    0.185226 0.599128 0.456863 0.119881
H17   H     H_    0.660683 0.154529 0.080282 0.123650
H18   H     H_    0.339310 0.845527 0.919713 0.123650
H19   H     H_    0.840745 0.311599 0.431805 0.123910
H20   H     H_    0.159261 0.688345 0.568202 0.123908
H21   H     H_    0.584630 0.133125 0.164100 0.136415
H22   H     H_    0.415361 0.866935 0.835895 0.136435
H23   H     H_    0.917182 0.290093 0.348484 0.137393
H24   H     H_    0.082827 0.709823 0.651527 0.137383
C61   C     C_3   0.527319 0.928374 0.782073 -0.373172
C62   C     C_3   0.488543 0.093392 0.743211 -0.761495
H25   H     H_    0.442547 0.130552 0.766209 0.230590
H26   H     H_    0.521497 0.215158 0.744333 0.227521
H27   H     H_    0.472885 0.058168 0.688823 0.215886
H28   H     H_    0.570909 0.894623 0.755219 0.183818
H29   H     H_    0.496808 0.802172 0.777093 0.171462
C63   C     C_3   0.472686 0.071542 0.217933 -0.373143
C64   C     C_3   0.511485 0.906519 0.256769 -0.761459
H30   H     H_    0.478571 0.784658 0.255571 0.227533
H31   H     H_    0.557520 0.869569 0.233803 0.230566
H32   H     H_    0.527083 0.941620 0.311178 0.215881
H33   H     H_    0.503185 0.197772 0.222927 0.171453
H34   H     H_    0.429096 0.105211 0.244800 0.183793
C65   C     C_3   0.971975 0.670198 0.709213 -0.370177
C66   C     C_3   0.012929 0.522666 0.756095 -0.771119
H35   H     H_    0.980879 0.402560 0.763833 0.226579
H36   H     H_    0.058061 0.473698 0.733886 0.232640
H37   H     H_    0.030348 0.581324 0.806836 0.216346
H38   H     H_    0.001009 0.798289 0.706421 0.172881
H39   H     H_    0.928292 0.713608 0.734386 0.182854
C67   C     C_3   0.028026 0.329758 0.290791 -0.370180
C68   C     C_3   0.987055 0.477254 0.243908 -0.771177
H40   H     H_    0.941933 0.526235 0.266128 0.232659
H41   H     H_    0.019097 0.597352 0.236145 0.226585
H42   H     H_    0.969619 0.418552 0.193177 0.216357
H43   H     H_    0.071710 0.286381 0.265614 0.182861
H44   H     H_    0.999008 0.201644 0.293592 0.172885

loop_
_geom_bond_atom_site_label_1
_geom_bond_atom_site_label_2
_ccdc_geom_bond_type
O17   V3    S    
C24   H3    S    
C47   C51   A    
O1    C5    A    
O19   V1    S    
O13   V1    S    
O3    C7    A    
C67   H43   S    
O1    V3    S    
C44   C48   A    
C68   H42   S    
O15   V3    S    
C45   C46   A    
C65   C66   S    
C38   H14   S    
C5    C12   S    
C42   C54   A    
O7    C3    A    
C6    C11   S    
C41   C53   A    
C30   C63   S    
C9    C18   A    
O9    V1    S    
C17   H6    S    
C14   C18   A    
C64   H31   S    
O4    C8    A    
C20   H7    S    
C56   C60   A    
C63   C64   S    
C12   C23   A    
O2    V4    S    
O3    V1    S    
C34   C38   A    
C54   H18   S    
C57   H21   S    
C62   H25   S    
C1    O15   A    
C58   H22   S    
C2    O16   A    
C43   C47   A    
C63   H34   S    
O2    C6    A    
C33   C37   A    
O14   V2    S    
C21   C25   A    
C16   C20   A    
C43   C55   A    
C36   C40   A    
O11   C7    A    
C15   C28   A    
C60   H24   S    
C52   C59   A    
O12   C8    A    
C65   H39   S    
C13   C17   A    
C9    C22   A    
C10   C17   A    
O10   V2    S    
C11   C24   A    
C18   H5    S    
C45   C49   A    
C54   C58   A    
O5    V1    S    
O7    V3    S    
C63   H33   S    
C27   C28   A    
O8    V4    S    
C48   C52   A    
C40   H16   S    
C64   H32   S    
C14   C25   A    
C61   H29   S    
O18   V4    S    
C23   C27   A    
C46   C50   A    
C32   C36   A    
C44   C56   A    
C37   H13   S    
O5    C1    A    
C50   C57   A    
C49   C58   A    
C42   C46   A    
C13   H9    S    
C47   C48   A    
C41   C45   A    
O8    C4    A    
C7    C10   S    
C51   C60   A    
C39   H15   S    
O9    C5    A    
C10   C21   A    
C29   C49   A    
C11   C20   A    
C23   H4    S    
C62   H27   S    
C29   C61   S    
C59   H23   S    
C61   H28   S    
C66   H37   S    
C19   H8    S    
O6    V2    S    
C21   H2    S    
C32   C52   A    
C40   C44   A    
C68   H40   S    
C66   H36   S    
O16   V4    S    
C4    C34   S    
C3    O13   A    
C53   H17   S    
C67   H44   S    
C1    C35   S    
C55   H19   S    
C68   H41   S    
C31   C65   S    
C30   C50   A    
C15   C19   A    
C3    C33   S    
O11   V3    S    
O12   V4    S    
C16   C27   A    
C15   H11   S    
C22   C26   A    
C31   C51   A    
C8    C9    S    
C16   H12   S    
O10   C6    A    
O20   V2    S    
C67   C68   S    
C64   H30   S    
C35   C39   A    
C13   C26   A    
C65   H38   S    
C30   C34   A    
C29   C33   A    
C22   H1    S    
C31   C35   A    
C53   C57   A    
C62   H26   S    
O6    C2    A    
C56   H20   S    
C55   C59   A    
C24   C28   A    
C25   C26   A    
C38   C42   A    
C4    O14   A    
C37   C41   A    
C32   C67   S    
C12   C19   A    
C61   C62   S    
C39   C43   A    
O4    V2    S    
C66   H35   S    
C14   H10   S    
C2    C36   S    
