data_mof_unit_2859.cif
_audit_creation_date              2012-12-11T14:05:42-0500
_audit_creation_method            fapswitch 2.2
_symmetry_space_group_name_H-M    P1
_symmetry_Int_Tables_number       1
_space_group_crystal_system       triclinic
_cell_length_a                    17.656861
_cell_length_b                    17.656904
_cell_length_c                    17.406027
_cell_angle_alpha                 89.795643
_cell_angle_beta                  89.795746
_cell_angle_gamma                 91.082955
_cell_volume                      5425.55908352

loop_
_atom_site_label
_atom_site_type_symbol
_atom_type_description
_atom_site_fract_x
_atom_site_fract_y
_atom_site_fract_z
_atom_type_partial_charge
C1    C     C_R   0.729008 0.823333 0.190854 -0.075354
C2    C     C_R   0.320779 0.777130 0.225246 0.015132
C3    C     C_R   0.903949 0.816772 0.618071 -0.103613
C4    C     C_R   0.089851 0.376891 0.818504 -0.077677
C5    C     C_R   0.910269 0.623151 0.181506 -0.071218
C6    C     C_R   0.094747 0.816491 0.617117 -0.101724
C7    C     C_R   0.905474 0.183440 0.382524 -0.095350
C8    C     C_R   0.816772 0.903949 0.618071 -0.103614
C9    C     C_R   0.184420 0.097382 0.384754 -0.098791
C10   C     C_R   0.623140 0.910266 0.181509 -0.071214
C11   C     C_R   0.376892 0.089851 0.818504 -0.077677
C12   C     C_R   0.183440 0.905474 0.382524 -0.095349
C13   C     C_R   0.176779 0.271058 0.809298 -0.066340
C14   C     C_R   0.816490 0.094747 0.617117 -0.101724
C15   C     C_R   0.383493 0.904404 0.815523 -0.056922
C16   C     C_R   0.616457 0.095682 0.184470 -0.055508
C17   C     C_R   0.158187 0.070727 0.651284 -0.080933
C18   C     C_R   0.841771 0.929244 0.348747 -0.078793
C19   C     C_R   0.373054 0.086862 0.180491 -0.082342
C20   C     C_R   0.618749 0.905109 0.816334 -0.102456
C21   C     C_R   0.815970 0.096865 0.386371 -0.101781
C22   C     C_R   0.184119 0.903140 0.613436 -0.103812
C23   C     C_R   0.618355 0.095016 0.815914 -0.106557
C24   C     C_R   0.823332 0.729015 0.190850 -0.075359
C25   C     C_R   0.383061 0.903962 0.184472 -0.107033
C26   C     C_R   0.319835 0.778280 0.775282 0.008902
C27   C     C_R   0.680045 0.221883 0.224633 0.008075
C28   C     C_R   0.778021 0.681222 0.778911 0.007385
C29   C     C_R   0.196705 0.291040 0.210490 -0.056856
C30   C     C_R   0.144204 0.144204 0.775103 0.057549
C31   C     C_R   0.855862 0.855868 0.225003 0.068085
C32   C     C_R   0.222299 0.777683 0.322850 0.011216
C33   C     C_R   0.271059 0.176779 0.809297 -0.066340
C34   C     C_R   0.777635 0.222491 0.676694 0.011749
C35   C     C_R   0.777683 0.222299 0.322850 0.011215
C36   C     C_R   0.222492 0.777635 0.676693 0.011750
C37   C     C_R   0.776492 0.776492 0.678623 0.007923
C38   C     C_R   0.226663 0.226662 0.328182 0.037304
C39   C     C_R   0.639765 0.830588 0.830161 0.100019
C40   C     C_R   0.346630 0.157223 0.165599 0.137988
C41   C     C_R   0.169808 0.639632 0.828541 0.095920
C42   C     C_R   0.829483 0.361244 0.171591 0.095736
C43   C     C_R   0.343250 0.155739 0.837974 0.136662
C44   C     C_R   0.221882 0.680046 0.224632 0.008075
C45   C     C_R   0.656828 0.844404 0.162124 0.143612
C46   C     C_R   0.829976 0.361174 0.828557 0.100727
C47   C     C_R   0.170112 0.638803 0.171361 0.103163
C48   C     C_R   0.638802 0.170113 0.171361 0.103164
C49   C     C_R   0.361174 0.829976 0.828557 0.100726
C50   C     C_R   0.157223 0.346630 0.165599 0.137988
C51   C     C_R   0.830588 0.639765 0.830161 0.100020
C52   C     C_R   0.361244 0.829483 0.171591 0.095735
C53   C     C_R   0.639631 0.169808 0.828541 0.095919
C54   C     C_R   0.844407 0.656839 0.162119 0.143624
C55   C     C_R   0.778280 0.319835 0.775282 0.008901
C56   C     C_R   0.155738 0.343249 0.837975 0.136662
C57   C     C_R   0.829080 0.170194 0.635907 0.109587
C58   C     C_R   0.170866 0.830017 0.363665 0.109328
C59   C     C_R   0.875929 0.875932 0.303413 0.068598
C60   C     C_R   0.124070 0.124070 0.696626 0.058606
C61   C     C_R   0.172358 0.172358 0.365209 0.069076
C62   C     C_R   0.829457 0.829457 0.638855 0.089607
C63   C     C_R   0.170194 0.829080 0.635906 0.109586
C64   C     C_R   0.830017 0.170866 0.363666 0.109329
C65   C     C_R   0.746766 0.746768 0.195741 0.133722
C66   C     C_R   0.291040 0.196705 0.210490 -0.056856
C67   C     C_R   0.253325 0.253325 0.804389 0.130200
C68   C     C_R   0.291530 0.708346 0.196987 0.091254
C69   C     C_R   0.708863 0.291242 0.803117 0.092279
C70   C     C_R   0.234559 0.234559 0.171063 0.114063
C71   C     C_R   0.710035 0.710035 0.808602 0.085990
C72   C     C_R   0.708345 0.291530 0.196987 0.091255
C73   C     C_R   0.291243 0.708863 0.803117 0.092279
C74   C     C_R   0.194198 0.708448 0.705554 0.090561
C75   C     C_R   0.805605 0.291787 0.294392 0.089758
C76   C     C_R   0.120923 0.213661 0.800210 0.119151
C77   C     C_R   0.681222 0.778022 0.778911 0.007385
C78   C     C_R   0.879176 0.786425 0.199906 0.098386
C79   C     C_R   0.195247 0.289309 0.291542 0.112345
C80   C     C_R   0.804510 0.708566 0.708005 0.092683
C81   C     C_R   0.193280 0.708839 0.293859 0.106153
C82   C     C_R   0.806714 0.291283 0.705856 0.104225
C83   C     C_R   0.708448 0.194198 0.705553 0.090562
C84   C     C_R   0.291787 0.805606 0.294392 0.089758
C85   C     C_R   0.708838 0.193280 0.293859 0.106157
C86   C     C_R   0.291283 0.806714 0.705856 0.104225
C87   C     C_R   0.289309 0.195247 0.291542 0.112345
C88   C     C_R   0.777129 0.320779 0.225246 0.015131
C89   C     C_R   0.708566 0.804510 0.708005 0.092683
C90   C     C_R   0.213662 0.120923 0.800209 0.119150
C91   C     C_R   0.786416 0.879178 0.199911 0.098378
C92   C     C_R   0.617133 0.817201 0.904996 -0.105596
C93   C     C_R   0.377056 0.179185 0.095288 -0.073587
C94   C     C_R   0.183237 0.618349 0.903905 -0.095137
C95   C     C_R   0.816581 0.381794 0.095966 -0.090081
C96   C     C_R   0.371169 0.176534 0.908982 -0.047838
C97   C     C_R   0.628959 0.823563 0.091131 -0.080871
C98   C     C_R   0.816697 0.381751 0.904194 -0.091264
C99   C     C_R   0.222304 0.679899 0.774961 0.010014
C100  C     C_R   0.183304 0.618304 0.095705 -0.099614
C101  C     C_R   0.618304 0.183304 0.095705 -0.099614
C102  C     C_R   0.381751 0.816697 0.904194 -0.091263
C103  C     C_R   0.179185 0.377056 0.095288 -0.073587
C104  C     C_R   0.817201 0.617133 0.904996 -0.105593
C105  C     C_R   0.381794 0.816581 0.095966 -0.090079
C106  C     C_R   0.618349 0.183236 0.903904 -0.095136
C107  C     C_R   0.823567 0.628968 0.091126 -0.080877
C108  C     C_R   0.176534 0.371169 0.908982 -0.047836
C109  C     C_R   0.905109 0.618749 0.816334 -0.102456
C110  C     C_R   0.679899 0.222304 0.774961 0.010015
C111  C     C_R   0.086862 0.373054 0.180491 -0.082342
C112  C     C_R   0.903140 0.184118 0.613436 -0.103812
C113  C     C_R   0.096865 0.815970 0.386371 -0.101781
C114  C     C_R   0.903961 0.383061 0.184472 -0.107031
C115  C     C_R   0.095016 0.618355 0.815914 -0.106557
C116  C     C_R   0.929242 0.841772 0.348746 -0.078794
C117  C     C_R   0.070728 0.158187 0.651284 -0.080933
C118  C     C_R   0.095681 0.616458 0.184469 -0.055512
C119  C     C_R   0.904404 0.383493 0.815523 -0.056923
C120  C     C_R   0.097383 0.184420 0.384754 -0.098792
H1    H     H_    0.616612 0.763938 0.934963 0.130959
H2    H     H_    0.379339 0.763512 0.934468 0.127321
H3    H     H_    0.234829 0.375133 0.069417 0.116580
H4    H     H_    0.763938 0.616611 0.934962 0.130953
H5    H     H_    0.379784 0.763527 0.065863 0.128341
H6    H     H_    0.620063 0.236459 0.933709 0.127758
H7    H     H_    0.772836 0.641306 0.059473 0.116095
H8    H     H_    0.227197 0.359053 0.940894 0.120983
H9    H     H_    0.935156 0.621672 0.762524 0.130120
H10   H     H_    0.054293 0.365578 0.232396 0.120212
H11   H     H_    0.931570 0.238414 0.609936 0.134246
H12   H     H_    0.375133 0.234829 0.069417 0.116580
H13   H     H_    0.068486 0.761655 0.389852 0.134849
H14   H     H_    0.932604 0.383893 0.238705 0.130189
H15   H     H_    0.064673 0.620066 0.762540 0.129743
H16   H     H_    0.962857 0.794002 0.333333 0.122946
H17   H     H_    0.037056 0.205905 0.666755 0.120942
H18   H     H_    0.066106 0.616316 0.238486 0.127713
H19   H     H_    0.934060 0.383553 0.761554 0.126614
H20   H     H_    0.069393 0.238167 0.385542 0.128192
H21   H     H_    0.933300 0.763998 0.619834 0.129444
H22   H     H_    0.059128 0.371007 0.765292 0.118621
H23   H     H_    0.236459 0.620063 0.933709 0.127758
H24   H     H_    0.941038 0.628982 0.234697 0.119443
H25   H     H_    0.063576 0.763618 0.619849 0.129227
H26   H     H_    0.936890 0.236199 0.379421 0.127696
H27   H     H_    0.763998 0.933301 0.619834 0.129444
H28   H     H_    0.238167 0.069393 0.385542 0.128193
H29   H     H_    0.628971 0.941035 0.234699 0.119446
H30   H     H_    0.371008 0.059128 0.765292 0.118622
H31   H     H_    0.236199 0.936890 0.379421 0.127696
H32   H     H_    0.763618 0.063576 0.619849 0.129227
H33   H     H_    0.383554 0.934060 0.761554 0.126614
H34   H     H_    0.763526 0.379784 0.065863 0.128341
H35   H     H_    0.616314 0.066107 0.238487 0.127716
H36   H     H_    0.205906 0.037055 0.666755 0.120942
H37   H     H_    0.794000 0.962858 0.333333 0.122948
H38   H     H_    0.365578 0.054293 0.232396 0.120212
H39   H     H_    0.621672 0.935156 0.762524 0.130120
H40   H     H_    0.761654 0.068487 0.389853 0.134850
H41   H     H_    0.238414 0.931570 0.609936 0.134245
H42   H     H_    0.620066 0.064673 0.762540 0.129743
H43   H     H_    0.383893 0.932604 0.238705 0.130189
H44   H     H_    0.359054 0.227197 0.940894 0.120983
H45   H     H_    0.641332 0.772850 0.059478 0.116090
H46   H     H_    0.763511 0.379339 0.934468 0.127321
H47   H     H_    0.236412 0.620839 0.065301 0.127458
H48   H     H_    0.620839 0.236412 0.065301 0.127458
I1    I     I_    0.660192 0.660191 0.200220 -0.267469
I2    I     I_    0.850673 0.370521 0.376057 -0.287724
I3    I     I_    0.006124 0.215185 0.839136 -0.390400
I4    I     I_    0.994142 0.784831 0.161425 -0.412038
I5    I     I_    0.158594 0.380559 0.361306 -0.292470
I6    I     I_    0.846559 0.628263 0.627543 -0.284410
I7    I     I_    0.149903 0.628101 0.375269 -0.273605
I8    I     I_    0.850291 0.372227 0.624752 -0.273366
I9    I     I_    0.629122 0.148403 0.624863 -0.288384
I10   I     I_    0.370521 0.850673 0.376057 -0.287725
I11   I     I_    0.628100 0.149904 0.375270 -0.273605
I12   I     I_    0.339911 0.339911 0.800176 -0.273918
I13   I     I_    0.372227 0.850291 0.624752 -0.273366
I14   I     I_    0.380560 0.158593 0.361305 -0.292471
I15   I     I_    0.628263 0.846560 0.627543 -0.284410
I16   I     I_    0.215186 0.006125 0.839136 -0.390399
I17   I     I_    0.784819 0.994144 0.161430 -0.412050
I18   I     I_    0.370463 0.628725 0.153366 -0.300164
I19   I     I_    0.629585 0.370913 0.845987 -0.271302
I20   I     I_    0.197279 0.197280 0.059026 -0.381336
I21   I     I_    0.629019 0.629020 0.852041 -0.265793
I22   I     I_    0.628725 0.370463 0.153366 -0.300167
I23   I     I_    0.370914 0.629585 0.845988 -0.271301
I24   I     I_    0.148403 0.629122 0.624863 -0.288384
N1    N     N_R   0.584840 0.879720 0.932190 -0.049900
N2    N     N_R   0.415160 0.879720 0.932190 -0.049234
N3    N     N_R   0.120280 0.415160 0.067810 -0.051626
N4    N     N_R   0.879720 0.584840 0.932190 -0.049900
N5    N     N_R   0.415160 0.879720 0.067810 -0.049364
N6    N     N_R   0.584840 0.120280 0.932190 -0.050585
N7    N     N_R   0.879720 0.584840 0.067810 -0.052478
N8    N     N_R   0.120280 0.415160 0.932190 -0.052882
N9    N     N_R   0.932190 0.584840 0.879720 -0.051128
N10   N     N_R   0.067810 0.415160 0.120280 -0.052785
N11   N     N_R   0.932190 0.120280 0.584840 -0.051272
N12   N     N_R   0.415160 0.120280 0.067810 -0.051626
N13   N     N_R   0.067810 0.879720 0.415160 -0.051298
N14   N     N_R   0.932190 0.415160 0.120280 -0.050039
N15   N     N_R   0.067810 0.584840 0.879720 -0.051323
N16   N     N_R   0.932190 0.879720 0.415160 -0.051027
N17   N     N_R   0.067810 0.120280 0.584840 -0.051325
N18   N     N_R   0.067810 0.584840 0.120280 -0.048894
N19   N     N_R   0.932190 0.415160 0.879720 -0.047449
N20   N     N_R   0.067810 0.120280 0.415160 -0.049437
N21   N     N_R   0.932190 0.879720 0.584840 -0.050313
N22   N     N_R   0.067810 0.415160 0.879720 -0.049172
N23   N     N_R   0.120280 0.584840 0.932190 -0.050585
N24   N     N_R   0.932190 0.584840 0.120280 -0.050688
N25   N     N_R   0.067810 0.879720 0.584840 -0.049795
N26   N     N_R   0.932190 0.120280 0.415160 -0.049784
N27   N     N_R   0.879720 0.932190 0.584840 -0.050313
N28   N     N_R   0.120280 0.067810 0.415160 -0.049437
N29   N     N_R   0.584840 0.932190 0.120280 -0.050688
N30   N     N_R   0.415160 0.067810 0.879720 -0.049172
N31   N     N_R   0.120280 0.932190 0.415160 -0.049784
N32   N     N_R   0.879720 0.067810 0.584840 -0.049795
N33   N     N_R   0.415160 0.932190 0.879720 -0.047449
N34   N     N_R   0.879720 0.415160 0.067810 -0.049364
N35   N     N_R   0.584840 0.067810 0.120280 -0.048893
N36   N     N_R   0.120280 0.067810 0.584840 -0.051325
N37   N     N_R   0.879720 0.932190 0.415160 -0.051026
N38   N     N_R   0.415160 0.067810 0.120280 -0.052785
N39   N     N_R   0.584840 0.932190 0.879720 -0.051128
N40   N     N_R   0.879720 0.067810 0.415160 -0.051298
N41   N     N_R   0.120280 0.932190 0.584840 -0.051272
N42   N     N_R   0.584840 0.067810 0.879720 -0.051323
N43   N     N_R   0.415160 0.932190 0.120280 -0.050039
N44   N     N_R   0.415160 0.120280 0.932190 -0.052882
N45   N     N_R   0.584840 0.879720 0.067810 -0.052476
N46   N     N_R   0.879720 0.415160 0.932190 -0.049235
N47   N     N_R   0.120280 0.584840 0.067810 -0.050483
N48   N     N_R   0.584840 0.120280 0.067810 -0.050483
Ni1   Ni    Ni4+2 0.500000 0.880920 0.000000 0.254180
Ni2   Ni    Ni4+2 0.119080 0.000000 0.500000 0.246062
Ni3   Ni    Ni4+2 0.500000 0.000000 0.119080 0.250725
Ni4   Ni    Ni4+2 0.500000 0.000000 0.880920 0.250302
Ni5   Ni    Ni4+2 0.500000 0.119080 0.000000 0.249054
Ni6   Ni    Ni4+2 0.119080 0.500000 0.000000 0.249054
Ni7   Ni    Ni4+2 0.880920 0.500000 0.000000 0.254175
Ni8   Ni    Ni4+2 0.000000 0.500000 0.880920 0.250302
Ni9   Ni    Ni4+2 0.000000 0.500000 0.119080 0.250726
Ni10  Ni    Ni4+2 0.000000 0.119080 0.500000 0.246062
Ni11  Ni    Ni4+2 1.000000 0.880920 0.500000 0.249075
Ni12  Ni    Ni4+2 0.880920 0.000000 0.500000 0.249075

loop_
_geom_bond_atom_site_label_1
_geom_bond_atom_site_label_2
_ccdc_geom_bond_type
C53   C110  S    
C120  N20   A    
C16   N35   A    
C108  N8    A    
N2    Ni1   S    
C115  N15   A    
C76   I3    S    
N26   Ni10  S    
C79   I5    S    
C2    C84   A    
C3    H21   S    
C32   C58   S    
C40   C93   A    
C30   C90   A    
C103  H3    S    
N15   Ni8   S    
C16   C48   A    
C87   I14   S    
C37   C62   S    
N5    N43   A    
N34   Ni7   S    
N3    N10   A    
C22   H41   S    
N33   Ni4   S    
C32   C81   A    
N30   N44   A    
C94   N23   A    
C8    H27   S    
C54   C107  A    
C15   N33   A    
C100  H47   S    
C9    C61   A    
C94   H23   S    
C81   I7    S    
N2    N33   A    
C14   N32   A    
C25   H43   S    
C2    C68   A    
C67   I12   S    
C10   H29   S    
N35   Ni3   S    
C28   C51   S    
C57   C112  A    
C112  H11   S    
C38   C79   A    
C48   C101  A    
N31   Ni2   S    
C24   C54   S    
N11   Ni10  S    
C26   C73   A    
C11   N30   A    
C100  N47   A    
C6    C63   A    
C31   C59   S    
C27   C85   A    
N14   Ni9   S    
C56   C108  A    
C21   C64   A    
N38   Ni3   S    
C11   H30   S    
C10   N29   A    
C22   C63   A    
C23   N42   A    
C53   C106  A    
C42   C114  A    
C47   C118  A    
N29   N45   A    
C41   C94   A    
C8    C62   A    
N24   Ni9   S    
C20   H39   S    
C30   C60   S    
N46   Ni7   S    
N14   N34   A    
C34   C57   S    
N8    N22   A    
C41   C99   S    
C11   C43   A    
C35   C64   S    
N40   Ni12  S    
N17   N36   A    
C92   H1    S    
C36   C63   S    
C69   I19   S    
N18   Ni9   S    
N12   Ni5   S    
C44   C47   S    
C70   I20   S    
N17   Ni10  S    
C106  N6    A    
C7    H26   S    
C12   C58   A    
C105  N5    A    
C46   C98   A    
C68   I18   S    
C50   C103  A    
C51   C109  A    
C20   N39   A    
C113  H13   S    
C4    C56   A    
C101  N48   A    
N45   Ni1   S    
C7    N26   A    
C12   H31   S    
C21   N40   A    
C103  N3    A    
C41   C115  A    
C102  N2    A    
C111  N10   A    
C72   I22   S    
C72   C88   A    
N29   Ni3   S    
C23   C53   A    
C29   C50   S    
N21   N27   A    
C32   C84   A    
C37   C80   A    
C83   C110  A    
C4    N22   A    
C22   N41   A    
C83   I9    S    
C42   C95   A    
C33   C43   S    
C5    C54   A    
C98   H46   S    
C104  H4    S    
C44   C81   A    
N6    N42   A    
C26   C49   S    
N25   N41   A    
C49   C102  A    
C6    H25   S    
N30   Ni4   S    
C59   C116  A    
C5    H24   S    
C26   C86   A    
N20   N28   A    
C36   C86   A    
C51   C104  A    
C5    N24   A    
N28   Ni2   S    
C17   N36   A    
N13   N31   A    
C108  H8    S    
C47   C100  A    
C96   H44   S    
C65   I1    S    
N16   Ni11  S    
C113  N13   A    
N19   Ni8   S    
C46   C55   S    
C101  H48   S    
C12   N31   A    
N13   Ni11  S    
C58   C113  A    
C6    N25   A    
C30   C76   A    
C69   C110  A    
C18   C59   A    
C111  H10   S    
C1    C65   A    
N7    N24   A    
C29   C79   A    
C13   C76   A    
C85   I11   S    
C4    H22   S    
N5    Ni1   S    
C8    N27   A    
C16   H35   S    
N15   N23   A    
C43   C96   A    
C96   N44   A    
N19   N46   A    
C60   C117  A    
C73   I23   S    
N3    Ni6   S    
C71   I21   S    
C55   C82   A    
C84   I10   S    
C93   N12   A    
N43   Ni3   S    
C55   C69   A    
C75   I2    S    
C2    C52   S    
N6    Ni5   S    
C120  H20   S    
C24   C65   A    
C9    N28   A    
C24   C78   A    
C82   I8    S    
C52   C105  A    
C92   N1    A    
C31   C91   A    
N27   Ni12  S    
N47   Ni6   S    
N4    Ni7   S    
C109  H9    S    
N48   Ni5   S    
C21   H40   S    
C74   I24   S    
C19   H38   S    
C44   C68   A    
C28   C71   A    
C42   C88   S    
C34   C83   A    
N1    N39   A    
N8    Ni6   S    
C93   H12   S    
C89   I15   S    
C39   C92   A    
C71   C77   A    
C33   C67   A    
C31   C78   A    
C29   C70   A    
C13   C67   A    
C3    C62   A    
C73   C99   A    
C14   C57   A    
C36   C74   A    
C25   N43   A    
C34   C82   A    
C77   C89   A    
N1    Ni1   S    
N44   Ni5   S    
C117  H17   S    
C35   C75   A    
C90   I16   S    
C18   N37   A    
N42   Ni4   S    
N22   Ni8   S    
C38   C61   S    
C74   C99   A    
C116  H16   S    
N7    Ni7   S    
C3    N21   A    
C97   N45   A    
C106  H6    S    
C9    H28   S    
C119  N19   A    
C105  H5    S    
C38   C87   A    
C118  N18   A    
C95   H34   S    
C119  H19   S    
N18   N47   A    
C13   C56   S    
C117  N17   A    
N39   Ni4   S    
C20   C39   A    
C25   C52   A    
C107  H7    S    
C18   H37   S    
C45   C97   A    
C33   C90   A    
C107  N7    A    
N4    N9    A    
C35   C85   A    
C1    C45   S    
C15   H33   S    
C66   C70   A    
C115  H15   S    
C66   C87   A    
N41   Ni2   S    
C97   H45   S    
N35   N48   A    
C109  N9    A    
C50   C111  A    
C114  H14   S    
C37   C89   A    
C46   C119  A    
N21   Ni11  S    
C15   C49   A    
C27   C48   S    
N12   N38   A    
N26   N40   A    
C28   C80   A    
C19   N38   A    
C7    C64   A    
C95   N34   A    
N37   Ni12  S    
C19   C40   A    
N32   Ni12  S    
C17   C60   A    
C80   I6    S    
C86   I13   S    
C114  N14   A    
C75   C88   A    
N10   Ni9   S    
N36   Ni2   S    
C116  N16   A    
N23   Ni6   S    
C39   C77   S    
N11   N32   A    
C1    C91   A    
C10   C45   A    
C14   H32   S    
N9    Ni8   S    
C102  H2    S    
C98   N46   A    
C40   C66   S    
N25   Ni11  S    
C112  N11   A    
C91   I17   S    
C78   I4    S    
C118  H18   S    
C17   H36   S    
N20   Ni10  S    
C23   H42   S    
C27   C72   A    
N16   N37   A    
C104  N4    A    
C61   C120  A    
