data_mof_unit_3532.cif
_audit_creation_date              2012-12-10T16:51:28-0500
_audit_creation_method            fapswitch 2.2
_symmetry_space_group_name_H-M    P1
_symmetry_Int_Tables_number       1
_space_group_crystal_system       triclinic
_cell_length_a                    7.820956
_cell_length_b                    8.577612
_cell_length_c                    12.118203
_cell_angle_alpha                 92.369795
_cell_angle_beta                  101.179696
_cell_angle_gamma                 94.091272
_cell_volume                      794.226284887

loop_
_atom_site_label
_atom_site_type_symbol
_atom_type_description
_atom_site_fract_x
_atom_site_fract_y
_atom_site_fract_z
_atom_type_partial_charge
C1    C     C_R   0.041413 0.794089 0.492209 0.990591
C2    C     C_R   0.395738 0.483227 0.990024 0.078808
C3    C     C_R   0.310434 0.433119 0.880026 0.076977
C4    C     C_R   0.568340 0.442970 0.027081 0.080932
C5    C     C_R   0.641840 0.332433 0.963195 0.164865
C6    C     C_R   0.544350 0.266667 0.861447 -0.237525
C7    C     C_R   0.380494 0.316627 0.819972 -0.200013
C8    C     C_R   0.671145 0.512538 0.125379 -0.260002
C9    C     C_R   0.903152 0.346596 0.108673 -0.172938
C10   C     C_R   0.158951 0.503893 0.831951 -0.117534
C11   C     C_2   0.061225 0.957757 0.490814 -0.458536
C12   C     C_R   0.105990 0.503637 0.710284 0.847348
C13   C     C_2   0.920224 0.041869 0.478930 0.092635
C14   C     C_R   0.953068 0.205150 0.497716 0.894988
C15   C     C_R   0.892348 0.488231 0.289710 0.875715
C16   C     C_R   0.810741 0.287486 0.003475 -0.179727
C17   C     C_R   0.829789 0.456504 0.170259 -0.068773
C18   C     C_R   0.072594 0.594505 0.899554 -0.182554
C19   C     C_R   0.143480 0.624312 0.013149 -0.126183
C20   C     C_R   0.305367 0.572241 0.058152 -0.188946
H1    H     H_    0.027014 0.301839 0.143728 0.162062
H2    H     H_    0.469929 0.375028 0.416489 0.206518
H3    H     H_    0.530081 0.624976 0.583505 0.205034
H4    H     H_    0.595947 0.178838 0.812920 0.156607
H5    H     H_    0.867683 0.202206 0.956065 0.138846
H6    H     H_    0.626992 0.606329 0.172174 0.165459
H7    H     H_    0.953507 0.646615 0.863838 0.160271
H8    H     H_    0.354579 0.599927 0.146802 0.152692
H9    H     H_    0.075963 0.692848 0.065623 0.152134
H10   H     H_    0.308394 0.262006 0.740917 0.168173
H11   H     H_    0.195015 0.010485 0.511835 0.176920
N1    N     N_2   0.434800 0.456690 0.470850 -0.162902
N2    N     N_2   0.565200 0.543310 0.529150 -0.149521
O1    O     O_R   0.893060 0.738880 0.507150 -0.561855
O2    O     O_R   0.172250 0.711130 0.488470 -0.611980
O3    O     O_R   0.944700 0.520730 0.667600 -0.616624
O4    O     O_R   0.223890 0.492980 0.648920 -0.619218
O5    O     O_R   0.827750 0.288870 0.511530 -0.590721
O6    O     O_R   0.106940 0.261120 0.492850 -0.637956
O7    O     O_R   0.776110 0.507020 0.351080 -0.605253
O8    O     O_R   0.055300 0.479270 0.332400 -0.622575
Zn1   Zn    Zn3+2 0.813580 0.518530 0.512470 0.987994
Zn2   Zn    Zn3+2 0.186420 0.481470 0.487530 0.955101
Br1   Br    Br    0.677067 0.965933 0.422880 -0.519332

loop_
_geom_bond_atom_site_label_1
_geom_bond_atom_site_label_2
_ccdc_geom_bond_type
O4    Zn2   S    
C2    C4    A    
C6    C7    A    
C14   O5    A    
C8    H6    S    
H2    N1    S    
O3    Zn1   S    
C19   C20   A    
O1    Zn1   S    
C4    C8    A    
C6    H4    S    
N1    N2    D    
O7    Zn1   S    
C2    C3    A    
C11   H11   S    
C3    C10   A    
C13   C14   S    
O8    Zn2   S    
C9    H1    S    
C10   C12   S    
C10   C18   A    
N2    Zn1   S    
C9    C17   A    
C9    C16   A    
C1    O1    A    
O5    Zn1   S    
C3    C7    A    
C5    C6    A    
C15   O7    A    
C12   O3    A    
C15   O8    A    
C2    C20   A    
C19   H9    S    
C11   C13   D    
O2    Zn2   S    
C1    O2    A    
C15   C17   S    
C18   C19   A    
C12   O4    A    
C16   H5    S    
C7    H10   S    
C5    C16   A    
O6    Zn2   S    
C20   H8    S    
C14   O6    A    
N1    Zn2   S    
C13   Br1   S    
C18   H7    S    
C8    C17   A    
C4    C5    A    
H3    N2    S    
C1    C11   S    
