data_mof_unit_2109.cif
_audit_creation_date              2012-12-10T17:01:35-0500
_audit_creation_method            fapswitch 2.2
_symmetry_space_group_name_H-M    P1
_symmetry_Int_Tables_number       1
_space_group_crystal_system       triclinic
_cell_length_a                    12.824928
_cell_length_b                    10.661375
_cell_length_c                    10.12234
_cell_angle_alpha                 88.02629
_cell_angle_beta                  98.129953
_cell_angle_gamma                 91.388868
_cell_volume                      1369.0563368

loop_
_atom_site_label
_atom_site_type_symbol
_atom_type_description
_atom_site_fract_x
_atom_site_fract_y
_atom_site_fract_z
_atom_type_partial_charge
C1    C     C_R   0.493691 0.262717 0.500888 0.935013
C2    C     C_2   0.473381 0.130844 0.503237 -0.338597
C3    C     C_2   0.562164 0.569224 0.935833 0.081452
C4    C     C_R   0.298330 0.499026 0.472760 0.877173
C5    C     C_2   0.536118 0.591464 0.074141 0.079714
C6    C     C_R   0.500369 0.737235 0.498187 0.914173
C7    C     C_R   0.701680 0.499636 0.526996 0.864781
C8    C     C_R   0.814219 0.494405 0.543091 -0.046121
C9    C     C_R   0.185669 0.499938 0.454967 -0.044096
C10   C     C_R   0.022027 0.575405 0.337509 -0.224588
C11   C     C_R   0.129610 0.560782 0.343305 -0.206740
C12   C     C_R   0.027998 0.462537 0.552967 0.186522
C13   C     C_R   0.134817 0.448104 0.557507 -0.278307
C14   C     C_3   0.659204 0.634007 0.893860 -0.335548
C15   C     C_3   0.757121 0.556623 0.942502 -0.355204
C16   C     C_3   0.857310 0.625062 0.912149 -0.897478
C17   C     C_3   0.545082 0.726214 0.118155 -0.312472
C18   C     C_3   0.653224 0.759110 0.198712 -0.306856
C19   C     C_3   0.673544 0.900685 0.201098 -0.927656
C20   C     C_R   0.971526 0.528446 0.443114 0.191605
C21   C     C_R   0.865229 0.545607 0.440280 -0.284361
C22   C     C_R   0.869434 0.427646 0.651024 -0.204160
C23   C     C_R   0.976976 0.413008 0.656934 -0.222174
C24   C     C_2   0.447513 0.933320 0.393735 -0.174799
C25   C     C_2   0.502996 0.869904 0.494591 -0.308661
C26   C     C_2   0.452272 0.068888 0.389830 -0.163467
H1    H     H_    0.821674 0.596297 0.356294 0.139171
H2    H     H_    0.402435 0.885663 0.310503 0.152768
H3    H     H_    0.551531 0.914494 0.577064 0.137686
H4    H     H_    0.441945 0.117074 0.292659 0.169795
H5    H     H_    0.851967 0.648908 0.803778 0.275338
H6    H     H_    0.869610 0.712749 0.968975 0.254625
H7    H     H_    0.926119 0.563996 0.942071 0.255223
H8    H     H_    0.763777 0.537452 0.051961 0.212101
H9    H     H_    0.749564 0.464757 0.893586 0.232460
H10   H     H_    0.650800 0.651022 0.785490 0.248666
H11   H     H_    0.670373 0.729849 0.932473 0.174829
H12   H     H_    0.473202 0.084824 0.600583 0.152791
H13   H     H_    0.678263 0.938898 0.098577 0.256341
H14   H     H_    0.609742 0.948102 0.242028 0.282787
H15   H     H_    0.749448 0.921171 0.264818 0.254644
H16   H     H_    0.659293 0.722003 0.302482 0.252037
H17   H     H_    0.718126 0.716547 0.155609 0.204596
H18   H     H_    0.532414 0.788895 0.027480 0.159643
H19   H     H_    0.478034 0.749254 0.169382 0.206281
H20   H     H_    0.434432 0.464342 0.886121 0.146742
H21   H     H_    0.497767 0.413533 0.107961 0.148274
H22   H     H_    0.829129 0.383348 0.727648 0.155772
H23   H     H_    0.978860 0.624856 0.252328 0.142852
H24   H     H_    0.019658 0.361343 0.740812 0.139205
H25   H     H_    0.169463 0.601102 0.263897 0.155960
H26   H     H_    0.178943 0.399033 0.642423 0.151126
N1    N     N_2   0.501130 0.501330 0.852280 -0.218725
N2    N     N_2   0.501160 0.501360 0.147950 -0.218013
O1    O     O_R   0.499980 0.319060 0.613040 -0.617375
O2    O     O_R   0.500020 0.319100 0.386900 -0.611031
O3    O     O_R   0.346340 0.499960 0.594380 -0.615527
O4    O     O_R   0.346380 0.500000 0.368250 -0.619929
O5    O     O_R   0.499980 0.680900 0.613100 -0.626565
O6    O     O_R   0.500020 0.680940 0.386960 -0.625459
O7    O     O_R   0.653620 0.500000 0.631750 -0.631345
O8    O     O_R   0.653660 0.500040 0.405620 -0.617808
Zn1   Zn    Zn3+2 0.499980 0.499970 0.650990 0.919432
Zn2   Zn    Zn3+2 0.500020 0.500030 0.349010 0.921486

loop_
_geom_bond_atom_site_label_1
_geom_bond_atom_site_label_2
_ccdc_geom_bond_type
C4    O3    A    
C8    C22   A    
O2    Zn2   S    
C7    O8    A    
O3    Zn1   S    
C10   C20   A    
C16   H7    S    
C16   H6    S    
C13   H26   S    
C9    C11   A    
C2    H12   S    
C15   H8    S    
O5    Zn1   S    
C4    C9    S    
O6    Zn2   S    
C12   C20   A    
C17   C18   S    
C21   H1    S    
C17   H18   S    
C7    C8    S    
C2    C26   D    
O1    Zn1   S    
C18   H17   S    
C12   C13   A    
C16   H5    S    
C14   H10   S    
C3    N1    D    
C12   C23   A    
C3    C14   S    
C19   H13   S    
H21   N2    S    
H20   N1    S    
C15   H9    S    
C1    O2    A    
C17   H19   S    
C22   H22   S    
C26   H4    S    
C18   H16   S    
C25   H3    S    
C1    O1    A    
C6    C25   S    
C5    C17   S    
C10   C11   A    
C15   C16   S    
C6    O6    A    
C5    N2    D    
C11   H25   S    
C24   C25   D    
N2    Zn2   S    
C24   H2    S    
C1    C2    S    
C19   H14   S    
C4    O4    A    
O7    Zn1   S    
C18   C19   S    
C9    C13   A    
C14   C15   S    
N1    Zn1   S    
C23   H24   S    
O8    Zn2   S    
O4    Zn2   S    
C3    C5    S    
C20   C21   A    
C22   C23   A    
C10   H23   S    
C6    O5    A    
C7    O7    A    
C19   H15   S    
C24   C26   S    
C14   H11   S    
C8    C21   A    
