data_mof_unit_2659.cif
_audit_creation_date              2012-10-26T18:28:57-0400
_audit_creation_method            fapswitch 2.2
_symmetry_space_group_name_H-M    P1
_symmetry_Int_Tables_number       1
_space_group_crystal_system       triclinic
_cell_length_a                    11.694291
_cell_length_b                    12.992282
_cell_length_c                    15.851814
_cell_angle_alpha                 92.837098
_cell_angle_beta                  75.028112
_cell_angle_gamma                 100.622356
_cell_volume                      2286.81736575

loop_
_atom_site_label
_atom_site_type_symbol
_atom_type_description
_atom_site_fract_x
_atom_site_fract_y
_atom_site_fract_z
_atom_type_partial_charge
C1    C     C_R   0.522372 0.701106 0.499749 0.578971
C2    C     C_R   0.339047 0.012814 0.535210 -0.104085
C3    C     C_R   0.652766 0.878547 0.471413 0.283247
C4    C     C_R   0.347230 0.121456 0.528572 0.283317
C5    C     C_R   0.434054 0.860560 0.518827 -0.158591
C6    C     C_R   0.565945 0.139439 0.481164 -0.158604
C7    C     C_R   0.442952 0.968193 0.513652 -0.004330
C8    C     C_R   0.557045 0.031807 0.486335 -0.004344
C9    C     C_R   0.944782 0.596070 0.582171 -0.132897
C10   C     C_R   0.055217 0.403927 0.417830 -0.132884
C11   C     C_R   0.826179 0.587390 0.574801 0.406235
C12   C     C_R   0.477628 0.298895 0.500248 0.578981
C13   C     C_R   0.173817 0.412602 0.425205 0.406257
C14   C     C_R   0.857817 0.458356 0.464368 0.019513
C15   C     C_R   0.142185 0.541648 0.535629 0.019505
C16   C     C_R   0.427548 0.490668 0.667693 0.584126
C17   C     C_R   0.572452 0.509332 0.332307 0.584124
C18   C     C_R   0.978043 0.465136 0.470173 -0.040899
C19   C     C_R   0.021959 0.534866 0.529824 -0.040899
C20   C     C_R   0.385358 0.480771 0.763123 -0.014094
C21   C     C_R   0.614640 0.519227 0.236877 -0.014107
C22   C     C_R   0.224499 0.474690 0.896298 0.257568
C23   C     C_R   0.355865 0.473646 0.085508 -0.093674
C24   C     C_R   0.775496 0.525304 0.103702 0.257555
C25   C     C_R   0.266042 0.487191 0.805411 -0.157860
C26   C     C_R   0.733957 0.512808 0.194588 -0.157807
C27   C     C_R   0.464166 0.464107 0.812631 0.211312
C28   C     C_R   0.535831 0.535888 0.187369 0.211296
C29   C     C_R   0.432954 0.481518 0.903488 0.008231
C30   C     C_R   0.567043 0.518476 0.096512 0.008239
C31   C     C_R   0.309273 0.476680 0.945818 0.030835
C32   C     C_R   0.690723 0.523314 0.054181 0.030816
C33   C     C_R   0.519651 0.500551 0.953757 0.049399
C34   C     C_R   0.644132 0.526347 0.914492 -0.093670
C35   C     C_R   0.480346 0.499443 0.046243 0.049399
C36   C     C_3   0.031099 0.390912 0.902021 -0.077355
C37   C     C_3   0.968855 0.609206 0.097903 -0.077380
C38   C     C_3   0.156281 0.122309 0.513517 -0.085267
C39   C     C_3   0.843624 0.877594 0.486572 -0.085253
C40   C     C_R   0.271951 0.468463 0.036737 -0.107576
C41   C     C_R   0.728046 0.531531 0.963262 -0.107612
C42   C     C_R   0.462431 0.184836 0.503054 0.039792
C43   C     C_R   0.537569 0.815164 0.496938 0.039762
C44   C     C_R   0.660949 0.987186 0.464773 -0.104046
Cl1   Cl    Cl    0.263427 0.332123 0.356303 -0.596666
Cl2   Cl    Cl    0.736558 0.667843 0.643725 -0.596829
Cl3   Cl    Cl    0.421245 0.610107 0.233983 -0.584967
Cl4   Cl    Cl    0.578751 0.389888 0.766016 -0.584967
Cu1   Cu    Cu3+1 0.386820 0.492450 0.493500 1.077542
Cu2   Cu    Cu3+1 0.613180 0.507550 0.506500 1.077521
H1    H     H_    0.177349 0.455462 0.070607 0.171033
H2    H     H_    0.345877 0.811829 0.539686 0.125006
H3    H     H_    0.747882 0.036706 0.441350 0.105438
H4    H     H_    0.252116 0.963290 0.558627 0.105374
H5    H     H_    0.176152 0.595250 0.581645 0.112545
H6    H     H_    0.823851 0.404756 0.418350 0.112553
H7    H     H_    0.070292 0.318040 0.887521 0.119757
H8    H     H_    0.013678 0.419666 0.842499 0.120404
H9    H     H_    0.942835 0.369850 0.950018 0.184829
H10   H     H_    0.986221 0.580633 0.157514 0.120416
H11   H     H_    0.929657 0.682091 0.112231 0.119766
H12   H     H_    0.822648 0.544534 0.929394 0.170962
H13   H     H_    0.057147 0.630179 0.049922 0.184828
H14   H     H_    0.102422 0.049771 0.547651 0.094647
H15   H     H_    0.194142 0.106185 0.443060 0.148512
H16   H     H_    0.093900 0.178103 0.516955 0.159253
H17   H     H_    0.805669 0.893483 0.557040 0.148723
H18   H     H_    0.897428 0.950234 0.452623 0.094558
H19   H     H_    0.906073 0.821849 0.483032 0.159196
H20   H     H_    0.976194 0.650596 0.628767 0.117858
H21   H     H_    0.023803 0.349396 0.371239 0.117873
H22   H     H_    0.795798 0.501835 0.232340 0.134970
H23   H     H_    0.204206 0.498167 0.767656 0.134925
H24   H     H_    0.321418 0.456804 0.154353 0.199733
H25   H     H_    0.678579 0.543189 0.845647 0.199743
H26   H     H_    0.654121 0.188171 0.460307 0.125006
N1    N     N_R   0.216750 0.481110 0.483710 -0.210121
N2    N     N_R   0.783250 0.518890 0.516290 -0.210112
O1    O     O_R   0.419950 0.645670 0.495380 -0.527657
O2    O     O_3   0.896094 0.529568 0.061515 -0.552715
O3    O     O_3   0.245918 0.168084 0.555800 -0.536816
O4    O     O_3   0.754084 0.831932 0.444175 -0.536867
O5    O     O_R   0.580050 0.354330 0.504620 -0.527665
O6    O     O_R   0.611110 0.658410 0.506370 -0.415599
O7    O     O_R   0.388890 0.341590 0.493630 -0.415548
O8    O     O_R   0.350820 0.490050 0.621260 -0.540049
O9    O     O_R   0.649180 0.509950 0.378740 -0.540044
O10   O     O_R   0.541970 0.502800 0.632250 -0.399423
O11   O     O_R   0.458030 0.497200 0.367750 -0.399445
O12   O     O_3   0.103899 0.470422 0.938495 -0.552724

loop_
_geom_bond_atom_site_label_1
_geom_bond_atom_site_label_2
_ccdc_geom_bond_type
C27   Cl4   S    
C14   H6    S    
C21   C26   A    
C28   Cl3   S    
C27   C29   A    
C26   H22   S    
C39   H18   S    
C14   C18   A    
C2    C7    A    
C36   H9    S    
Cu2   O6    S    
C7    C8    A    
C1    O6    A    
C15   C19   A    
C3    C43   A    
C12   O7    A    
C24   C26   A    
C36   H8    S    
C20   C25   A    
C23   C40   A    
C29   C33   A    
C31   C40   A    
C18   C19   A    
C12   C42   S    
C44   H3    S    
C1    C43   S    
C4    O3    S    
C38   H16   S    
C9    C19   A    
C22   C25   A    
C32   C41   A    
C5    H2    S    
Cu2   O10   S    
C34   H25   S    
C10   H21   S    
C5    C43   A    
C16   O8    A    
C34   C41   A    
C41   H12   S    
Cu2   N2    S    
C37   H13   S    
C24   O2    S    
Cu2   O5    S    
C38   H14   S    
C39   H19   S    
C37   O2    S    
C13   N1    A    
C3    C44   A    
C22   C31   A    
Cu1   O7    S    
C17   O11   A    
C9    H20   S    
C36   H7    S    
C2    H4    S    
C5    C7    A    
C6    C8    A    
C17   C21   S    
Cu1   O1    S    
C12   O5    A    
C15   H5    S    
C2    C4    A    
C24   C32   A    
C11   N2    A    
C38   H15   S    
C16   C20   S    
C3    O4    S    
C33   C34   A    
C22   O12   S    
C9    C11   A    
Cu2   O9    S    
C30   C35   A    
C21   C28   A    
C23   C35   A    
C38   O3    S    
C1    O1    A    
C23   H24   S    
C13   Cl1   S    
C36   O12   S    
C17   O9    A    
C39   H17   S    
Cu1   O8    S    
C8    C44   A    
C39   O4    S    
Cu1   O11   S    
C10   C13   A    
C37   H11   S    
C6    H26   S    
C20   C27   A    
C40   H1    S    
C28   C30   A    
C29   C31   A    
C30   C32   A    
C15   N1    A    
C4    C42   A    
C10   C18   A    
C33   C35   A    
Cu1   N1    S    
C25   H23   S    
C14   N2    A    
C37   H10   S    
Cu1   Cu2   S    
C6    C42   A    
C16   O10   A    
C11   Cl2   S    
