data_mof_unit_3943.cif
_audit_creation_date              2012-12-11T17:05:28-0500
_audit_creation_method            fapswitch 2.2
_symmetry_space_group_name_H-M    P1
_symmetry_Int_Tables_number       1
_space_group_crystal_system       triclinic
_cell_length_a                    6.968638
_cell_length_b                    14.552296
_cell_length_c                    15.989433
_cell_angle_alpha                 90.18842
_cell_angle_beta                  90.023101
_cell_angle_gamma                 89.935993
_cell_volume                      1621.47342117

loop_
_atom_site_label
_atom_site_type_symbol
_atom_type_description
_atom_site_fract_x
_atom_site_fract_y
_atom_site_fract_z
_atom_type_partial_charge
O1    O     O_R   0.494380 0.415640 0.412830 -0.518200
O2    O     O_R   0.823960 0.405540 0.586560 -0.550499
O3    O     O_R   0.994270 0.584360 0.587170 -0.537794
C1    C     C_R   0.655327 0.383810 0.615398 0.699492
O4    O     O_R   0.824090 0.404620 0.413450 -0.548129
O5    O     O_R   0.994400 0.583430 0.412820 -0.525870
C2    C     C_R   0.655197 0.382775 0.384276 0.762442
O6    O     O_R   0.494250 0.416570 0.587180 -0.540873
O7    O     O_3   0.660800 0.558670 0.500000 -0.369845
V1    V     V_3+5 0.935650 0.489120 0.500000 1.496765
O8    O     O_R   0.324110 0.594460 0.413440 -0.530615
C3    C     C_R   0.155140 0.616543 0.384764 0.813977
O9    O     O_R   0.323980 0.595380 0.586550 -0.551158
C4    C     C_R   0.154983 0.616524 0.616186 0.764684
V2    V     V_3+5 0.435660 0.510880 0.500000 1.516512
O10   O     O_3   0.160640 0.441330 0.500000 -0.379862
C5    C     C_3   0.933459 0.693367 0.721778 -0.305082
H1    H     H_    0.835259 0.717303 0.671473 0.153863
H2    H     H_    0.880233 0.624342 0.740216 0.211039
C6    C     C_3   0.920918 0.761285 0.796256 0.264076
H3    H     H_    0.814777 0.815661 0.780097 0.092431
H4    H     H_    0.077274 0.906906 0.713306 0.240480
C7    C     C_3   0.207846 0.782877 0.658369 0.076475
C8    C     C_3   0.277367 0.657484 0.761625 0.105013
C9    C     C_3   0.142847 0.685673 0.687658 -0.075124
H5    H     H_    0.427955 0.654323 0.738545 0.114301
C10   C     C_3   0.120423 0.806972 0.813064 -0.122775
C11   C     C_3   0.185117 0.854005 0.730601 -0.383005
C12   C     C_3   0.268088 0.729953 0.833482 -0.260222
H6    H     H_    0.231531 0.696956 0.893971 0.248752
H7    H     H_    0.412875 0.760836 0.841795 0.167899
H8    H     H_    0.362052 0.779666 0.640424 0.126626
H9    H     H_    0.324002 0.890224 0.740299 0.178351
C13   C     C_R   0.270984 0.748587 0.186190 0.080128
C14   C     C_R   0.118328 0.810892 0.179658 -0.128777
C15   C     C_R   0.968618 0.802815 0.238396 -0.109219
H10   H     H_    0.846950 0.848839 0.235630 0.116568
C16   C     C_R   0.980822 0.739649 0.304901 -0.098904
H11   H     H_    0.867413 0.738353 0.351050 0.145237
C17   C     C_R   0.142822 0.682543 0.314532 -0.131322
C18   C     C_R   0.283011 0.685968 0.251797 0.106304
C19   C     C_3   0.495211 0.697178 0.258698 0.077048
C20   C     C_3   0.481627 0.765520 0.186222 0.198890
H12   H     H_    0.536419 0.730135 0.318844 0.049632
H13   H     H_    0.516900 0.837308 0.204415 0.026801
C21   C     C_R   0.493602 0.251751 0.687407 0.049213
C22   C     C_R   0.647299 0.313267 0.681679 -0.092716
C23   C     C_R   0.797598 0.303568 0.739916 -0.117248
H14   H     H_    0.919544 0.349324 0.737747 0.146828
C24   C     C_R   0.785522 0.238935 0.805150 -0.070731
H15   H     H_    0.899235 0.236240 0.851131 0.139751
C25   C     C_R   0.623274 0.182009 0.813742 -0.144294
C26   C     C_R   0.481944 0.187646 0.751740 0.126134
C27   C     C_3   0.271020 0.201308 0.760440 0.224903
C28   C     C_3   0.283615 0.270784 0.689792 -0.424907
H16   H     H_    0.230511 0.231657 0.821799 0.098284
H17   H     H_    0.252223 0.342303 0.710112 0.177998
H18   H     H_    0.210672 0.249146 0.631110 0.209577
C29   C     C_R   0.481771 0.258944 0.303861 0.025649
C30   C     C_R   0.645524 0.312661 0.316644 -0.063607
C31   C     C_R   0.799072 0.299177 0.261313 -0.117042
H19   H     H_    0.921353 0.343322 0.265841 0.191102
C32   C     C_R   0.788559 0.234693 0.195563 -0.148783
H20   H     H_    0.906157 0.229830 0.151756 0.140304
C33   C     C_R   0.622314 0.181668 0.182817 -0.067250
C34   C     C_R   0.471645 0.193249 0.239880 0.037529
C35   C     C_3   0.268185 0.216359 0.221202 -0.433821
C36   C     C_3   0.281504 0.290313 0.288109 0.239347
H21   H     H_    0.170573 0.159119 0.238455 0.132439
H22   H     H_    0.248906 0.242934 0.156594 0.215249
H23   H     H_    0.186105 0.278806 0.342757 0.074338
O11   O     O_R   0.771490 0.080820 0.910070 -0.532872
O12   O     O_R   0.441590 0.092730 0.083780 -0.547337
O13   O     O_R   0.271350 0.913900 0.084390 -0.542247
C37   C     C_R   0.610458 0.115019 0.112551 0.667046
O14   O     O_R   0.441780 0.091820 0.910670 -0.537216
O15   O     O_R   0.271540 0.912980 0.910040 -0.535766
C38   C     C_R   0.610762 0.114492 0.882566 0.717244
O16   O     O_R   0.771300 0.081740 0.084420 -0.556287
O17   O     O_3   0.604960 0.938700 0.997240 -0.339699
V3    V     V_3+5 0.330090 0.008230 0.997220 1.499107
O18   O     O_R   0.941820 0.901930 0.910640 -0.517495
C39   C     C_R   0.110701 0.878298 0.882931 0.790218
O19   O     O_R   0.941630 0.902840 0.083750 -0.520312
C40   C     C_R   0.110433 0.880909 0.112574 0.730706
V4    V     V_3+5 0.830090 0.986410 0.997190 1.557554
O20   O     O_3   0.105080 0.055990 0.997200 -0.383343
Br1   Br    Br    0.628873 0.581919 0.236773 -0.335672
Cl1   Cl    Cl    0.586603 0.730415 0.089197 -0.445845
Cl2   Cl    Cl    0.142220 0.100110 0.732231 -0.675185
Cl3   Cl    Cl    0.828382 0.703442 0.886874 -0.539086
Cl4   Cl    Cl    0.272951 0.403848 0.244495 -0.571435
Br2   Br    Br    0.071858 0.824456 0.558297 -0.583381
Br3   Br    Br    0.221806 0.534458 0.803952 -0.513458

loop_
_geom_bond_atom_site_label_1
_geom_bond_atom_site_label_2
_ccdc_geom_bond_type
C32   C33   A    
C10   C12   S    
C18   C19   S    
C14   C15   A    
C1    O6    A    
C26   C27   S    
C20   Cl1   S    
O14   C38   A    
C15   H10   S    
C8    H5    S    
C27   Cl2   S    
C29   C34   A    
O5    C3    A    
C16   H11   S    
O15   C39   A    
V2    O10   S    
C5    C6    S    
C13   C14   A    
C31   C32   A    
C8    C12   S    
O17   V4    S    
C36   Cl4   S    
C27   C28   S    
O8    V2    S    
C21   C28   S    
C24   C25   A    
O1    V2    S    
O7    V1    S    
C23   C24   A    
C34   C35   S    
C29   C30   A    
C4    C9    S    
H4    C11   S    
O9    C4    A    
O12   C37   A    
C13   C18   A    
C19   H12   S    
C25   C38   S    
O12   V3    S    
C24   H15   S    
C6    Cl3   S    
C27   H16   S    
C35   C36   S    
O19   C40   A    
O4    C2    A    
V4    O20   S    
O18   V4    S    
C7    Br2   S    
C30   C31   A    
C35   H21   S    
C3    C17   S    
O2    C1    A    
C12   H6    S    
C8    Br3   S    
C29   C36   S    
C22   C23   A    
O15   V3    S    
C5    H1    S    
C7    C11   S    
C8    C9    S    
C20   H13   S    
V3    O20   S    
O3    C4    A    
C17   C18   A    
C11   H9    S    
O18   C39   A    
O6    V2    S    
O9    V2    S    
C19   Br1   S    
C19   C20   S    
O13   V3    S    
C15   C16   A    
O2    V1    S    
C2    C30   S    
C25   C26   A    
C21   C22   A    
C23   H14   S    
O1    C2    A    
C13   C20   S    
O19   V4    S    
O17   V3    S    
O14   V3    S    
O5    V1    S    
O11   V4    S    
O8    C3    A    
C6    C10   S    
C33   C37   S    
C35   H22   S    
C5    C9    S    
C7    H8    S    
C28   H17   S    
O7    V2    S    
O4    V1    S    
C12   H7    S    
O3    V1    S    
V1    O10   S    
C16   C17   A    
C14   C40   S    
C36   H23   S    
C21   C26   A    
C10   C39   S    
C5    H2    S    
C7    C9    S    
O13   C40   A    
C31   H19   S    
C32   H20   S    
C6    H3    S    
C33   C34   A    
C28   H18   S    
O11   C38   A    
C10   C11   S    
C37   O16   A    
O16   V4    S    
C1    C22   S    
