data_mof_unit_4198.cif
_audit_creation_date              2013-03-05T16:03:17-0500
_audit_creation_method            fapswitch 2.2
_symmetry_space_group_name_H-M    P1
_symmetry_Int_Tables_number       1
_space_group_crystal_system       triclinic
_cell_length_a                    27.837513
_cell_length_b                    11.711668
_cell_length_c                    10.458031
_cell_angle_alpha                 90.001582
_cell_angle_beta                  89.997936
_cell_angle_gamma                 89.997004
_cell_volume                      3409.56605985

loop_
_atom_site_label
_atom_site_type_symbol
_atom_site_description
_atom_site_fract_x
_atom_site_fract_y
_atom_site_fract_z
_atom_type_partial_charge
O1    O     O_R   0.500000 0.337200 0.605810 -0.576991
O2    O     O_R   0.500000 0.662800 0.394190 -0.576913
O3    O     O_R   0.500000 0.662800 0.605810 -0.577147
O4    O     O_R   0.500000 0.337200 0.394190 -0.577050
C1    C     C_R   0.499999 0.283309 0.499999 0.805324
C2    C     C_R   0.499998 0.716691 0.500001 0.805505
O5    O     O_R   0.430260 0.500000 0.605800 -0.546984
O6    O     O_R   0.569740 0.500000 0.394200 -0.547178
O7    O     O_R   0.569740 0.500000 0.605800 -0.547131
O8    O     O_R   0.430260 0.500000 0.394200 -0.547208
C3    C     C_R   0.407304 0.500033 0.500008 0.911413
C4    C     C_R   0.592695 0.499975 0.500000 0.910938
Cu1   Cu    Cu3+1 0.500000 0.500000 0.625300 1.005405
Cu2   Cu    Cu3+1 0.500000 0.500000 0.374700 1.005305
C5    C     C_R   0.178044 0.400779 0.526918 0.639726
C6    C     C_R   0.821953 0.598946 0.526776 0.639600
C7    C     C_R   0.178024 0.599012 0.474326 0.639490
C8    C     C_R   0.821976 0.400721 0.474136 0.639502
O9    O     O_2   0.203682 0.307495 0.559085 -0.452261
O10   O     O_2   0.796312 0.692228 0.558953 -0.452287
O11   O     O_2   0.203641 0.692307 0.442091 -0.452450
O12   O     O_2   0.796364 0.307435 0.441849 -0.452298
N1    N     N_R   0.201919 0.499895 0.500572 -0.438132
N2    N     N_R   0.798079 0.499835 0.500391 -0.438188
C9    C     C_R   0.278939 0.564679 0.591628 0.349511
C10   C     C_R   0.721051 0.435034 0.591421 0.350086
C11   C     C_R   0.278886 0.435139 0.409066 0.349833
C12   C     C_R   0.721117 0.564665 0.408948 0.349987
C13   C     C_R   0.329289 0.568404 0.588177 0.251776
C14   C     C_R   0.670702 0.431378 0.588020 0.251972
C15   C     C_R   0.329239 0.431540 0.412155 0.252224
C16   C     C_R   0.670766 0.568363 0.412118 0.252348
C17   C     C_R   0.253653 0.499898 0.500425 0.019876
C18   C     C_R   0.746344 0.499839 0.500247 0.019336
C19   C     C_R   0.101951 0.499885 0.500707 -0.157691
C20   C     C_R   0.898048 0.499840 0.500608 -0.157692
C21   C     C_R   0.127427 0.396598 0.521534 -0.127949
C22   C     C_R   0.872569 0.603126 0.521431 -0.127889
C23   C     C_R   0.127410 0.603182 0.479848 -0.127726
C24   C     C_R   0.872590 0.396546 0.479705 -0.127796
C25   C     C_R   0.101277 0.293831 0.537493 0.422480
C26   C     C_R   0.898717 0.705890 0.537433 0.422505
C27   C     C_R   0.101248 0.705945 0.463963 0.422578
C28   C     C_R   0.898754 0.293783 0.463831 0.422546
C29   C     C_R   0.354577 0.500011 0.500077 -0.366442
C30   C     C_R   0.645421 0.499896 0.500027 -0.366924
C31   C     C_R   0.974612 0.395511 0.493950 0.011256
C32   C     C_R   0.025386 0.604211 0.493992 0.011260
C33   C     C_R   0.974597 0.604196 0.507470 0.011257
C34   C     C_R   0.025401 0.395525 0.507475 0.011252
C35   C     C_R   0.949148 0.499848 0.500680 0.085068
C36   C     C_R   0.050850 0.499874 0.500729 0.085069
C37   C     C_R   0.948596 0.294351 0.472126 -0.235046
C38   C     C_R   0.051405 0.705373 0.472206 -0.235045
C39   C     C_R   0.948562 0.705339 0.529277 -0.235029
C40   C     C_R   0.051433 0.294380 0.529287 -0.235016
H1    H     H_    0.966449 0.213877 0.455969 0.185678
H2    H     H_    0.033555 0.785847 0.456039 0.185681
H3    H     H_    0.966401 0.785813 0.545512 0.185691
H4    H     H_    0.033592 0.213904 0.545487 0.185692
C41   C     C_1   0.499998 0.161964 0.499996 -0.188766
C42   C     C_1   0.499998 0.838037 0.500002 -0.188901
C43   C     C_1   0.499997 0.059720 0.499997 -0.009462
C44   C     C_1   0.499998 0.940281 0.500000 -0.009306
N3    N     N_1   0.500000 0.500000 0.186410 -0.135312
N4    N     N_1   0.500000 0.500000 0.813590 -0.135222
C45   C     C_1   0.500000 0.500000 0.072033 0.104779
C46   C     C_1   0.500000 0.500000 0.927967 0.104918
O13   O     O_3   0.353571 0.363408 0.325675 -0.544210
C47   C     C_3   0.360821 0.255047 0.381646 0.129254
H5    H     H_    0.325843 0.212918 0.403100 0.190208
H6    H     H_    0.382252 0.261943 0.471344 0.108809
C48   C     C_3   0.388400 0.179804 0.288624 -0.753862
H7    H     H_    0.423565 0.219503 0.265394 0.256956
H8    H     H_    0.394815 0.094687 0.332241 0.197673
H9    H     H_    0.367435 0.168719 0.199108 0.253372
O14   O     O_3   0.646442 0.636580 0.325716 -0.544220
C49   C     C_3   0.639243 0.744933 0.381759 0.129233
H10   H     H_    0.674240 0.786976 0.403189 0.190289
H11   H     H_    0.617824 0.738045 0.471478 0.108882
C50   C     C_3   0.611677 0.820277 0.288822 -0.753900
H12   H     H_    0.576492 0.780670 0.265630 0.256926
H13   H     H_    0.605307 0.905395 0.332492 0.197657
H14   H     H_    0.632630 0.831343 0.199284 0.253423
O15   O     O_3   0.353695 0.636549 0.674487 -0.544663
C51   C     C_3   0.360474 0.745254 0.618938 0.128854
H15   H     H_    0.325310 0.787143 0.599078 0.191300
H16   H     H_    0.381448 0.739034 0.528377 0.109207
C52   C     C_3   0.388399 0.820287 0.711420 -0.754570
H17   H     H_    0.423836 0.781040 0.732666 0.256881
H18   H     H_    0.394266 0.905850 0.668330 0.197874
H19   H     H_    0.367976 0.830306 0.802014 0.253453
O16   O     O_3   0.646316 0.363156 0.674291 -0.544364
C53   C     C_3   0.639144 0.254826 0.618176 0.129191
H20   H     H_    0.674151 0.212814 0.596731 0.190195
H21   H     H_    0.617733 0.261751 0.528448 0.108970
C54   C     C_3   0.611586 0.179411 0.711055 -0.753874
H22   H     H_    0.576394 0.218984 0.734284 0.256921
H23   H     H_    0.605229 0.094319 0.667319 0.197679
H24   H     H_    0.632539 0.168301 0.800587 0.253367
O17   O     O_3   0.254161 0.366915 0.323696 -0.521704
C55   C     C_3   0.247344 0.428159 0.209025 0.075698
H25   H     H_    0.282437 0.451832 0.165133 0.168637
H26   H     H_    0.225766 0.506856 0.226046 0.144814
C56   C     C_3   0.220208 0.352895 0.115046 -0.707176
H27   H     H_    0.184415 0.330513 0.154770 0.261579
H28   H     H_    0.215175 0.398484 0.023027 0.184022
H29   H     H_    0.240778 0.273251 0.096906 0.263797
O18   O     O_3   0.745849 0.632830 0.323535 -0.521679
C57   C     C_3   0.752586 0.571586 0.208824 0.075792
H30   H     H_    0.717464 0.547960 0.165071 0.168651
H31   H     H_    0.774155 0.492860 0.225749 0.144857
C58   C     C_3   0.779685 0.646816 0.114736 -0.707156
H32   H     H_    0.815512 0.669127 0.154291 0.261547
H33   H     H_    0.784640 0.601229 0.022682 0.183931
H34   H     H_    0.759129 0.726499 0.096714 0.263824
O19   O     O_3   0.254247 0.632728 0.677254 -0.522323
C59   C     C_3   0.247952 0.571710 0.792291 0.076024
H35   H     H_    0.283230 0.548324 0.835312 0.169150
H36   H     H_    0.226394 0.492857 0.776044 0.144944
C60   C     C_3   0.221112 0.647033 0.886823 -0.707516
H37   H     H_    0.185086 0.668864 0.848223 0.261414
H38   H     H_    0.216625 0.601747 0.979231 0.183579
H39   H     H_    0.241606 0.726974 0.903879 0.263900
O20   O     O_3   0.745726 0.366879 0.676966 -0.521713
C61   C     C_3   0.752178 0.427941 0.791913 0.076113
H40   H     H_    0.716955 0.451467 0.835167 0.168958
H41   H     H_    0.773767 0.506713 0.775472 0.144784
C62   C     C_3   0.779071 0.352584 0.886295 -0.707288
H42   H     H_    0.815027 0.330527 0.847388 0.261452
H43   H     H_    0.783721 0.397952 0.978592 0.183639
H44   H     H_    0.758529 0.272769 0.903651 0.263903
Cl1   Cl    Cl    0.127772 0.158720 0.563997 -0.447234
Cl2   Cl    Cl    0.872220 0.841001 0.563933 -0.447201
Cl3   Cl    Cl    0.127723 0.841078 0.437497 -0.447202
Cl4   Cl    Cl    0.872281 0.158654 0.437327 -0.447167

loop_
_geom_bond_atom_site_label_1
_geom_bond_atom_site_label_2
_geom_bond_distance
_ccdc_geom_bond_type
C28   Cl4   1.767661 S    
N4    C46   1.196161 T    
O16   C53   1.412063 S    
C39   H3    1.078764 S    
C20   C24   1.419003 A    
C48   H7    1.110618 S    
C19   C23   1.419005 A    
O3    C2    1.273914 A    
C50   H14   1.110778 S    
C33   C35   1.414389 A    
C25   Cl1   1.767661 S    
C54   H22   1.110615 S    
O15   C51   1.412080 S    
C11   C17   1.407602 A    
C32   C38   1.407230 A    
C56   H28   1.109422 S    
C61   H40   1.114409 S    
C8    N2    1.365753 A    
C19   C21   1.419024 A    
C62   H42   1.110879 S    
C14   O16   1.383226 S    
O13   C47   1.412078 S    
C55   H26   1.114423 S    
C51   H16   1.114970 S    
C55   C56   1.521076 S    
C7    C23   1.410983 A    
C41   C43   1.197448 T    
O7    Cu1   1.952060 S    
C59   H35   1.114413 S    
C5    C21   1.411017 A    
C60   H39   1.110799 S    
C42   C44   1.197449 T    
C50   H13   1.110730 S    
C16   O14   1.383220 S    
C5    O9    1.347627 S    
C28   C37   1.390208 A    
C10   C18   1.407491 A    
N1    C17   1.440144 S    
N2    C18   1.440161 S    
C34   C36   1.414392 A    
C47   H5    1.114405 S    
C52   H18   1.110836 S    
C13   O15   1.383225 S    
O3    Cu1   1.917529 S    
O6    C4    1.277752 A    
C31   C37   1.407236 A    
C62   H44   1.110770 S    
C5    N1    1.365728 A    
C12   C18   1.407584 A    
C6    N2    1.365737 A    
C8    O12   1.347623 S    
Cu1   Cu2   2.620783 S    
O4    Cu2   1.917529 S    
C48   H8    1.110718 S    
O2    C2    1.273896 A    
C54   H23   1.110711 S    
C50   H12   1.110596 S    
C31   C34   1.420880 A    
C57   H31   1.114420 S    
Cu1   N4    1.969144 S    
C9    C13   1.402777 A    
C56   H29   1.110790 S    
C11   C15   1.402704 A    
C45   C46   1.506639 S    
O17   C55   1.410213 S    
C12   C16   1.402687 A    
C4    C30   1.467753 S    
O8    Cu2   1.952062 S    
C57   H30   1.114407 S    
C37   H1    1.078764 S    
C49   H10   1.114386 S    
C31   C35   1.414407 A    
C53   C54   1.520582 S    
N3    C45   1.196161 T    
C33   C39   1.407237 A    
C11   O17   1.381776 S    
C34   C40   1.407240 A    
C40   H4    1.078764 S    
C13   C29   1.409210 A    
C59   C60   1.521052 S    
O5    C3    1.277692 A    
C25   C40   1.390218 A    
C27   Cl3   1.767665 S    
C26   C39   1.390203 A    
C27   C38   1.390197 A    
O5    Cu1   1.952077 S    
C6    O10   1.347628 S    
C47   C48   1.520594 S    
C1    C41   1.421162 S    
C53   H20   1.114432 S    
C7    N1    1.365754 A    
C52   H19   1.111106 S    
C53   H21   1.114652 S    
C57   C58   1.521067 S    
C60   H37   1.110906 S    
C20   C35   1.422508 A    
C32   C33   1.420865 A    
C10   C14   1.402680 A    
O20   C61   1.410228 S    
C48   H9    1.110820 S    
O1    C1    1.273902 A    
C3    C29   1.467794 S    
O1    Cu1   1.917518 S    
C54   H24   1.110812 S    
C61   H41   1.114408 S    
C58   H32   1.110896 S    
C38   H2    1.078763 S    
O6    Cu2   1.952074 S    
C51   H15   1.114437 S    
C16   C30   1.409282 A    
C14   C30   1.409289 A    
O4    C1    1.273908 A    
C51   C52   1.520530 S    
C9    O19   1.381806 S    
C23   C27   1.416477 A    
C22   C26   1.416475 A    
C12   O18   1.381783 S    
C56   H27   1.110900 S    
O19   C59   1.410250 S    
C61   C62   1.521069 S    
C26   Cl2   1.767663 S    
C58   H34   1.110788 S    
C20   C22   1.419019 A    
C15   O13   1.383220 S    
O18   C57   1.410219 S    
C49   C50   1.520588 S    
C2    C42   1.421165 S    
Cu2   N3    1.969143 S    
C49   H11   1.114605 S    
C21   C25   1.416479 A    
C55   H25   1.114397 S    
O2    Cu2   1.917518 S    
O7    C4    1.277703 A    
C59   H36   1.114417 S    
C60   H38   1.109441 S    
O8    C3    1.277797 A    
C43   C44   1.398825 S    
C24   C28   1.416482 A    
C8    C24   1.410999 A    
C15   C29   1.409284 A    
C6    C22   1.410999 A    
C19   C36   1.422508 A    
O14   C49   1.412071 S    
C47   H6    1.114653 S    
C62   H43   1.109395 S    
C52   H17   1.110754 S    
C32   C36   1.414404 A    
C10   O20   1.381799 S    
C9    C17   1.407440 A    
C58   H33   1.109420 S    
C7    O11   1.347629 S    
