data_mof_unit_3192.cif
_audit_creation_date              2012-12-11T16:06:23-0500
_audit_creation_method            fapswitch 2.2
_symmetry_space_group_name_H-M    P1
_symmetry_Int_Tables_number       1
_space_group_crystal_system       triclinic
_cell_length_a                    8.239826
_cell_length_b                    12.616147
_cell_length_c                    17.371489
_cell_angle_alpha                 94.606442
_cell_angle_beta                  95.971325
_cell_angle_gamma                 97.680343
_cell_volume                      1771.79006137

loop_
_atom_site_label
_atom_site_type_symbol
_atom_type_description
_atom_site_fract_x
_atom_site_fract_y
_atom_site_fract_z
_atom_type_partial_charge
Ba1   Ba    Ba6+2 0.158660 0.552610 0.463110 1.634884
Ba2   Ba    Ba6+2 0.651510 0.447380 0.536830 1.633972
C1    C     C_3   0.347021 0.836769 0.172110 -0.209373
C2    C     C_3   0.389411 0.796481 0.251371 0.383189
C3    C     C_3   0.563516 0.775101 0.643076 0.274171
C4    C     C_3   0.567978 0.895801 0.656616 -0.335739
C5    C     C_3   0.893044 0.154941 0.715963 0.349016
C6    C     C_3   0.951030 0.067560 0.762958 -0.418506
C7    C     C_3   0.403058 0.210754 0.750503 0.362469
C8    C     C_3   0.435145 0.178189 0.832482 -0.365837
C9    C     C_R   0.076206 0.184944 0.532072 -0.278692
C10   C     C_R   0.732593 0.816357 0.472016 -0.280812
C11   C     C_R   0.698864 0.997617 0.445019 -0.083919
C12   C     C_3   0.849063 0.819501 0.212985 0.286952
C13   C     C_R   0.636876 0.888370 0.440840 -0.003839
C14   C     C_R   0.886520 0.851533 0.513424 0.069106
C15   C     C_R   0.948359 0.964207 0.523207 -0.063812
C16   C     C_R   0.854027 0.038402 0.486783 -0.058103
C17   C     C_R   0.920141 0.150290 0.492021 0.056817
C18   C     C_R   0.170619 0.113099 0.565393 -0.009391
C19   C     C_R   0.104956 0.004508 0.564109 -0.111106
C20   C     C_R   0.599269 0.544133 0.279762 -0.284983
C21   C     C_R   0.442815 0.487486 0.255969 0.089303
C22   C     C_R   0.383886 0.470781 0.176366 -0.120887
C23   C     C_3   0.902100 0.909517 0.162927 -0.198524
C24   C     C_R   0.484204 0.507924 0.120669 -0.005388
C25   C     C_R   0.645564 0.558949 0.145177 -0.143248
C26   C     C_R   0.702543 0.576988 0.224828 -0.010908
C27   C     C_R   0.414737 0.522609 0.835581 -0.117710
C28   C     C_R   0.358601 0.514624 0.755990 0.033356
C29   C     C_R   0.098330 0.416525 0.779895 0.008436
C30   C     C_R   0.153652 0.423488 0.859679 -0.135273
C31   C     C_R   0.313468 0.475468 0.887710 0.004840
C32   C     C_1   0.371767 0.484513 0.970012 -0.005181
C33   C     C_1   0.422398 0.493862 0.038651 -0.006491
C34   C     C_3   0.749005 0.313677 0.303449 0.302739
C35   C     C_R   0.203550 0.458322 0.728479 -0.281197
C36   C     C_3   0.709157 0.281649 0.216557 -0.402225
C37   C     C_3   0.049550 0.682123 0.697042 0.321934
C38   C     C_3   0.048099 0.705316 0.784796 -0.221461
C39   C     C_3   0.224420 0.218211 0.350144 0.288142
C40   C     C_3   0.227053 0.101125 0.321008 -0.210024
H1    H     H_    0.305231 0.721282 0.255898 0.101052
H2    H     H_    0.597990 0.219751 0.205271 0.129150
H3    H     H_    0.685470 0.352256 0.185606 0.072752
H4    H     H_    0.814761 0.248576 0.193521 0.119049
H5    H     H_    0.169417 0.659663 0.684347 0.000047
H6    H     H_    0.950959 0.613936 0.676788 0.058016
H7    H     H_    0.053236 0.630046 0.813236 0.063741
H8    H     H_    0.930679 0.734821 0.796027 0.120540
H9    H     H_    0.096169 0.236166 0.346747 0.034576
H10   H     H_    0.285939 0.234745 0.410849 0.024353
H11   H     H_    0.206490 0.091494 0.256478 0.125650
H12   H     H_    0.350890 0.079503 0.338894 0.144970
H13   H     H_    0.518966 0.780102 0.257085 -0.091840
H14   H     H_    0.689493 0.757352 0.635894 0.013398
H15   H     H_    0.479664 0.747058 0.588891 0.069083
H16   H     H_    0.642984 0.926571 0.712463 0.119253
H17   H     H_    0.622458 0.935724 0.608835 0.074437
H18   H     H_    0.440949 0.914991 0.659003 0.139137
H19   H     H_    0.431206 0.911193 0.166645 0.103145
H20   H     H_    0.793519 0.118167 0.669792 0.078376
H21   H     H_    0.999076 0.190634 0.687402 -0.052298
H22   H     H_    0.987554 0.003293 0.723657 0.091560
H23   H     H_    0.851357 0.032340 0.795494 0.129988
H24   H     H_    0.270455 0.218690 0.739091 -0.074128
H25   H     H_    0.478542 0.289769 0.747420 0.089901
H26   H     H_    0.568261 0.173442 0.846952 0.153353
H27   H     H_    0.810175 0.853797 0.267968 0.004274
H28   H     H_    0.363123 0.098501 0.837179 0.104511
H29   H     H_    0.180682 0.952099 0.592102 0.104997
H30   H     H_    0.682756 0.731952 0.467234 0.065584
H31   H     H_    0.535040 0.566891 0.856859 0.073734
H32   H     H_    0.726179 0.584990 0.102778 0.070752
H33   H     H_    0.072280 0.390182 0.899528 0.075891
H34   H     H_    0.262384 0.426363 0.157860 0.084423
H35   H     H_    0.645306 0.555632 0.340940 0.068740
H36   H     H_    0.743509 0.767607 0.178540 -0.006610
H37   H     H_    0.160360 0.453217 0.667099 0.062192
H38   H     H_    0.011484 0.962271 0.193217 0.114603
H39   H     H_    0.936597 0.873962 0.107333 0.108818
H40   H     H_    0.641142 0.342971 0.326180 0.026121
H41   H     H_    0.856178 0.378467 0.313110 0.064829
O1    O     O_2   0.163080 0.763400 0.536930 -0.458039
O2    O     O_3   0.310082 0.278135 0.299805 -0.653820
O3    O     O_3   0.983451 0.763910 0.230460 -0.605779
O4    O     O_2   0.647210 0.236530 0.463040 -0.456341
O5    O     O_3   0.916960 0.371010 0.461280 -0.496536
O6    O     O_3   0.430470 0.302400 0.600330 -0.475915
O7    O     O_3   0.785233 0.223067 0.339290 -0.650520
O8    O     O_3   0.388290 0.554800 0.590630 -0.475086
O9    O     O_3   0.856660 0.356630 0.638500 -0.476244
O10   O     O_2   0.760116 0.424839 0.774108 -0.492658
O11   O     O_3   0.830045 0.229217 0.765579 -0.591009
O12   O     O_3   0.893330 0.628980 0.538660 -0.494632
O13   O     O_3   0.422000 0.445190 0.409310 -0.480206
O14   O     O_2   0.648720 0.552000 0.685060 -0.460690
O15   O     O_3   0.508070 0.727957 0.707814 -0.648520
O16   O     O_2   0.505055 0.112207 0.552672 -0.482685
O17   O     O_3   0.446833 0.132485 0.697402 -0.601504
O18   O     O_3   0.379830 0.697590 0.399610 -0.487629
O19   O     O_2   0.306028 0.886243 0.452353 -0.475261
O20   O     O_3   0.022951 0.774579 0.661049 -0.651392
O21   O     O_3   0.367743 0.876531 0.308687 -0.626318
O22   O     O_2   0.161570 0.447940 0.314920 -0.470465
O23   O     O_3   0.953630 0.643360 0.361440 -0.462300
O24   O     O_2   0.034748 0.565828 0.226274 -0.489193
P1    P     P_3+3 0.990420 0.746550 0.559720 0.973544
P2    P     P_3+3 0.330880 0.415450 0.326700 0.984963
P3    P     P_3+3 0.915564 0.637302 0.259744 0.943810
P4    P     P_3+3 0.819870 0.253440 0.440220 0.965312
P5    P     P_3+3 0.886273 0.359304 0.740138 0.956659
P6    P     P_3+3 0.423666 0.837141 0.400722 0.946089
P7    P     P_3+3 0.474452 0.588272 0.687295 0.942106
P8    P     P_3+3 0.387125 0.163460 0.603164 0.956442
C41   C     C_3   0.193066 0.788549 0.821303 -0.392489
H42   H     H_    0.311176 0.757491 0.814953 0.141752
H43   H     H_    0.192698 0.864893 0.793601 0.156152
H44   H     H_    0.183476 0.805259 0.884279 0.108490
H45   H     H_    0.220903 0.857994 0.167994 0.148489
C42   C     C_3   0.096380 0.025243 0.351637 -0.459640
H46   H     H_    0.127595 0.027747 0.414602 0.152039
H47   H     H_    0.972021 0.047908 0.336997 0.115632
H48   H     H_    0.096663 0.941899 0.326668 0.204516
C43   C     C_3   0.355520 0.753228 0.104915 -0.495389
H49   H     H_    0.270954 0.678516 0.110107 0.158133
H50   H     H_    0.317347 0.784943 0.049060 0.136054
H51   H     H_    0.483220 0.735213 0.104092 0.133731
C44   C     C_3   0.766490 0.977879 0.144830 -0.491470
H52   H     H_    0.719951 0.007572 0.199161 0.146846
H53   H     H_    0.816270 0.048246 0.115576 0.139722
H54   H     H_    0.664481 0.930084 0.104756 0.136405
H55   H     H_    0.058556 0.102280 0.805481 0.110827
H56   H     H_    0.397844 0.238553 0.874752 0.070345
H57   H     H_    0.622897 0.049226 0.416280 0.106593
H58   H     H_    0.128802 0.268525 0.533841 0.070258

loop_
_geom_bond_atom_site_label_1
_geom_bond_atom_site_label_2
_ccdc_geom_bond_type
O6    P8    S    
C23   H38   S    
O18   P6    S    
C39   C40   S    
C4    H16   S    
C3    H14   S    
C23   C44   S    
C30   H33   S    
C5    C6    S    
Ba1   O1    S    
C35   H37   S    
C9    C17   A    
C24   C25   A    
C11   C16   A    
C19   H29   S    
Ba2   O12   S    
O3    P3    S    
C22   C24   A    
C16   C17   A    
O2    P2    S    
C40   H11   S    
O16   P8    D    
C3    C4    S    
O15   P7    S    
O4    P4    D    
C34   H41   S    
C38   H7    S    
C27   C31   A    
C41   H42   S    
C32   C33   T    
O11   P5    S    
C7    H24   S    
C42   H48   S    
Ba1   P2    S    
O5    P4    S    
C10   C14   A    
Ba2   O14   S    
C34   H40   S    
C14   C15   A    
C36   H3    S    
C43   H51   S    
C21   C22   A    
C13   P6    S    
Ba2   O5    S    
O20   P1    S    
C25   H32   S    
C7    C8    S    
C39   H10   S    
Ba1   O23   S    
C44   H54   S    
C29   P5    S    
Ba1   O5    S    
C10   H30   S    
C6    H23   S    
Ba1   O8    S    
C20   C26   A    
C23   H39   S    
C11   H57   S    
O17   P8    S    
O7    P4    S    
C31   C32   S    
C1    H19   S    
C21   P2    S    
Ba2   P4    S    
C36   H4    S    
C4    H18   S    
C12   O3    S    
O12   P1    S    
C37   C38   S    
O9    P5    S    
O10   P5    D    
C26   P3    S    
C9    C18   A    
C15   C19   A    
C29   C35   A    
C28   C35   A    
Ba2   O6    S    
C7    H25   S    
C5    H20   S    
C36   H2    S    
C27   C28   A    
C28   P7    S    
C29   C30   A    
C10   C13   A    
Ba1   O12   S    
C15   C16   A    
Ba2   O4    S    
C3    O15   S    
Ba2   O9    S    
C5    H21   S    
C42   H46   S    
C6    H22   S    
C8    H28   S    
C7    O17   S    
C8    H26   S    
C11   C13   A    
C2    H13   S    
C43   H49   S    
C12   H27   S    
C1    C2    S    
Ba1   O18   S    
C37   H5    S    
C44   H52   S    
O23   P3    S    
C34   O7    S    
C5    O11   S    
O22   P2    D    
C6    H55   S    
C4    H17   S    
C22   H34   S    
C8    H56   S    
C20   H35   S    
C18   P8    S    
C1    C43   S    
C37   O20   S    
C2    H1    S    
C17   P4    S    
C39   O2    S    
O13   P2    S    
C41   H44   S    
C3    H15   S    
C30   C31   A    
Ba2   O13   S    
O19   P6    D    
C9    H58   S    
C40   H12   S    
C38   C41   S    
Ba1   O13   S    
C38   H8    S    
Ba1   Ba2   S    
C34   C36   S    
O24   P3    D    
C41   H43   S    
C2    O21   S    
C12   H36   S    
C12   C23   S    
Ba2   O8    S    
C42   H47   S    
C1    H45   S    
C14   P1    S    
Ba1   P1    S    
O21   P6    S    
C24   C33   S    
O1    P1    D    
C27   H31   S    
C18   C19   A    
C25   C26   A    
C43   H50   S    
C20   C21   A    
O14   P7    D    
C39   H9    S    
O8    P7    S    
C40   C42   S    
Ba1   O22   S    
C37   H6    S    
C44   H53   S    
