data_mof_unit_2073.cif
_audit_creation_date              2013-03-05T15:50:44-0500
_audit_creation_method            fapswitch 2.2
_symmetry_space_group_name_H-M    P1
_symmetry_Int_Tables_number       1
_space_group_crystal_system       triclinic
_cell_length_a                    10.663635
_cell_length_b                    12.066666
_cell_length_c                    12.785727
_cell_angle_alpha                 94.558304
_cell_angle_beta                  91.341717
_cell_angle_gamma                 86.083398
_cell_volume                      1635.89573174

loop_
_atom_site_label
_atom_site_type_symbol
_atom_site_description
_atom_site_fract_x
_atom_site_fract_y
_atom_site_fract_z
_atom_type_partial_charge
O1    O     O_R   0.506240 0.421700 0.658830 -0.615036
O2    O     O_R   0.491240 0.609310 0.646410 -0.624081
C1    C     C_R   0.489825 0.523642 0.700640 0.886238
O3    O     O_R   0.692710 0.406190 0.506230 -0.565719
O4    O     O_R   0.677700 0.593810 0.493810 -0.630080
C2    C     C_R   0.742265 0.499947 0.499664 0.910673
Zn1   Zn    Zn3+2 0.510020 0.374730 0.508290 0.984457
Zn2   Zn    Zn3+2 0.489980 0.625270 0.491710 1.005108
O5    O     O_R   0.508760 0.390690 0.353590 -0.628376
O6    O     O_R   0.493760 0.578300 0.341170 -0.582680
O7    O     O_R   0.322300 0.406190 0.506190 -0.657621
O8    O     O_R   0.307290 0.593810 0.493770 -0.610923
C3    C     C_R   0.506771 0.476896 0.299533 0.960933
C4    C     C_R   0.258345 0.500333 0.500978 0.812551
C5    C     C_3   0.935909 0.433310 0.590048 -0.360554
C6    C     C_3   0.079952 0.437640 0.594397 -0.224820
C7    C     C_3   0.930501 0.446525 0.390318 -0.187357
C8    C     C_3   0.920034 0.620426 0.515323 -0.347065
C9    C     C_3   0.879276 0.498912 0.498326 -0.040253
C10   C     C_3   0.122200 0.500445 0.500061 0.052615
C11   C     C_3   0.076386 0.437126 0.395869 -0.262899
C12   C     C_3   0.061899 0.621958 0.509019 -0.315307
C13   C     C_R   0.509326 0.460627 0.186883 -0.034581
C14   C     C_R   0.468161 0.541824 0.812848 -0.107712
C15   C     C_R   0.476756 0.654412 0.978362 -0.107963
C16   C     C_R   0.465621 0.648531 0.868409 -0.063808
C17   C     C_R   0.450067 0.447739 0.865876 -0.227943
C18   C     C_R   0.454192 0.453201 0.974223 0.151849
C19   C     C_R   0.490250 0.553466 0.028267 0.039612
C20   C     C_R   0.541571 0.548301 0.129300 -0.044070
C21   C     C_R   0.458600 0.365999 0.137237 -0.320192
C22   C     C_R   0.434885 0.359012 0.029780 0.006617
N1    N     N_R   0.523380 0.207800 0.519350 -0.111566
N2    N     N_R   0.476620 0.792180 0.480650 -0.145601
C23   C     C_R   0.390554 0.951376 0.393383 -0.277143
C24   C     C_R   0.396825 0.836520 0.407533 0.070076
C25   C     C_R   0.552229 0.859311 0.542080 0.104836
C26   C     C_R   0.539013 0.976581 0.537107 0.096176
C27   C     C_R   0.461973 0.022886 0.458919 0.047986
C28   C     C_R   0.457792 0.139750 0.449952 -0.051555
C29   C     C_R   0.589273 0.162972 0.601621 0.128845
C30   C     C_R   0.597289 0.048616 0.610949 -0.315630
H1    H     H_    0.913552 0.344629 0.578003 0.206630
H2    H     H_    0.085754 0.667149 0.440513 0.222231
H3    H     H_    0.897939 0.504458 0.330272 0.249118
C31   C     C_2   0.133367 0.473414 0.297396 0.429249
H4    H     H_    0.204306 0.418733 0.256373 0.057866
O9    O     O_2   0.103141 0.563781 0.264294 -0.540645
C32   C     C_2   0.643383 0.622730 0.166047 0.507791
H5    H     H_    0.669455 0.688052 0.118985 0.057815
O10   O     O_2   0.705682 0.607552 0.245524 -0.578088
H6    H     H_    0.433895 0.298838 0.182813 0.155257
C33   C     C_2   0.457833 0.764226 0.040706 0.383944
H7    H     H_    0.479232 0.840824 0.008151 0.054395
O11   O     O_2   0.414324 0.770431 0.128670 -0.560475
C34   C     C_2   0.380957 0.255763 0.982680 0.371847
H8    H     H_    0.401721 0.177896 0.018654 0.077939
O12   O     O_2   0.307508 0.257159 0.908037 -0.569570
C35   C     C_2   0.446525 0.753124 0.814603 0.424035
H9    H     H_    0.510981 0.818597 0.829467 0.007983
O13   O     O_2   0.355554 0.768351 0.756439 -0.517011
H10   H     H_    0.441883 0.368247 0.821994 0.190639
H11   H     H_    0.400742 0.176545 0.388907 0.121843
H12   H     H_    0.892493 0.467085 0.665361 0.225508
C36   C     C_2   0.648469 0.230165 0.687836 0.472730
H13   H     H_    0.630995 0.214206 0.768427 0.027100
O14   O     O_2   0.724067 0.297293 0.671200 -0.577818
H14   H     H_    0.328776 0.984041 0.333064 0.166645
H15   H     H_    0.647151 0.017118 0.678372 0.176542
H16   H     H_    0.339817 0.782167 0.358054 0.179119
C37   C     C_2   0.654511 0.808628 0.606759 0.367809
H17   H     H_    0.640768 0.738096 0.650284 0.107662
O15   O     O_2   0.758793 0.844896 0.609988 -0.594026
C38   C     C_2   0.127795 0.484930 0.700215 0.455378
H18   H     H_    0.210337 0.444690 0.735919 0.088139
O16   O     O_2   0.077528 0.569004 0.744968 -0.535365
H19   H     H_    0.120510 0.349874 0.585090 0.131171
C39   C     C_2   0.881275 0.334216 0.356393 0.415422
H20   H     H_    0.903089 0.263498 0.402561 0.081660
O17   O     O_2   0.816817 0.322086 0.276643 -0.541099
H21   H     H_    0.109904 0.347856 0.399376 0.099495
H22   H     H_    0.876114 0.673371 0.455086 0.233088
H23   H     H_    0.889757 0.657320 0.593937 0.236368
H24   H     H_    0.098516 0.670480 0.579452 0.233634

loop_
_geom_bond_atom_site_label_1
_geom_bond_atom_site_label_2
_geom_bond_distance
_ccdc_geom_bond_type
N2    C25   1.371707 A    
C29   C30   1.391115 A    
C23   C24   1.408773 A    
C14   C17   1.394350 A    
C21   H6    1.084967 S    
C33   H7    1.083520 S    
Zn1   O7    2.011774 S    
C2    C9    1.460721 S    
C19   C20   1.395389 A    
C28   H11   1.082757 S    
C38   O16   1.221364 D    
C6    C38   1.516947 S    
C18   C19   1.416804 A    
C14   C16   1.419170 A    
C26   C30   1.396063 A    
C26   C27   1.405023 A    
O7    C4    1.290007 A    
C39   O17   1.220982 D    
C5    C6    1.540029 S    
C34   H8    1.085783 S    
C3    C13   1.438732 S    
C6    H19   1.114713 S    
O5    C3    1.292584 A    
C8    H22   1.114050 S    
C5    C9    1.554260 S    
C12   H2    1.111112 S    
C36   O14   1.214854 D    
C5    H12   1.113725 S    
C16   C35   1.484575 S    
C6    C10   1.565088 S    
C35   H9    1.084855 S    
C8    C12   1.518278 S    
Zn1   N1    2.025532 S    
C1    C14   1.455446 S    
O3    Zn1   2.011236 S    
C24   H16   1.081867 S    
C33   O11   1.221514 D    
C15   C19   1.416638 A    
C31   O9    1.221064 D    
C35   O13   1.221252 D    
N1    C28   1.372708 A    
C38   H18   1.084867 S    
C13   C20   1.401733 A    
C4    C10   1.451484 S    
C18   C22   1.416276 A    
O3    C2    1.290368 A    
C27   C28   1.421454 A    
C37   O15   1.221177 D    
C39   H20   1.085013 S    
C8    C9    1.555013 S    
C29   C36   1.471812 S    
C32   O10   1.220182 D    
C15   C16   1.404623 A    
C30   H15   1.083194 S    
C7    C11   1.552418 S    
C7    H3    1.112793 S    
O1    C1    1.303838 A    
C13   C21   1.397291 A    
C23   C27   1.404160 A    
C25   C26   1.418782 A    
C17   H10   1.079852 S    
C21   C22   1.388135 A    
Zn2   O8    2.011237 S    
C8    H23   1.112280 S    
Zn2   N2    2.025292 S    
C20   C32   1.499438 S    
C11   H21   1.115542 S    
C36   H13   1.085817 S    
C25   C37   1.481402 S    
C10   C12   1.557072 S    
C11   C31   1.518536 S    
Zn1   O5    2.002127 S    
C31   H4    1.085403 S    
O1    Zn1   1.963334 S    
O2    Zn2   2.002128 S    
C15   C33   1.495016 S    
O6    C3    1.294835 A    
O4    Zn2   2.011773 S    
N1    C29   1.377212 A    
O2    C1    1.290784 A    
O8    C4    1.285447 A    
C5    H1    1.110219 S    
C37   H17   1.073144 S    
O4    C2    1.291123 A    
C23   H14   1.083135 S    
C7    C39   1.514372 S    
C7    C9    1.566663 S    
C34   O12   1.220779 D    
N2    C24   1.365395 A    
C10   C11   1.567113 S    
Zn2   O6    1.963334 S    
C32   H5    1.083430 S    
C17   C18   1.381425 A    
C22   C34   1.485928 S    
C12   H24   1.112297 S    
