data_mof_unit_1841.cif
_audit_creation_date              2012-12-10T17:43:55-0500
_audit_creation_method            fapswitch 2.2
_symmetry_space_group_name_H-M    P1
_symmetry_Int_Tables_number       1
_space_group_crystal_system       triclinic
_cell_length_a                    15.857836
_cell_length_b                    15.066649
_cell_length_c                    13.765148
_cell_angle_alpha                 89.566512
_cell_angle_beta                  91.036336
_cell_angle_gamma                 89.643621
_cell_volume                      3288.13185857

loop_
_atom_site_label
_atom_site_type_symbol
_atom_type_description
_atom_site_fract_x
_atom_site_fract_y
_atom_site_fract_z
_atom_type_partial_charge
C1    C     C_R   0.499808 0.328786 0.500237 0.905680
C2    C     C_R   0.499589 0.671244 0.499711 0.917906
C3    C     C_R   0.498976 0.767931 0.499350 -0.332064
C4    C     C_R   0.500086 0.232143 0.500468 -0.340327
C5    C     C_R   0.543381 0.814321 0.428236 0.531033
C6    C     C_R   0.454671 0.185817 0.570718 0.496422
C7    C     C_R   0.544242 0.906935 0.428512 -0.066522
C8    C     C_R   0.454840 0.093201 0.571361 -0.059522
C9    C     C_R   0.499554 0.953383 0.500205 -0.113368
C10   C     C_R   0.500174 0.046731 0.500231 -0.110604
C11   C     C_R   0.454184 0.906626 0.571700 -0.123125
C12   C     C_R   0.545823 0.093476 0.428972 -0.122140
C13   C     C_R   0.589354 0.953812 0.358428 -0.209261
C14   C     C_R   0.409947 0.046332 0.641633 -0.220317
C15   C     C_R   0.590445 0.046135 0.358473 0.663905
C16   C     C_R   0.409561 0.953986 0.642200 0.667492
C17   C     C_R   0.560539 0.452236 0.795372 0.606545
C18   C     C_R   0.435652 0.541459 0.203732 0.628949
C19   C     C_R   0.441321 0.548945 0.791392 -0.009173
C20   C     C_R   0.564901 0.460412 0.208406 -0.009832
C21   C     C_R   0.440176 0.550946 0.894087 -0.110575
C22   C     C_R   0.568495 0.461950 0.105517 -0.106689
C23   C     C_R   0.339908 0.499729 0.499350 0.824186
C24   C     C_R   0.660112 0.499821 0.500717 0.816294
C25   C     C_R   0.503609 0.505169 0.947977 0.001126
C26   C     C_R   0.504002 0.505622 0.051453 -0.004952
C27   C     C_R   0.566430 0.458558 0.898511 -0.141760
C28   C     C_R   0.439777 0.549866 0.100744 -0.144193
C29   C     C_R   0.378081 0.598827 0.944260 0.497087
C30   C     C_R   0.635918 0.422779 0.055216 0.500261
C31   C     C_R   0.380571 0.600860 0.046195 -0.230018
C32   C     C_R   0.633766 0.420399 0.953055 -0.247153
C33   C     C_3   0.972594 0.415654 0.494219 0.250687
C34   C     C_3   0.027548 0.582710 0.505881 0.240480
C35   C     C_3   0.025979 0.463012 0.417294 0.239040
C36   C     C_3   0.974169 0.535367 0.582830 0.250385
C37   C     C_1   0.250413 0.499005 0.498434 -0.152710
C38   C     C_1   0.749650 0.499747 0.501904 -0.118315
C39   C     C_3   0.029534 0.451180 0.576991 0.420743
C40   C     C_3   0.970578 0.547214 0.423163 0.407000
C41   C     C_3   0.083543 0.498649 0.499800 -0.194390
C42   C     C_3   0.916582 0.499698 0.500352 -0.196282
C43   C     C_1   0.174992 0.498636 0.498821 0.150123
C44   C     C_1   0.825093 0.499737 0.501540 0.172064
C45   C     C_R   0.454493 0.813702 0.570789 0.549338
C46   C     C_R   0.545641 0.186374 0.429979 0.542439
Cu1   Cu    Cu3+1 0.500010 0.499990 0.597420 1.041442
Cu2   Cu    Cu3+1 0.499990 0.500010 0.402580 1.045014
H1    H     H_    0.334053 0.641057 0.082339 0.198847
H2    H     H_    0.686078 0.389148 0.916890 0.193132
H3    H     H_    0.624069 0.919117 0.303102 0.224866
H4    H     H_    0.374949 0.081053 0.696702 0.223335
H5    H     H_    0.395124 0.586280 0.748885 0.208335
H6    H     H_    0.613870 0.426966 0.250620 0.204190
N1    N     N_R   0.499960 0.499930 0.743810 -0.230217
N2    N     N_R   0.500040 0.500070 0.256190 -0.230059
O1    O     O_R   0.500020 0.370250 0.582280 -0.545619
O2    O     O_R   0.499980 0.629750 0.417720 -0.510692
O3    O     O_R   0.500010 0.370270 0.417740 -0.550556
O4    O     O_R   0.499990 0.629730 0.582260 -0.553914
O5    O     O_R   0.379080 0.499980 0.582260 -0.579089
O6    O     O_R   0.620920 0.500020 0.417740 -0.587426
O7    O     O_R   0.379070 0.500000 0.417710 -0.567436
O8    O     O_R   0.620930 0.500000 0.582290 -0.535604
O9    O     O_3   0.060485 0.424507 0.333673 -0.578611
C47   C     C_3   0.995581 0.406090 0.265625 0.092080
H7    H     H_    0.968928 0.468767 0.234676 0.200576
H8    H     H_    0.944233 0.366526 0.298584 0.181198
C48   C     C_3   0.032065 0.352630 0.182948 -0.787848
H9    H     H_    0.059337 0.289354 0.211532 0.258003
H10   H     H_    0.981627 0.337317 0.128791 0.215760
H11   H     H_    0.082202 0.391191 0.146702 0.248568
O10   O     O_3   0.939603 0.573591 0.666583 -0.555117
C49   C     C_3   0.004630 0.594491 0.733606 0.108145
H12   H     H_    0.056224 0.632523 0.699088 0.172116
H13   H     H_    0.031130 0.532859 0.767277 0.200408
C50   C     C_3   0.968237 0.651548 0.813496 -0.777653
H14   H     H_    0.918810 0.614304 0.852528 0.259798
H15   H     H_    0.018814 0.670178 0.866092 0.207807
H16   H     H_    0.940089 0.713094 0.781563 0.256575
O11   O     O_3   0.316525 0.647553 0.894691 -0.549838
C51   C     C_3   0.248442 0.591536 0.868619 0.081948
H17   H     H_    0.268155 0.522259 0.851334 0.131500
H18   H     H_    0.218332 0.619012 0.801301 0.189563
C52   C     C_3   0.182253 0.590202 0.947681 -0.838507
H19   H     H_    0.162819 0.659002 0.965602 0.268666
H20   H     H_    0.126156 0.552827 0.921945 0.217048
H21   H     H_    0.207655 0.556811 0.014078 0.231622
O12   O     O_3   0.702119 0.381395 0.104791 -0.566732
C53   C     C_3   0.763060 0.445198 0.132489 0.076073
H22   H     H_    0.797104 0.419429 0.198149 0.181378
H23   H     H_    0.735158 0.510393 0.153240 0.146568
C54   C     C_3   0.827445 0.458655 0.052670 -0.815351
H24   H     H_    0.797695 0.492812 0.988968 0.245176
H25   H     H_    0.880015 0.500376 0.080213 0.221726
H26   H     H_    0.853260 0.393605 0.029679 0.262390
O13   O     O_3   0.936742 0.330484 0.486365 -0.559974
C55   C     C_3   0.000856 0.265277 0.491776 0.121798
H27   H     H_    0.025981 0.259283 0.567461 0.212298
H28   H     H_    0.053534 0.280266 0.441942 0.172085
C56   C     C_3   0.963931 0.176265 0.462617 -0.758602
H29   H     H_    0.939076 0.179950 0.386713 0.259889
H30   H     H_    0.013568 0.124019 0.467500 0.204717
H31   H     H_    0.911880 0.158233 0.511809 0.261895
O14   O     O_3   0.063400 0.667896 0.513542 -0.563511
C57   C     C_3   0.999298 0.733113 0.507917 0.120679
H32   H     H_    0.946006 0.717699 0.556742 0.171421
H33   H     H_    0.975064 0.739742 0.431923 0.212789
C58   C     C_3   0.035852 0.821861 0.538615 -0.759612
H34   H     H_    0.088469 0.840363 0.490440 0.264049
H35   H     H_    0.986241 0.874124 0.533544 0.204478
H36   H     H_    0.059830 0.817490 0.614842 0.258379
F1    F     F_    0.938168 0.596025 0.345480 -0.673431
F2    F     F_    0.061871 0.402716 0.654969 -0.664679
F3    F     F_    0.410128 0.767319 0.637663 -0.589209
F4    F     F_    0.590901 0.232753 0.363922 -0.590525
F5    F     F_    0.587617 0.769202 0.360468 -0.644056
F6    F     F_    0.408219 0.230969 0.636441 -0.668925
F7    F     F_    0.635005 0.088505 0.288935 -0.586459
F8    F     F_    0.365289 0.911618 0.711989 -0.583839
O15   O     O_3   0.618835 0.402251 0.745463 -0.564513
C59   C     C_3   0.600526 0.310849 0.756548 0.049418
H37   H     H_    0.533812 0.296241 0.736898 0.210287
H38   H     H_    0.611490 0.287316 0.832311 0.140928
C60   C     C_3   0.658055 0.257269 0.691506 -0.710087
H39   H     H_    0.724674 0.264499 0.716311 0.252802
H40   H     H_    0.640704 0.186014 0.694629 0.200364
H41   H     H_    0.652166 0.281044 0.615178 0.245381
O16   O     O_3   0.368293 0.578631 0.251921 -0.555901
C61   C     C_3   0.293657 0.529182 0.232755 0.022733
H42   H     H_    0.291764 0.468937 0.279449 0.185457
H43   H     H_    0.287279 0.505309 0.156812 0.108475
C62   C     C_3   0.217010 0.586893 0.253359 -0.699961
H44   H     H_    0.215005 0.644827 0.203027 0.235431
H45   H     H_    0.158450 0.547918 0.242671 0.242719
H46   H     H_    0.220000 0.611263 0.329205 0.265336

loop_
_geom_bond_atom_site_label_1
_geom_bond_atom_site_label_2
_ccdc_geom_bond_type
C47   H8    S    
C56   H29   S    
O10   C49   S    
C36   C42   S    
C20   N2    A    
O13   C55   S    
C39   C41   S    
C4    C46   A    
C52   H19   S    
C38   C44   T    
C54   H24   S    
C49   H13   S    
C53   C54   S    
C34   C40   S    
C33   C42   S    
C54   H26   S    
C19   C21   A    
C2    C3    S    
C58   H35   S    
C2    O4    A    
C52   H21   S    
C47   C48   S    
C57   H32   S    
C35   O9    S    
C19   N1    A    
Cu2   N2    S    
C48   H10   S    
C54   H25   S    
C51   H18   S    
Cu1   O4    S    
C13   H3    S    
Cu2   O6    S    
C14   H4    S    
Cu1   Cu2   S    
C49   C50   S    
C62   H46   S    
C24   C38   S    
C9    C10   A    
C17   N1    A    
C33   O13   S    
C18   N2    A    
C19   H5    S    
C23   O7    A    
C47   H7    S    
C56   H30   S    
C24   O6    A    
C41   C43   S    
C34   C41   S    
C42   C44   S    
C31   H1    S    
C30   O12   S    
O11   C51   S    
C50   H15   S    
C49   H12   S    
C52   H20   S    
C17   C27   A    
C18   C28   A    
C12   C46   A    
C58   H36   S    
Cu1   O8    S    
C5    C7    A    
Cu2   O7    S    
C6    C8    A    
C25   C26   A    
C23   C37   S    
C21   C29   A    
C3    C45   A    
C24   O8    A    
C5    F5    S    
C37   C43   T    
C48   H11   S    
C61   H43   S    
C28   C31   A    
C29   O11   S    
C1    O1    A    
Cu1   O1    S    
C11   C16   A    
C45   F3    S    
C53   H23   S    
C40   F1    S    
C12   C15   A    
C7    C13   A    
C39   F2    S    
C33   C39   S    
C9    C11   A    
C32   H2    S    
O15   C59   S    
C10   C12   A    
C20   H6    S    
C1    O3    A    
C20   C22   A    
O9    C47   S    
C56   H31   S    
C55   H28   S    
C13   C15   A    
C60   H39   S    
C14   C16   A    
C11   C45   A    
C4    C6    A    
C59   H38   S    
C55   C56   S    
Cu2   O3    S    
Cu1   N1    S    
O16   C61   S    
C50   H16   S    
C17   O15   S    
C7    C9    A    
C21   C25   A    
C8    C14   A    
C22   C30   A    
C27   C32   A    
C34   O14   S    
C36   C39   S    
C3    C5    A    
Cu1   O5    S    
C2    O2    A    
Cu2   O2    S    
C25   C27   A    
C51   C52   S    
O14   C57   S    
C26   C28   A    
C46   F4    S    
C1    C4    S    
C59   C60   S    
C16   F8    S    
C61   H42   S    
O12   C53   S    
C29   C31   A    
C58   H34   S    
C30   C32   A    
C53   H22   S    
C62   H44   S    
C57   H33   S    
C60   H41   S    
C40   C42   S    
C33   C35   S    
C15   F7    S    
C35   C40   S    
C34   C36   S    
C48   H9    S    
C35   C41   S    
C36   O10   S    
C61   C62   S    
C23   O5    A    
C8    C10   A    
C55   H27   S    
C22   C26   A    
C60   H40   S    
C62   H45   S    
C50   H14   S    
C18   O16   S    
C51   H17   S    
C59   H37   S    
C6    F6    S    
C57   C58   S    
