data_mof_unit_3158.cif
_audit_creation_date              2012-10-26T21:01:05-0400
_audit_creation_method            fapswitch 2.2
_symmetry_space_group_name_H-M    P1
_symmetry_Int_Tables_number       1
_space_group_crystal_system       triclinic
_cell_length_a                    10.933909
_cell_length_b                    10.820603
_cell_length_c                    9.588623
_cell_angle_alpha                 89.891859
_cell_angle_beta                  90.973269
_cell_angle_gamma                 91.178775
_cell_volume                      1134.03920558

loop_
_atom_site_label
_atom_site_type_symbol
_atom_type_description
_atom_site_fract_x
_atom_site_fract_y
_atom_site_fract_z
_atom_type_partial_charge
C1    C     C_R   0.496233 0.262505 0.499972 0.548481
C2    C     C_R   0.442236 0.409234 0.074908 0.072983
C3    C     C_R   0.440416 0.408918 0.927240 0.339070
C4    C     C_R   0.265973 0.500795 0.498359 0.527680
C5    C     C_R   0.549849 0.597376 0.926522 0.100020
C6    C     C_3   0.678923 0.643096 0.921007 -0.232876
C7    C     C_3   0.679695 0.645193 0.079037 0.091981
C8    C     C_R   0.491935 0.737363 0.499308 0.522772
C9    C     C_R   0.734815 0.495236 0.502081 0.581920
C10   C     C_2   0.932375 0.432694 0.408736 0.252394
C11   C     C_2   0.867880 0.481550 0.513341 0.254139
C12   C     C_R   0.479399 0.129557 0.499933 -0.017783
C13   C     C_2   0.067617 0.426881 0.419121 -0.120280
C14   C     C_2   0.135210 0.509363 0.492530 -0.083849
C15   C     C_R   0.490169 0.063275 0.623497 0.043352
C16   C     C_2   0.386964 0.874608 0.247489 0.229584
C17   C     C_R   0.442079 0.066446 0.378134 -0.119109
C18   C     C_R   0.434428 0.936492 0.376201 -0.016509
C19   C     C_R   0.471120 0.870286 0.498208 -0.031198
C20   C     C_R   0.487127 0.936419 0.622476 0.022432
C21   C     C_3   0.583210 0.929640 0.734570 -0.268348
C22   C     C_3   0.586508 0.069879 0.735293 -0.237193
C23   C     C_R   0.550152 0.597385 0.073571 0.193839
Cu1   Cu    Cu3+1 0.499990 0.499980 0.640670 0.972487
Cu2   Cu    Cu3+1 0.500010 0.500020 0.359330 1.002404
H1    H     H_    0.674332 0.110760 0.698288 0.146853
H2    H     H_    0.669377 0.889147 0.697247 0.130735
H3    H     H_    0.552052 0.109928 0.833446 0.201275
H4    H     H_    0.932890 0.351074 0.228612 0.328172
H5    H     H_    0.340708 0.342366 0.778014 0.374207
H6    H     H_    0.842594 0.600628 0.134694 0.323265
H7    H     H_    0.876742 0.562912 0.694434 0.320440
H8    H     H_    0.344043 0.783549 0.252253 0.135562
H9    H     H_    0.396437 0.335164 0.130727 0.139070
H10   H     H_    0.740369 0.573285 0.876983 0.180386
H11   H     H_    0.688750 0.736313 0.874889 0.078795
H12   H     H_    0.689116 0.738944 0.126305 0.113149
H13   H     H_    0.112870 0.354636 0.361962 0.112101
H14   H     H_    0.096731 0.588154 0.544151 0.148497
H15   H     H_    0.420381 0.118174 0.284344 0.177048
H16   H     H_    0.546142 0.889686 0.832403 0.170927
N1    N     N_R   0.500780 0.500930 0.147930 -0.245046
N2    N     N_R   0.500780 0.500890 0.852020 -0.241167
O1    O     O_R   0.500000 0.319640 0.618810 -0.486406
O2    O     O_3   0.378979 0.311568 0.864275 -0.702937
O3    O     O_3   0.760865 0.559010 0.133994 -0.619079
O4    O     O_3   0.924825 0.502940 0.641509 -0.744313
O5    O     O_2   0.392566 0.926216 0.134304 -0.522377
O6    O     O_R   0.500010 0.319680 0.381230 -0.510654
O7    O     O_R   0.321940 0.499980 0.618760 -0.513004
O8    O     O_R   0.321950 0.500020 0.381180 -0.522924
O9    O     O_R   0.499990 0.680320 0.618770 -0.497781
O10   O     O_R   0.500000 0.680360 0.381190 -0.528649
O11   O     O_R   0.678050 0.499980 0.618820 -0.526905
O12   O     O_R   0.678060 0.500020 0.381240 -0.393585
O13   O     O_3   0.871463 0.380774 0.294949 -0.654046

loop_
_geom_bond_atom_site_label_1
_geom_bond_atom_site_label_2
_ccdc_geom_bond_type
C12   C17   A    
Cu1   O9    S    
Cu2   O8    S    
C6    C7    S    
C9    O12   A    
H4    O13   S    
C16   H8    S    
C10   O13   S    
C8    O9    A    
H5    O2    S    
C11   O4    S    
C19   C20   A    
C5    C23   A    
C12   C15   A    
C2    H9    S    
C2    C3    A    
C7    H12   S    
C8    O10   A    
C22   H3    S    
C21   C22   S    
Cu1   Cu2   S    
Cu1   O7    S    
C9    C11   S    
C3    N2    A    
C13   H13   S    
C5    C6    S    
C23   N1    A    
C2    N1    A    
C21   H16   S    
Cu2   N1    S    
C17   H15   S    
C6    H11   S    
C17   C18   A    
C4    C14   S    
C15   C20   A    
Cu1   O1    S    
H7    O4    S    
Cu2   O6    S    
C8    C19   S    
C10   C11   D    
C4    O8    A    
Cu1   O11   S    
C7    O3    S    
C6    H10   S    
H6    O3    S    
C16   C18   S    
C18   C19   A    
C22   H1    S    
C4    O7    A    
Cu1   N2    S    
C21   H2    S    
C5    N2    A    
C9    O11   A    
C1    O1    A    
C20   C21   S    
C13   C14   D    
C16   O5    D    
C1    O6    A    
C3    O2    S    
C15   C22   S    
C1    C12   S    
Cu2   O10   S    
Cu2   O12   S    
C7    C23   S    
C14   H14   S    
C10   C13   S    
