data_mof_unit_2765.cif
_audit_creation_date              2012-12-11T15:23:39-0500
_audit_creation_method            fapswitch 2.2
_symmetry_space_group_name_H-M    P1
_symmetry_Int_Tables_number       1
_space_group_crystal_system       triclinic
_cell_length_a                    6.928326
_cell_length_b                    17.529324
_cell_length_c                    19.339984
_cell_angle_alpha                 109.593616
_cell_angle_beta                  90.073579
_cell_angle_gamma                 90.645834
_cell_volume                      2212.63788881

loop_
_atom_site_label
_atom_site_type_symbol
_atom_type_description
_atom_site_fract_x
_atom_site_fract_y
_atom_site_fract_z
_atom_type_partial_charge
O1    O     O_R   0.505810 0.439670 0.562310 -0.532636
O2    O     O_R   0.169070 0.404920 0.411210 -0.537983
O3    O     O_R   0.005550 0.560330 0.437690 -0.530842
C1    C     C_R   0.338658 0.381464 0.383022 0.717358
O4    O     O_R   0.175650 0.430000 0.560110 -0.535444
O5    O     O_R   0.012170 0.585580 0.587650 -0.541118
C2    C     C_R   0.344381 0.416140 0.582838 0.705581
O6    O     O_R   0.499180 0.414420 0.412350 -0.542798
O7    O     O_3   0.341430 0.551020 0.508860 -0.368140
V1    V     V_3+5 0.063930 0.490540 0.498360 1.451561
O8    O     O_R   0.682850 0.595080 0.588790 -0.549590
C3    C     C_R   0.852673 0.617952 0.617037 0.714264
O9    O     O_R   0.676280 0.570000 0.439890 -0.535703
C4    C     C_R   0.845406 0.582855 0.416348 0.714457
V2    V     V_3+5 0.564760 0.509460 0.501640 1.435298
O10   O     O_3   0.837130 0.448980 0.491140 -0.366482
C5    C     C_R   0.746645 0.874398 0.179694 0.279942
C6    C     C_R   0.911987 0.869989 0.135259 -0.102014
C7    C     C_R   0.064513 0.819727 0.139220 -0.281348
C8    C     C_R   0.054305 0.772693 0.184989 0.145466
C9    C     C_R   0.893199 0.778491 0.231058 0.004044
C10   C     C_R   0.742204 0.832811 0.231821 -0.100527
C11   C     C_R   0.203515 0.719382 0.184915 -0.182745
C12   C     C_R   0.192339 0.670425 0.228686 -0.150005
C13   C     C_R   0.032342 0.674248 0.274396 0.079351
C14   C     C_R   0.883357 0.729362 0.276198 0.005078
C15   C     C_R   0.723422 0.734569 0.322260 0.008613
C16   C     C_R   0.580198 0.791319 0.326108 -0.149746
C17   C     C_R   0.591978 0.842796 0.284519 0.330556
C18   C     C_R   0.017499 0.622797 0.316895 0.293858
C19   C     C_R   0.858072 0.630028 0.365127 -0.170119
C20   C     C_R   0.711908 0.685325 0.366213 -0.220592
H1    H     H_    0.188935 0.814571 0.104089 0.136148
H2    H     H_    0.328815 0.714949 0.150337 0.119117
H3    H     H_    0.310065 0.629561 0.226496 0.176003
H4    H     H_    0.590059 0.691409 0.402743 0.152831
H5    H     H_    0.461321 0.798229 0.364067 0.150704
C21   C     C_3   0.773590 0.808410 0.747620 0.386608
C22   C     C_3   0.938043 0.773924 0.692888 -0.307293
H6    H     H_    0.980798 0.794445 0.646611 0.128014
C23   C     C_3   0.867881 0.687885 0.687488 -0.117116
C24   C     C_3   0.699789 0.722899 0.740844 -0.137140
C25   C     C_3   0.833019 0.725071 0.806433 -0.250377
C26   C     C_3   0.000623 0.688629 0.752250 -0.155701
C27   C     C_3   0.065363 0.775084 0.758686 0.369090
C28   C     C_3   0.903040 0.811361 0.812831 -0.044384
H7    H     H_    0.549091 0.699602 0.732645 0.136690
H8    H     H_    0.790348 0.705319 0.853159 0.130436
H9    H     H_    0.097440 0.639100 0.753600 0.116506
C29   C     C_3   0.557022 0.282723 0.276728 -0.150382
C30   C     C_3   0.496811 0.193282 0.263129 -0.113509
H10   H     H_    0.589684 0.147046 0.273541 0.126250
H11   H     H_    0.699625 0.309665 0.298695 0.141169
C31   C     C_3   0.413438 0.188622 0.187856 -0.064619
C32   C     C_3   0.473856 0.277284 0.200557 -0.204325
C33   C     C_3   0.277589 0.304269 0.237288 0.384049
C34   C     C_3   0.213756 0.216181 0.223389 -0.163512
C35   C     C_3   0.298165 0.221945 0.299452 -0.196788
C36   C     C_3   0.357886 0.310734 0.312528 -0.035134
H12   H     H_    0.544846 0.300539 0.160062 0.116474
H13   H     H_    0.070511 0.190085 0.201379 0.122354
H14   H     H_    0.225581 0.199287 0.340032 0.127090
C37   C     C_R   0.255812 0.124056 0.821143 -0.176936
C38   C     C_R   0.414845 0.133782 0.868604 -0.075029
C39   C     C_R   0.558005 0.191093 0.869499 -0.232053
C40   C     C_R   0.541850 0.238867 0.824267 0.153560
C41   C     C_R   0.381375 0.229074 0.776452 0.041961
C42   C     C_R   0.235423 0.171921 0.775585 -0.034129
C43   C     C_R   0.684714 0.296362 0.826324 -0.189837
C44   C     C_R   0.668647 0.345178 0.782878 -0.171593
C45   C     C_R   0.510658 0.336810 0.734552 0.099799
C46   C     C_R   0.368834 0.276048 0.729410 -0.091939
C47   C     C_R   0.216622 0.261789 0.677255 -0.023007
C48   C     C_R   0.064590 0.206423 0.678866 0.121798
C49   C     C_R   0.073299 0.163182 0.728798 0.313717
C50   C     C_R   0.491558 0.388146 0.691852 0.072642
C51   C     C_R   0.354237 0.368072 0.633683 -0.179939
C52   C     C_R   0.224162 0.302026 0.624330 0.290428
H15   H     H_    0.150836 0.077231 0.819171 0.143406
H16   H     H_    0.680974 0.199284 0.906139 0.112447
H17   H     H_    0.809568 0.303896 0.861941 0.117367
H18   H     H_    0.785090 0.387866 0.786085 0.134697
O11   O     O_R   0.271890 0.085690 0.087580 -0.546864
O12   O     O_R   0.595690 0.070020 0.939870 -0.542479
O13   O     O_R   0.758900 0.914390 0.912370 -0.523294
C53   C     C_R   0.426870 0.084741 0.917897 0.728055
O14   O     O_R   0.602020 0.095100 0.088770 -0.542002
O15   O     O_R   0.765280 0.939660 0.062330 -0.510930
C54   C     C_R   0.432467 0.118396 0.117056 0.707547
O16   O     O_R   0.265520 0.060430 0.937620 -0.546771
O17   O     O_3   0.429560 0.949050 0.991100 -0.353601
V3    V     V_3+5 0.707160 0.009450 0.001650 1.482615
O18   O     O_R   0.094540 0.929890 0.060190 -0.550778
C55   C     C_R   0.925021 0.916292 0.083155 0.735570
O19   O     O_R   0.088200 0.904800 0.911290 -0.525248
C56   C     C_R   0.918353 0.881800 0.883077 0.733754
V4    V     V_3+5 0.206300 0.990390 0.998440 1.479455
O20   O     O_3   0.934030 0.050940 0.008900 -0.388241
O21   O     O_3   0.589915 0.917081 0.169089 -0.645227
H19   H     H_    0.472132 0.885449 0.171215 0.305587
O22   O     O_3   0.655964 0.872308 0.746605 -0.625618
H20   H     H_    0.609417 0.857795 0.695271 0.286285
O23   O     O_3   0.256157 0.803170 0.769363 -0.627479
H21   H     H_    0.310499 0.789899 0.719420 0.285793
O24   O     O_3   0.160767 0.362626 0.224428 -0.657819
H22   H     H_    0.129689 0.341386 0.171281 0.277684
C57   C     C_3   0.611398 0.465726 0.710932 -0.741980
H23   H     H_    0.540522 0.512880 0.693700 0.198118
H24   H     H_    0.627597 0.494049 0.771311 0.188993
H25   H     H_    0.756113 0.452581 0.685347 0.211103
O25   O     O_3   0.110068 0.273750 0.562094 -0.647874
H26   H     H_    0.181284 0.280367 0.520035 0.279159
C58   C     C_3   0.884203 0.196779 0.631862 -0.580045
H27   H     H_    0.916506 0.160244 0.574123 0.224731
H28   H     H_    0.763164 0.166088 0.649832 0.222006
H29   H     H_    0.829054 0.257083 0.635106 0.210453
O26   O     O_3   0.922520 0.111161 0.729376 -0.636437
H30   H     H_    0.893286 0.117529 0.781084 0.288811
O27   O     O_3   0.157931 0.565192 0.308776 -0.639865
H31   H     H_    0.095122 0.515559 0.312108 0.320302
O28   O     O_3   0.460058 0.904453 0.300367 -0.640946
H32   H     H_    0.528296 0.953482 0.297988 0.313271

loop_
_geom_bond_atom_site_label_1
_geom_bond_atom_site_label_2
_ccdc_geom_bond_type
C26   H9    S    
C35   H14   S    
C32   C33   S    
O18   C55   A    
C10   C17   A    
C23   C24   S    
O19   C56   A    
C49   O26   S    
C4    C19   S    
C1    O6    A    
V4    O20   S    
V3    O20   S    
C22   C23   S    
C37   H15   S    
C51   C52   A    
C42   C49   A    
C14   C15   A    
O22   H20   S    
C29   C36   S    
C20   H4    S    
C9    C10   A    
C16   C17   A    
O12   C53   A    
C6    C7    A    
C21   O22   S    
O5    C3    A    
C21   C22   S    
O13   C56   A    
C40   C43   A    
C18   O27   S    
V2    O10   S    
C33   C34   S    
C41   C46   A    
C47   C48   A    
C33   C36   S    
C27   O23   S    
C37   C42   A    
O8    V2    S    
O13   V3    S    
O25   H26   S    
C17   O28   S    
C57   H23   S    
C52   O25   S    
O1    V2    S    
O23   H21   S    
C25   H8    S    
O16   V4    S    
C2    C51   S    
C58   H29   S    
C40   C41   A    
C39   H16   S    
O9    C4    A    
C57   H24   S    
C38   C53   S    
C9    C14   A    
C29   C30   S    
O11   C54   A    
O15   C55   A    
C12   H3    S    
C48   C49   A    
C30   H10   S    
C29   H11   S    
O15   V3    S    
C12   C13   A    
C31   C54   S    
C53   O16   A    
O17   V3    S    
O4    C2    A    
C35   C36   S    
C27   C28   S    
C48   C58   S    
O17   V4    S    
C41   C42   A    
O2    C1    A    
C25   C26   S    
C3    C23   S    
C19   C20   A    
C8    C11   A    
C18   C19   A    
C47   C52   A    
C11   H2    S    
C5    C6    A    
C30   C35   S    
C50   C51   A    
C5    O21   S    
O28   H32   S    
C44   C45   A    
O3    C4    A    
C50   C57   S    
O9    V2    S    
C7    H1    S    
C6    C55   S    
C23   C26   S    
C24   C25   S    
O2    V1    S    
O18   V4    S    
C22   H6    S    
O14   V3    S    
C26   C27   S    
C58   H27   S    
O7    V1    S    
C13   C18   A    
C31   C32   S    
C15   C20   A    
O1    C2    A    
C29   C32   S    
C46   C47   A    
O5    V1    S    
O27   H31   S    
O19   V4    S    
C34   H13   S    
O6    V2    S    
O24   H22   S    
C5    C10   A    
O21   H19   S    
C22   C27   S    
C30   C31   S    
C38   C39   A    
C7    C8    A    
O14   C54   A    
C13   C14   A    
O4    V1    S    
O3    V1    S    
V1    O10   S    
O26   H30   S    
C34   C35   S    
C45   C50   A    
C16   H5    S    
C1    C36   S    
C57   H25   S    
C24   H7    S    
O7    V2    S    
C43   C44   A    
C44   H18   S    
C25   C28   S    
C33   O24   S    
C21   C28   S    
C43   H17   S    
C11   C12   A    
C37   C38   A    
C21   C24   S    
C45   C46   A    
C28   C56   S    
C8    C9    A    
C39   C40   A    
O11   V4    S    
C15   C16   A    
O12   V3    S    
C32   H12   S    
O8    C3    A    
C58   H28   S    
C31   C34   S    
