data_mof_unit_4260.cif
_audit_creation_date              2012-12-11T17:36:21-0500
_audit_creation_method            fapswitch 2.2
_symmetry_space_group_name_H-M    P1
_symmetry_Int_Tables_number       1
_space_group_crystal_system       triclinic
_cell_length_a                    25.956372
_cell_length_b                    6.885054
_cell_length_c                    21.688165
_cell_angle_alpha                 89.999836
_cell_angle_beta                  96.131533
_cell_angle_gamma                 90.000027
_cell_volume                      3853.74125026

loop_
_atom_site_label
_atom_site_type_symbol
_atom_type_description
_atom_site_fract_x
_atom_site_fract_y
_atom_site_fract_z
_atom_type_partial_charge
O1    O     O_R   0.208650 0.594520 0.175450 -0.534393
O2    O     O_R   0.791350 0.405480 0.824550 -0.534392
O3    O     O_R   0.291350 0.094520 0.324550 -0.534393
O4    O     O_R   0.708650 0.905480 0.675450 -0.534393
O5    O     O_R   0.192980 0.260780 0.300160 -0.547638
O6    O     O_R   0.807020 0.739220 0.699840 -0.547639
O7    O     O_R   0.307020 0.760780 0.199840 -0.547638
O8    O     O_R   0.692980 0.239220 0.800160 -0.547638
C1    C     C_R   0.179770 0.433326 0.319848 0.731536
C2    C     C_R   0.820229 0.566674 0.680152 0.731537
C3    C     C_R   0.320229 0.933326 0.180152 0.731537
C4    C     C_R   0.679770 0.066674 0.819848 0.731537
O9    O     O_R   0.202550 0.264660 0.174420 -0.541351
O10   O     O_R   0.797450 0.735340 0.825580 -0.541351
O11   O     O_R   0.297450 0.764660 0.325580 -0.541351
O12   O     O_R   0.702550 0.235340 0.674420 -0.541350
O13   O     O_R   0.300990 0.096480 0.197920 -0.533550
O14   O     O_R   0.699010 0.903520 0.802080 -0.533549
O15   O     O_R   0.199010 0.596480 0.302080 -0.533548
O16   O     O_R   0.800990 0.403520 0.697920 -0.533549
C5    C     C_R   0.190967 0.433986 0.151162 0.800244
C6    C     C_R   0.809033 0.566013 0.848838 0.800243
C7    C     C_R   0.309033 0.933986 0.348838 0.800244
C8    C     C_R   0.690966 0.066014 0.651162 0.800244
O17   O     O_3   0.282290 0.427760 0.257860 -0.368937
O18   O     O_3   0.717710 0.572240 0.742140 -0.368937
O19   O     O_3   0.217710 0.927760 0.242140 -0.368936
O20   O     O_3   0.782290 0.072240 0.757860 -0.368936
V1    V     V_3+5 0.244010 0.152080 0.248540 1.466387
V2    V     V_3+5 0.755990 0.847920 0.751460 1.466387
V3    V     V_3+5 0.255990 0.652080 0.251460 1.466389
V4    V     V_3+5 0.744010 0.347920 0.748540 1.466389
C9    C     C_R   0.657315 0.054218 0.591938 -0.168606
C10   C     C_R   0.342685 0.945782 0.408062 -0.168606
C11   C     C_R   0.842685 0.554218 0.908062 -0.168606
C12   C     C_R   0.157315 0.445782 0.091938 -0.168605
C13   C     C_R   0.650761 0.007783 0.480419 0.169553
C14   C     C_R   0.349239 0.992217 0.519581 0.169553
C15   C     C_R   0.849239 0.507792 0.019582 0.169553
C16   C     C_R   0.150761 0.492209 0.980418 0.169553
C17   C     C_R   0.680291 0.042726 0.537105 -0.293258
C18   C     C_R   0.319709 0.957273 0.462894 -0.293258
C19   C     C_R   0.819709 0.542732 0.962895 -0.293257
C20   C     C_R   0.180291 0.457268 0.037105 -0.293257
C21   C     C_R   0.603285 0.040281 0.590620 0.573846
C22   C     C_R   0.396715 0.959719 0.409380 0.573846
C23   C     C_R   0.896715 0.540277 0.909380 0.573846
C24   C     C_R   0.103285 0.459723 0.090620 0.573846
C25   C     C_R   0.570963 0.020928 0.533162 -0.096456
C26   C     C_R   0.429037 0.979072 0.466838 -0.096456
C27   C     C_R   0.929037 0.520927 0.966838 -0.096455
C28   C     C_R   0.070963 0.479072 0.033162 -0.096455
C29   C     C_R   0.595818 0.988919 0.478309 -0.074185
C30   C     C_R   0.404182 0.011081 0.521691 -0.074185
C31   C     C_R   0.904182 0.488926 0.021692 -0.074186
C32   C     C_R   0.095818 0.511074 0.978308 -0.074185
C33   C     C_R   0.515055 0.025010 0.528452 -0.028608
C34   C     C_R   0.484945 0.974990 0.471548 -0.028608
C35   C     C_R   0.984945 0.525008 0.971547 -0.028608
C36   C     C_R   0.015055 0.474992 0.028453 -0.028608
C37   C     C_R   0.511783 0.915740 0.421841 -0.135977
C38   C     C_R   0.488217 0.084260 0.578159 -0.135977
C39   C     C_R   0.988217 0.415748 0.078160 -0.135977
C40   C     C_R   0.011783 0.584252 0.921840 -0.135977
C41   C     C_R   0.565210 0.931228 0.423705 0.598501
C42   C     C_R   0.434790 0.068772 0.576295 0.598501
C43   C     C_R   0.934790 0.431239 0.076296 0.598502
C44   C     C_R   0.065210 0.568761 0.923704 0.598502
H1    H     H_    0.277903 0.947394 0.460882 0.132305
H2    H     H_    0.722097 0.052606 0.539118 0.132305
H3    H     H_    0.222097 0.447386 0.039118 0.132305
H4    H     H_    0.777903 0.552614 0.960882 0.132305
H5    H     H_    0.492566 0.850554 0.380577 0.230084
H6    H     H_    0.507433 0.149446 0.619423 0.230084
H7    H     H_    0.007433 0.350565 0.119425 0.230084
H8    H     H_    0.992567 0.649434 0.880575 0.230084
C45   C     C_R   0.436190 0.801379 0.093003 0.184832
C46   C     C_R   0.563810 0.198621 0.906997 0.184832
C47   C     C_R   0.063810 0.301379 0.406998 0.184832
C48   C     C_R   0.936190 0.698621 0.593002 0.184832
C49   C     C_R   0.396264 0.792563 0.132318 -0.182333
C50   C     C_R   0.603736 0.207437 0.867682 -0.182333
C51   C     C_R   0.103736 0.292563 0.367682 -0.182334
C52   C     C_R   0.896264 0.707437 0.632318 -0.182334
H9    H     H_    0.392849 0.664406 0.160563 0.144785
H10   H     H_    0.607151 0.335594 0.839437 0.144785
H11   H     H_    0.107151 0.164406 0.339438 0.144785
H12   H     H_    0.892849 0.835594 0.660562 0.144785
C53   C     C_R   0.361322 0.947742 0.136358 -0.099477
C54   C     C_R   0.638678 0.052257 0.863642 -0.099478
C55   C     C_R   0.138678 0.447742 0.363642 -0.099478
C56   C     C_R   0.861322 0.552258 0.636358 -0.099478
C57   C     C_R   0.366476 0.114085 0.098063 0.156077
C58   C     C_R   0.633524 0.885915 0.901937 0.156077
C59   C     C_R   0.133524 0.614084 0.401937 0.156078
C60   C     C_R   0.866476 0.385916 0.598063 0.156078
C61   C     C_R   0.406772 0.122244 0.059636 -0.171146
C62   C     C_R   0.593228 0.877756 0.940364 -0.171147
C63   C     C_R   0.093229 0.622243 0.440364 -0.171147
C64   C     C_R   0.906771 0.377757 0.559636 -0.171147
H13   H     H_    0.410953 0.249522 0.031116 0.129454
H14   H     H_    0.589047 0.750478 0.968884 0.129454
H15   H     H_    0.089048 0.749521 0.468884 0.129454
H16   H     H_    0.910952 0.250479 0.531115 0.129454
C65   C     C_R   0.441782 0.969392 0.057013 0.076251
C66   C     C_R   0.558218 0.030608 0.942987 0.076252
C67   C     C_R   0.058218 0.469391 0.442987 0.076252
C68   C     C_R   0.941782 0.530609 0.557013 0.076252
C69   C     C_1   0.482953 0.989955 0.016819 -0.022917
C70   C     C_1   0.517047 0.010045 0.983181 -0.022917
C71   C     C_1   0.017047 0.489954 0.483181 -0.022917
C72   C     C_1   0.982953 0.510046 0.516819 -0.022917
F1    F     F_    0.586292 0.877727 0.371684 -0.682763
F2    F     F_    0.413708 0.122273 0.628316 -0.682763
F3    F     F_    0.913708 0.377744 0.128318 -0.682764
F4    F     F_    0.086292 0.622257 0.871682 -0.682764
F5    F     F_    0.415773 0.974447 0.353713 -0.709235
F6    F     F_    0.584227 0.025553 0.646287 -0.709235
F7    F     F_    0.084227 0.474457 0.146287 -0.709236
F8    F     F_    0.915773 0.525542 0.853713 -0.709235
C73   C     C_3   0.679563 0.992325 0.423645 -0.589365
H17   H     H_    0.663147 0.096263 0.387625 0.239773
H18   H     H_    0.721333 0.028059 0.434059 0.164237
H19   H     H_    0.677271 0.841545 0.405461 0.244421
C74   C     C_3   0.320437 0.007675 0.576354 -0.589364
H20   H     H_    0.336853 0.903737 0.612375 0.239773
H21   H     H_    0.322728 0.158455 0.594539 0.244421
H22   H     H_    0.278667 0.971941 0.565941 0.164237
C75   C     C_3   0.820437 0.492341 0.076355 -0.589365
H23   H     H_    0.836854 0.596282 0.112375 0.239772
H24   H     H_    0.778667 0.528077 0.065942 0.164237
H25   H     H_    0.822728 0.341563 0.094541 0.244421
C76   C     C_3   0.179563 0.507660 0.923645 -0.589364
H26   H     H_    0.163146 0.403719 0.887625 0.239773
H27   H     H_    0.177271 0.658438 0.905459 0.244421
H28   H     H_    0.221333 0.471925 0.934058 0.164237
C77   C     C_3   0.472407 0.631592 0.089911 -0.758048
H29   H     H_    0.512818 0.678229 0.104520 0.223675
H30   H     H_    0.462652 0.510859 0.120603 0.218525
H31   H     H_    0.469888 0.575712 0.041654 0.197696
C78   C     C_3   0.527593 0.368408 0.910089 -0.758049
H32   H     H_    0.487182 0.321771 0.895480 0.223675
H33   H     H_    0.530111 0.424288 0.958346 0.197696
H34   H     H_    0.537348 0.489141 0.879397 0.218525
C79   C     C_3   0.027593 0.131592 0.410089 -0.758049
H35   H     H_    0.987182 0.178230 0.395480 0.223676
H36   H     H_    0.037348 0.010860 0.379397 0.218525
H37   H     H_    0.030111 0.075711 0.458346 0.197696
C80   C     C_3   0.972407 0.868408 0.589911 -0.758049
H38   H     H_    0.012818 0.821770 0.604520 0.223676
H39   H     H_    0.969889 0.924289 0.541654 0.197696
H40   H     H_    0.962652 0.989140 0.620602 0.218525
C81   C     C_3   0.329171 0.282879 0.095222 -0.747233
H41   H     H_    0.288811 0.228802 0.085979 0.190786
H42   H     H_    0.334097 0.365527 0.139366 0.222233
H43   H     H_    0.335719 0.386330 0.057519 0.190271
C82   C     C_3   0.670829 0.717121 0.904778 -0.747233
H44   H     H_    0.711189 0.771198 0.914021 0.190786
H45   H     H_    0.664280 0.613670 0.942481 0.190272
H46   H     H_    0.665903 0.634473 0.860634 0.222233
C83   C     C_3   0.170829 0.782877 0.404778 -0.747234
H47   H     H_    0.211189 0.728799 0.414022 0.190787
H48   H     H_    0.165903 0.865526 0.360635 0.222233
H49   H     H_    0.164281 0.886327 0.442481 0.190271
C84   C     C_3   0.829171 0.217123 0.595222 -0.747234
H50   H     H_    0.788811 0.271201 0.585978 0.190787
H51   H     H_    0.835719 0.113673 0.557519 0.190271
H52   H     H_    0.834097 0.134474 0.639365 0.222233

loop_
_geom_bond_atom_site_label_1
_geom_bond_atom_site_label_2
_ccdc_geom_bond_type
C21   F6    S    
O17   V3    S    
C51   H11   S    
O1    C5    A    
C82   H44   S    
C46   C50   A    
O19   V1    S    
C9    C21   A    
C63   H15   S    
C71   C72   T    
C10   C18   A    
O1    V3    S    
C48   C52   A    
C11   C23   A    
C1    C55   S    
C83   H47   S    
C25   C33   A    
C33   C38   A    
C47   C79   S    
C5    C12   S    
O7    C3    A    
C6    C11   S    
C77   H30   S    
C35   C40   A    
C19   H4    S    
C36   C39   A    
C40   C44   A    
O9    V1    S    
C45   C77   S    
C14   C18   A    
C80   H39   S    
C79   H35   S    
O4    C8    A    
C59   C63   A    
C58   C62   A    
C56   C60   A    
O13   V1    S    
C20   H3    S    
O2    V4    S    
C66   C70   S    
O3    V1    S    
C43   F3    S    
C73   H19   S    
C28   C36   A    
C83   H48   S    
O3    C7    A    
C1    O15   A    
C64   H16   S    
C15   C31   A    
C2    O16   A    
C16   C32   A    
O2    C6    A    
C74   H22   S    
C10   C22   A    
C45   C49   A    
C81   H42   S    
C11   C19   A    
C16   C20   A    
C75   H25   S    
C13   C29   A    
C34   C37   A    
O11   C7    A    
C77   H29   S    
O15   V3    S    
C35   C36   A    
O12   C8    A    
C53   C57   A    
C59   C83   S    
C41   F1    S    
O10   V2    S    
C79   H36   S    
C54   C58   A    
C24   F7    S    
O5    V1    S    
O17   V1    S    
C48   C80   S    
C47   C67   A    
C77   H31   S    
C39   C43   A    
C14   C74   S    
C64   C68   A    
O7    V3    S    
C38   C42   A    
O19   V3    S    
C26   C34   A    
O20   V4    S    
C46   C78   S    
O18   V4    S    
C15   C19   A    
C15   C75   S    
C37   H5    S    
C32   C44   A    
C55   C59   A    
C18   H1    S    
C68   C72   S    
C22   F5    S    
C78   H33   S    
O8    V4    S    
C82   H45   S    
O5    C1    A    
C62   H14   S    
C76   H28   S    
C3    C53   S    
C31   C43   A    
C14   C30   A    
C21   C25   A    
O8    C4    A    
C7    C10   S    
C61   H13   S    
C48   C68   A    
C40   H8    S    
O9    C5    A    
C26   C30   A    
C81   H43   S    
C73   H17   S    
C44   F4    S    
C13   C73   S    
C23   F8    S    
O6    V2    S    
O18   V2    S    
C58   C82   S    
C78   H32   S    
C74   H20   S    
C80   H40   S    
C27   C35   A    
C4    O14   A    
C51   C55   A    
C57   C61   A    
C83   H49   S    
C29   C41   A    
C79   H37   S    
C76   H27   S    
C75   H23   S    
O16   V4    S    
C4    C54   S    
C65   C69   S    
C3    O13   A    
C42   F2    S    
C67   C71   S    
C52   H12   S    
C50   C54   A    
O6    C2    A    
C23   C27   A    
O11   V3    S    
C84   H52   S    
C78   H34   S    
C82   H46   S    
O12   V4    S    
C63   C67   A    
C16   C76   S    
C22   C26   A    
C8    C9    S    
C62   C66   A    
C46   C66   A    
C9    C17   A    
O10   C6    A    
C57   C81   S    
C61   C65   A    
O20   V2    S    
C50   H10   S    
C80   H38   S    
C47   C51   A    
C33   C34   A    
C76   H26   S    
C39   H7    S    
C25   C29   A    
C60   C64   A    
C45   C65   A    
C12   C24   A    
C27   C31   A    
C49   C53   A    
C13   C17   A    
O4    V2    S    
C73   H18   S    
C12   C20   A    
O14   V2    S    
C2    C56   S    
C37   C41   A    
C84   H50   S    
C24   C28   A    
C84   H51   S    
C69   C70   T    
C74   H21   S    
C60   C84   S    
C38   H6    S    
C52   C56   A    
C81   H41   S    
C30   C42   A    
C49   H9    S    
C28   C32   A    
C17   H2    S    
C75   H24   S    
