data_mof_unit_3600.cif
_audit_creation_date              2012-12-11T17:14:07-0500
_audit_creation_method            fapswitch 2.2
_symmetry_space_group_name_H-M    P1
_symmetry_Int_Tables_number       1
_space_group_crystal_system       triclinic
_cell_length_a                    18.225971
_cell_length_b                    7.093414
_cell_length_c                    13.018337
_cell_angle_alpha                 90.369724
_cell_angle_beta                  72.014922
_cell_angle_gamma                 89.894568
_cell_volume                      1600.78123367

loop_
_atom_site_label
_atom_site_type_symbol
_atom_type_description
_atom_site_fract_x
_atom_site_fract_y
_atom_site_fract_z
_atom_type_partial_charge
O1    O     O_R   0.453880 0.506200 0.150010 -0.538430
O2    O     O_R   0.546120 0.006200 0.849990 -0.538020
O3    O     O_R   0.604080 0.177770 0.007280 -0.539634
O4    O     O_R   0.395920 0.677770 0.992720 -0.539878
C1    C     C_R   0.635971 0.344409 0.001801 0.730117
C2    C     C_R   0.364028 0.844617 0.998184 0.730541
O5    O     O_R   0.458010 0.176640 0.159130 -0.541258
O6    O     O_R   0.541990 0.676640 0.840870 -0.541732
O7    O     O_R   0.399010 0.004010 0.002930 -0.535893
O8    O     O_R   0.600990 0.504010 0.997070 -0.536264
C3    C     C_R   0.443222 0.346116 0.201727 0.689615
C4    C     C_R   0.556816 0.844392 0.798207 0.689600
O9    O     O_3   0.480810 0.338440 0.948570 -0.374283
O10   O     O_3   0.519190 0.838440 0.051430 -0.374970
V1    V     V_3+5 0.503560 0.064490 0.009540 1.425125
V2    V     V_3+5 0.496440 0.564490 0.990460 1.423757
C5    C     C_R   0.583294 0.813068 0.501349 -0.162463
C6    C     C_R   0.415799 0.427341 0.496119 -0.161679
H1    H     H_    0.486021 0.806142 0.645104 0.104692
H2    H     H_    0.513114 0.423843 0.352279 0.106096
H3    H     H_    0.662510 0.798233 0.293249 0.125569
H4    H     H_    0.336115 0.466354 0.703056 0.124696
H5    H     H_    0.547646 0.792737 0.449200 0.119711
H6    H     H_    0.451023 0.462325 0.547071 0.119673
C7    C     C_R   0.592637 0.848652 0.681340 -0.027163
C8    C     C_R   0.407253 0.358807 0.318410 -0.028172
C9    C     C_R   0.953929 0.887056 0.384409 -0.170794
C10   C     C_R   0.046627 0.312860 0.617290 -0.169797
C11   C     C_R   0.922237 0.894808 0.495980 -0.123989
C12   C     C_R   0.078582 0.290207 0.506379 -0.123137
C13   C     C_R   0.842689 0.882942 0.543940 -0.161058
C14   C     C_R   0.157910 0.306738 0.457766 -0.161281
C15   C     C_R   0.792321 0.862131 0.480587 0.077859
C16   C     C_R   0.207779 0.347471 0.519745 0.077712
C17   C     C_R   0.825433 0.850958 0.366138 0.066398
C18   C     C_R   0.174372 0.373399 0.633384 0.066090
C19   C     C_R   0.710370 0.852341 0.526808 0.071530
C20   C     C_R   0.289511 0.363099 0.472943 0.071221
C21   C     C_R   0.663788 0.827708 0.457883 0.140223
C22   C     C_R   0.335555 0.407454 0.540353 0.139668
C23   C     C_R   0.697715 0.816575 0.346176 -0.207716
C24   C     C_R   0.301329 0.432775 0.651271 -0.206666
C25   C     C_R   0.777136 0.828816 0.300854 -0.196606
C26   C     C_R   0.222139 0.415410 0.697252 -0.196409
C27   C     C_R   0.672757 0.864961 0.639258 -0.214145
C28   C     C_R   0.327410 0.337262 0.361315 -0.214003
C29   C     C_R   0.548032 0.821589 0.612568 -0.177747
C30   C     C_R   0.451331 0.404726 0.385570 -0.177405
C31   C     C_R   0.906437 0.864547 0.319066 -0.070779
C32   C     C_R   0.093622 0.354835 0.681173 -0.071593
H7    H     H_    0.703821 0.883767 0.696804 0.096165
H8    H     H_    0.296760 0.303362 0.304915 0.096305
H9    H     H_    0.015850 0.899653 0.348678 0.103577
H10   H     H_    0.984913 0.296770 0.653677 0.104310
H11   H     H_    0.822753 0.890609 0.630772 0.107608
H12   H     H_    0.178072 0.286723 0.371540 0.107580
H13   H     H_    0.800381 0.819966 0.213741 0.125803
H14   H     H_    0.198636 0.435995 0.783724 0.125970
C33   C     C_1   0.216319 0.858593 0.000260 -0.187086
C34   C     C_1   0.783680 0.358915 0.999725 -0.186664
C35   C     C_1   0.283612 0.852701 0.999067 -0.188681
C36   C     C_1   0.716392 0.352460 0.000926 -0.188461
O11   O     O_R   0.899030 0.205490 0.002790 -0.535203
O12   O     O_R   0.100970 0.705490 0.997210 -0.536826
O13   O     O_R   0.042000 0.536370 0.840840 -0.541236
O14   O     O_R   0.958000 0.036370 0.159160 -0.540280
C37   C     C_R   0.057564 0.367364 0.798299 0.680779
C38   C     C_R   0.942369 0.869064 0.201766 0.681064
O15   O     O_R   0.895930 0.535070 0.992690 -0.540501
O16   O     O_R   0.104070 0.035070 0.007310 -0.538884
O17   O     O_R   0.953870 0.707520 0.150040 -0.538523
O18   O     O_R   0.046130 0.207520 0.849960 -0.537414
C39   C     C_R   0.864127 0.366865 0.998720 0.728733
C40   C     C_R   0.135877 0.866629 0.001279 0.729128
O19   O     O_3   0.019200 0.374340 0.051340 -0.373988
O20   O     O_3   0.980800 0.874340 0.948660 -0.374403
V3    V     V_3+5 0.996440 0.648350 0.990470 1.422824
V4    V     V_3+5 0.003560 0.148350 0.009530 1.427516
H15   H     H_    0.959610 0.911732 0.545874 0.126914
H16   H     H_    0.041604 0.258231 0.457564 0.126948

loop_
_geom_bond_atom_site_label_1
_geom_bond_atom_site_label_2
_ccdc_geom_bond_type
O14   C38   A    
C31   C38   S    
C9    C11   A    
O12   V3    S    
O15   V3    S    
O1    C3    A    
O2    C4    A    
C2    O7    A    
O3    V1    S    
C21   C23   A    
O5    C3    A    
C5    H5    S    
C6    H6    S    
C2    C35   S    
O20   V4    S    
H1    C29   S    
O16   V4    S    
C27   H7    S    
C28   H8    S    
C34   C39   S    
C34   C36   T    
C37   O18   A    
C5    C21   A    
C6    C22   A    
O18   V4    S    
C10   C32   A    
C26   H14   S    
O13   C37   A    
C17   C31   A    
C13   C15   A    
O15   C39   A    
C12   C14   A    
C17   C25   A    
C32   C37   S    
C7    C29   A    
C8    C30   A    
C12   H16   S    
C22   C24   A    
O6    V2    S    
C23   C25   A    
C24   C26   A    
O14   V4    S    
C33   C35   T    
O13   V3    S    
O20   V3    S    
O4    C2    A    
C10   H10   S    
O11   C39   A    
C3    C8    S    
C15   C19   A    
C14   C16   A    
O4    V2    S    
O16   C40   A    
C11   H15   S    
O6    C4    A    
O1    V2    S    
O2    V1    S    
O19   V3    S    
C33   C40   S    
H2    C30   S    
H3    C23   S    
C18   C26   A    
C19   C27   A    
C7    C27   A    
O17   V3    S    
C18   C32   A    
C16   C20   A    
C5    C29   A    
O3    C1    A    
C6    C30   A    
C9    H9    S    
C4    C7    S    
C10   C12   A    
O7    V1    S    
C1    O8    A    
C19   C21   A    
O8    V2    S    
C20   C22   A    
H4    C24   S    
C38   O17   A    
O5    V1    S    
C15   C17   A    
C1    C36   S    
C16   C18   A    
O19   V4    S    
C20   C28   A    
C25   H13   S    
C11   C13   A    
O9    V2    S    
O12   C40   A    
O10   V1    S    
C13   H11   S    
C8    C28   A    
C14   H12   S    
C9    C31   A    
O11   V4    S    
