data_mof_unit_322.cif
_audit_creation_date              2012-12-10T18:44:27-0500
_audit_creation_method            fapswitch 2.2
_symmetry_space_group_name_H-M    P1
_symmetry_Int_Tables_number       1
_space_group_crystal_system       triclinic
_cell_length_a                    12.889163
_cell_length_b                    10.669367
_cell_length_c                    9.836868
_cell_angle_alpha                 89.641131
_cell_angle_beta                  96.921911
_cell_angle_gamma                 90.098888
_cell_volume                      1342.87152256

loop_
_atom_site_label
_atom_site_type_symbol
_atom_type_description
_atom_site_fract_x
_atom_site_fract_y
_atom_site_fract_z
_atom_type_partial_charge
C1    C     C_R   0.499704 0.259974 0.500235 0.862850
C2    C     C_R   0.701875 0.500669 0.526537 0.883364
C3    C     C_R   0.813907 0.500092 0.542275 -0.057876
C4    C     C_R   0.186106 0.499509 0.457723 -0.054488
C5    C     C_R   0.021258 0.527812 0.318361 -0.221792
C6    C     C_R   0.978747 0.471497 0.681603 -0.224914
C7    C     C_R   0.129120 0.521687 0.329429 -0.210064
C8    C     C_R   0.870884 0.477798 0.670554 -0.207072
C9    C     C_R   0.135974 0.480938 0.574311 -0.277345
C10   C     C_R   0.864049 0.518459 0.425667 -0.270767
C11   C     C_R   0.028866 0.487668 0.564427 0.184208
C12   C     C_R   0.499699 0.740058 0.499814 0.861003
C13   C     C_R   0.971147 0.511621 0.435539 0.181978
C14   C     C_R   0.453506 0.064964 0.384166 -0.194323
C15   C     C_R   0.543736 0.935181 0.616909 -0.194038
C16   C     C_R   0.452879 0.936495 0.384259 -0.222026
C17   C     C_R   0.543694 0.063630 0.617160 -0.202734
C18   C     C_3   0.607135 0.790973 0.123818 0.069238
C19   C     C_3   0.705115 0.848318 0.074958 -0.357701
C20   C     C_3   0.687631 0.985920 0.035181 -0.961714
C21   C     C_3   0.320657 0.242419 0.889856 0.049428
C22   C     C_3   0.391051 0.132126 0.942762 -0.365077
C23   C     C_R   0.498935 0.872466 0.500059 -0.003071
C24   C     C_3   0.327915 0.027915 0.000863 -0.967605
C25   C     C_R   0.498889 0.127627 0.500633 0.001885
C26   C     C_R   0.560264 0.583967 0.081188 0.555594
C27   C     C_R   0.438141 0.416365 0.917023 0.574035
C28   C     C_R   0.561284 0.581580 0.936736 -0.312263
C29   C     C_R   0.439068 0.417479 0.063500 -0.347502
C30   C     C_R   0.298129 0.499238 0.473466 0.883817
H1    H     H_    0.819932 0.537141 0.326567 0.186001
H2    H     H_    0.579781 0.112754 0.706815 0.149584
H3    H     H_    0.611110 0.644778 0.887911 0.164214
H4    H     H_    0.392836 0.353432 0.116385 0.166630
H5    H     H_    0.590801 0.842702 0.216194 0.185021
H6    H     H_    0.538150 0.806324 0.045228 0.109145
H7    H     H_    0.771276 0.841166 0.158289 0.232855
H8    H     H_    0.726570 0.796243 0.985116 0.210598
H9    H     H_    0.622878 0.995011 0.950353 0.256512
H10   H     H_    0.759830 0.025326 0.000488 0.267106
H11   H     H_    0.668154 0.040692 0.124390 0.271095
H12   H     H_    0.180105 0.462287 0.673412 0.175177
H13   H     H_    0.261433 0.205745 0.808310 0.174787
H14   H     H_    0.273994 0.280764 0.967834 0.113085
H15   H     H_    0.429713 0.093860 0.856993 0.237076
H16   H     H_    0.453073 0.163376 0.023577 0.212326
H17   H     H_    0.288300 0.063672 0.087014 0.261263
H18   H     H_    0.380905 0.950250 0.039255 0.254869
H19   H     H_    0.268347 0.990769 0.920085 0.271126
H20   H     H_    0.832235 0.463505 0.761305 0.162969
H21   H     H_    0.167762 0.536072 0.238685 0.160760
H22   H     H_    0.977301 0.545870 0.219149 0.140181
H23   H     H_    0.022703 0.453410 0.780811 0.135498
H24   H     H_    0.417840 0.115222 0.294516 0.155811
H25   H     H_    0.579743 0.885093 0.706583 0.150103
H26   H     H_    0.416291 0.887328 0.294957 0.145849
N1    N     N_R   0.499970 0.499970 0.857200 -0.126221
N2    N     N_R   0.500030 0.500030 0.142800 -0.124599
O1    O     O_R   0.499990 0.316750 0.614620 -0.576796
O2    O     O_3   0.377770 0.335689 0.828141 -0.614805
O3    O     O_R   0.500010 0.683250 0.385380 -0.602139
O4    O     O_R   0.499990 0.316780 0.385290 -0.633258
O5    O     O_R   0.500010 0.683220 0.614710 -0.628797
O6    O     O_R   0.346360 0.499970 0.595710 -0.581845
O7    O     O_R   0.653640 0.500030 0.404290 -0.579661
O8    O     O_R   0.346360 0.499990 0.366380 -0.635636
O9    O     O_R   0.653640 0.500010 0.633620 -0.634992
O10   O     O_3   0.625573 0.663915 0.162553 -0.623848
Zn1   Zn    Zn3+2 0.500000 0.499980 0.653120 0.983633
Zn2   Zn    Zn3+2 0.500000 0.500020 0.346880 0.974295

loop_
_geom_bond_atom_site_label_1
_geom_bond_atom_site_label_2
_ccdc_geom_bond_type
O3    Zn2   S    
C16   H26   S    
C5    H22   S    
C19   H8    S    
C30   O6    A    
C27   C29   A    
C21   H14   S    
C11   C13   A    
C18   H5    S    
C5    C13   A    
C19   C20   S    
C18   O10   S    
C2    O7    A    
C17   C25   A    
C1    O4    A    
C12   O5    A    
C2    O9    A    
C15   C23   A    
C2    C3    S    
C26   O10   S    
C3    C10   A    
C30   O8    A    
O6    Zn1   S    
C1    C25   S    
C12   O3    A    
C9    C11   A    
C12   C23   S    
C9    H12   S    
O8    Zn2   S    
C18   H6    S    
O1    Zn1   S    
C4    C7    A    
C29   H4    S    
C21   C22   S    
C22   H16   S    
C28   H3    S    
C20   H11   S    
C16   C23   A    
C22   C24   S    
C27   O2    S    
C1    O1    A    
C14   C25   A    
N1    Zn1   S    
C20   H10   S    
C14   C16   A    
C4    C30   S    
C6    H23   S    
C7    H21   S    
O7    Zn2   S    
C24   H18   S    
C8    H20   S    
C6    C11   A    
C22   H15   S    
C18   C19   S    
C29   N2    A    
O4    Zn2   S    
C21   O2    S    
C15   C17   A    
C3    C8    A    
C27   N1    A    
C24   H19   S    
C17   H2    S    
C20   H9    S    
C5    C7    A    
N2    Zn2   S    
C6    C8    A    
C19   H7    S    
C14   H24   S    
C4    C9    A    
C28   N1    A    
C24   H17   S    
C26   C28   A    
C10   H1    S    
C26   N2    A    
C21   H13   S    
O5    Zn1   S    
O9    Zn1   S    
C10   C13   A    
C15   H25   S    
