data_mof_unit_4339.cif
_audit_creation_date              2012-12-10T17:29:15-0500
_audit_creation_method            fapswitch 2.2
_symmetry_space_group_name_H-M    P1
_symmetry_Int_Tables_number       1
_space_group_crystal_system       triclinic
_cell_length_a                    11.994064
_cell_length_b                    12.976207
_cell_length_c                    13.112637
_cell_angle_alpha                 86.634049
_cell_angle_beta                  113.17909
_cell_angle_gamma                 92.904469
_cell_volume                      1871.99949326

loop_
_atom_site_label
_atom_site_type_symbol
_atom_type_description
_atom_site_fract_x
_atom_site_fract_y
_atom_site_fract_z
_atom_type_partial_charge
C1    C     C_R   0.477041 0.299716 0.497299 0.932452
C2    C     C_R   0.556964 0.484382 0.989356 0.074894
C3    C     C_R   0.533134 0.451736 0.882302 -0.116111
C4    C     C_R   0.461841 0.476915 0.027911 -0.074598
C5    C     C_R   0.354350 0.417465 0.969633 -0.083883
C6    C     C_R   0.343420 0.368717 0.873881 -0.281757
C7    C     C_R   0.433456 0.382687 0.831957 0.507743
C8    C     C_R   0.468624 0.528381 0.121418 0.411633
C9    C     C_R   0.285844 0.437308 0.117452 -0.389146
C10   C     C_R   0.611918 0.486449 0.830396 -0.222983
C11   C     C_R   0.532681 0.812049 0.503606 -0.170730
C12   C     C_R   0.566710 0.492489 0.709011 0.965923
C13   C     C_R   0.462864 0.188896 0.498347 -0.169902
C14   C     C_R   0.367175 0.032437 0.534923 -0.345767
C15   C     C_R   0.365372 0.138770 0.517359 0.460454
C16   C     C_R   0.552101 0.132445 0.485027 -0.340539
C17   C     C_R   0.547649 0.026074 0.493671 0.130798
C18   C     C_R   0.452753 0.975476 0.516433 0.008297
C19   C     C_R   0.441751 0.868488 0.516634 0.423333
C20   C     C_R   0.630546 0.862983 0.487270 -0.287823
C21   C     C_R   0.637069 0.969848 0.480668 -0.206218
C22   C     C_R   0.996088 0.570476 0.371995 -0.322248
C23   C     C_R   0.521964 0.700599 0.502482 0.880541
C24   C     C_R   0.118341 0.564748 0.386327 -0.011865
C25   C     C_R   0.165705 0.475295 0.560030 0.010454
C26   C     C_R   0.042749 0.476085 0.547376 0.016134
C27   C     C_R   0.957342 0.526151 0.453210 0.096989
C28   C     C_R   0.835229 0.529527 0.442551 -0.165271
C29   C     C_R   0.878311 0.424343 0.607107 0.652302
C30   C     C_R   0.002687 0.425334 0.624689 -0.468870
C31   C     C_R   0.433616 0.505324 0.291642 0.927304
C32   C     C_R   0.262183 0.404104 0.011215 0.557554
C33   C     C_R   0.390614 0.496052 0.173081 -0.244667
C34   C     C_R   0.728077 0.528379 0.894542 0.535084
C35   C     C_R   0.762132 0.536732 0.008472 -0.303039
C36   C     C_R   0.676950 0.517529 0.055206 -0.172375
H1    H     H_    0.225970 0.412497 0.158709 0.186945
H2    H     H_    0.700460 0.820277 0.477013 0.180322
H3    H     H_    0.299564 0.994772 0.560731 0.193961
H4    H     H_    0.711569 0.008425 0.465234 0.143755
H5    H     H_    0.625188 0.171220 0.467476 0.176683
H6    H     H_    0.769820 0.571465 0.372585 0.186678
H7    H     H_    0.932285 0.608091 0.297370 0.144474
H8    H     H_    0.066953 0.385574 0.697254 0.173315
H9    H     H_    0.146363 0.596374 0.321719 0.118899
H10   H     H_    0.266882 0.317095 0.832585 0.199445
H11   H     H_    0.231438 0.435984 0.631628 0.173357
H12   H     H_    0.708741 0.524086 0.143880 0.206036
H13   H     H_    0.853530 0.562052 0.060074 0.151798
N1    N     N_R   0.798200 0.480260 0.519790 -0.131388
N2    N     N_R   0.201820 0.519740 0.480210 -0.096442
O1    O     O_R   0.579910 0.341070 0.505280 -0.625488
O2    O     O_R   0.388440 0.353740 0.492580 -0.543335
O3    O     O_R   0.643280 0.490550 0.663120 -0.529799
O4    O     O_R   0.451810 0.503220 0.650420 -0.601385
O5    O     O_R   0.611560 0.646260 0.507420 -0.630178
O6    O     O_R   0.420090 0.658930 0.494720 -0.585931
O7    O     O_R   0.548190 0.496780 0.349580 -0.588184
O8    O     O_R   0.356720 0.509450 0.336880 -0.656009
Zn1   Zn    Zn3+2 0.627850 0.491540 0.508480 1.000186
Zn2   Zn    Zn3+2 0.372150 0.508460 0.491520 0.984074
O9    O     O_3   0.274820 0.194466 0.527819 -0.560903
C37   C     C_3   0.159954 0.162095 0.449583 0.102155
H14   H     H_    0.129191 0.088173 0.478813 0.128381
H15   H     H_    0.161502 0.152590 0.366096 0.126259
C38   C     C_3   0.067146 0.242512 0.436790 -0.803266
H16   H     H_    0.092038 0.316504 0.403073 0.263120
H17   H     H_    0.976030 0.215960 0.378433 0.193367
H18   H     H_    0.063388 0.254346 0.518520 0.252355
O10   O     O_3   0.836804 0.371547 0.680566 -0.581293
C39   C     C_3   0.853225 0.264528 0.679403 0.075852
H19   H     H_    0.950545 0.245827 0.723494 0.149578
H20   H     H_    0.819796 0.237522 0.592961 0.126479
C40   C     C_3   0.782343 0.205171 0.739080 -0.808088
H21   H     H_    0.685525 0.225463 0.700317 0.262271
H22   H     H_    0.789325 0.120843 0.733522 0.209871
H23   H     H_    0.818760 0.224420 0.827870 0.237968
O11   O     O_3   0.158068 0.345650 0.955613 -0.643087
C41   C     C_3   0.055726 0.406688 0.930766 -0.247413
H24   H     H_    0.973331 0.358812 0.888249 0.234954
H25   H     H_    0.056696 0.473837 0.874225 0.188591
H26   H     H_    0.047422 0.433208 0.006462 0.156627
O12   O     O_3   0.557049 0.604011 0.168300 -0.631971
C42   C     C_3   0.502924 0.701294 0.145030 0.106530
H27   H     H_    0.437636 0.706459 0.185707 0.121728
H28   H     H_    0.455259 0.716475 0.053761 0.143296
C43   C     C_3   0.601544 0.784514 0.190399 -0.841438
H29   H     H_    0.666199 0.783631 0.148793 0.250433
H30   H     H_    0.560299 0.861562 0.175195 0.210951
H31   H     H_    0.651690 0.770450 0.281120 0.253153
O13   O     O_3   0.810890 0.555259 0.847440 -0.595652
C44   C     C_3   0.814297 0.663590 0.831559 -0.308201
H32   H     H_    0.851031 0.702172 0.912279 0.148703
H33   H     H_    0.723073 0.693035 0.778147 0.154398
H34   H     H_    0.875792 0.684476 0.788284 0.192071
O14   O     O_3   0.428999 0.320877 0.748026 -0.585158
C45   C     C_3   0.496830 0.232506 0.798014 -0.295317
H35   H     H_    0.456292 0.186536 0.849945 0.165637
H36   H     H_    0.593490 0.253357 0.848372 0.147920
H37   H     H_    0.495824 0.182342 0.732384 0.194436
O15   O     O_3   0.345531 0.819420 0.535544 -0.592951
C46   C     C_3   0.238740 0.823839 0.436742 0.114466
H38   H     H_    0.237896 0.761767 0.381831 0.153995
H39   H     H_    0.229422 0.898398 0.387787 0.103791
C47   C     C_3   0.128475 0.809053 0.466806 -0.835239
H40   H     H_    0.136008 0.737319 0.519269 0.280607
H41   H     H_    0.122035 0.875466 0.513639 0.231480
H42   H     H_    0.044616 0.803781 0.390078 0.202668

loop_
_geom_bond_atom_site_label_1
_geom_bond_atom_site_label_2
_ccdc_geom_bond_type
C38   H17   S    
C43   H29   S    
C37   H15   S    
O15   C46   S    
C8    O12   S    
C14   C18   A    
C35   C36   A    
N2    Zn2   S    
C42   C43   S    
C4    C8    A    
C45   H35   S    
C23   O5    A    
O3    Zn1   S    
C7    O14   S    
C47   H41   S    
C11   C19   A    
C26   C27   A    
C29   C30   A    
C40   H22   S    
C24   H9    S    
C31   O7    A    
C42   H28   S    
C18   C19   A    
C3    C7    A    
C5    C6    A    
C38   H18   S    
O7    Zn1   S    
C46   C47   S    
C34   C35   A    
C31   O8    A    
C1    O2    A    
C34   O13   S    
O1    Zn1   S    
C9    C32   A    
C14   H3    S    
C28   N1    A    
O12   C42   S    
C16   C17   A    
C40   H23   S    
C35   H13   S    
C31   C33   S    
O10   C39   S    
C25   H11   S    
C5    C32   A    
C24   N2    A    
C38   H16   S    
C37   C38   S    
C9    C33   A    
C28   H6    S    
C30   H8    S    
O2    Zn2   S    
C9    H1    S    
C45   H36   S    
C29   N1    A    
C47   H42   S    
C11   C20   A    
O8    Zn2   S    
C40   H21   S    
C42   H27   S    
O13   C44   S    
C41   H25   S    
O11   C41   S    
C25   C26   A    
C44   H34   S    
C17   C21   A    
O5    Zn1   S    
C2    C4    A    
C25   N2    A    
O9    C37   S    
C41   H26   S    
C20   H2    S    
C22   H7    S    
O14   C45   S    
C44   H33   S    
C17   C18   A    
C10   C34   A    
C46   H39   S    
C10   C12   S    
C26   C30   A    
C22   C27   A    
C43   H30   S    
C22   C24   A    
C41   H24   S    
C43   H31   S    
C1    C13   S    
C45   H37   S    
C39   H20   S    
C29   O10   S    
C2    C36   A    
C23   O6    A    
C6    H10   S    
C4    C5    A    
C39   C40   S    
O6    Zn2   S    
C6    C7    A    
C47   H40   S    
N1    Zn1   S    
C13   C15   A    
C2    C3    A    
C39   H19   S    
C3    C10   A    
C19   O15   S    
C21   H4    S    
O4    Zn2   S    
C11   C23   S    
C44   H32   S    
C15   O9    S    
C36   H12   S    
C8    C33   A    
C46   H38   S    
C1    O1    A    
C12   O4    A    
C32   O11   S    
C37   H14   S    
C20   C21   A    
C13   C16   A    
C27   C28   A    
C14   C15   A    
C16   H5    S    
C12   O3    A    
