data_mof_unit_1943.cif
_audit_creation_date              2012-10-26T20:14:30-0400
_audit_creation_method            fapswitch 2.2
_symmetry_space_group_name_H-M    P1
_symmetry_Int_Tables_number       1
_space_group_crystal_system       triclinic
_cell_length_a                    7.788208
_cell_length_b                    9.095165
_cell_length_c                    17.131957
_cell_angle_alpha                 89.999876
_cell_angle_beta                  85.813272
_cell_angle_gamma                 90.000074
_cell_volume                      1210.30436312

loop_
_atom_site_label
_atom_site_type_symbol
_atom_type_description
_atom_site_fract_x
_atom_site_fract_y
_atom_site_fract_z
_atom_type_partial_charge
C1    C     C_R   0.500000 0.779963 0.500000 0.549185
C2    C     C_R   0.431160 0.632676 0.235155 -0.174922
C3    C     C_R   0.552444 0.672655 0.843671 0.012155
C4    C     C_R   0.447614 0.672671 0.156328 0.012156
C5    C     C_R   0.434604 0.594564 0.895169 -0.004620
C6    C     C_R   0.565411 0.594537 0.104829 -0.004628
C7    C     C_R   0.327351 0.487691 0.865401 -0.061110
C8    C     C_R   0.672617 0.487627 0.134598 -0.061102
C9    C     C_R   0.341436 0.449828 0.786336 0.245246
C10   C     C_R   0.658527 0.449774 0.213664 0.245250
C11   C     C_2   0.428000 0.610107 0.980827 -0.028066
C12   C     C_R   0.500000 0.220035 0.500000 0.545640
C13   C     C_2   0.572020 0.610080 0.019171 -0.028069
C14   C     C_2   0.345878 0.800892 0.132391 0.242137
C15   C     C_2   0.654238 0.800841 0.867607 0.242129
C16   C     C_1   0.500000 0.934625 0.500000 -0.040144
C17   C     C_1   0.500000 0.065370 0.500000 -0.039304
C18   C     C_R   0.477495 0.500502 0.650780 0.524814
C19   C     C_R   0.522505 0.500499 0.349220 0.524806
C20   C     C_R   0.464574 0.523190 0.735491 0.005374
C21   C     C_R   0.535429 0.523181 0.264509 0.005379
C22   C     C_R   0.568889 0.632652 0.764845 -0.174922
Cu1   Cu    Cu3+1 0.330920 0.500000 0.500000 1.043795
Cu2   Cu    Cu3+1 0.669080 0.500000 0.500000 1.043791
H1    H     H_    0.236650 0.428126 0.904685 0.149589
H2    H     H_    0.282569 0.301004 0.710870 0.336774
H3    H     H_    0.763286 0.428028 0.095313 0.149603
H4    H     H_    0.658225 0.692535 0.724978 0.124066
H5    H     H_    0.341855 0.692591 0.275022 0.124050
H6    H     H_    0.696483 0.599770 0.986526 0.124931
H7    H     H_    0.303531 0.599841 0.013472 0.124932
H8    H     H_    0.231747 0.834331 0.168173 0.109756
H9    H     H_    0.768387 0.834240 0.831827 0.109755
H10   H     H_    0.717368 0.300963 0.289144 0.336769
N1    N     N_1   0.923170 0.500000 0.500010 -0.071031
N2    N     N_1   0.076830 0.500000 0.499990 -0.071030
O1    O     O_R   0.357240 0.711600 0.500000 -0.497161
O2    O     O_2   0.608304 0.874689 0.924832 -0.423140
O3    O     O_3   0.763192 0.338337 0.237545 -0.675795
O4    O     O_3   0.236726 0.338425 0.762455 -0.675800
O5    O     O_R   0.642760 0.288400 0.500000 -0.495881
O6    O     O_R   0.642760 0.711600 0.500000 -0.497160
O7    O     O_R   0.357240 0.288400 0.500000 -0.495881
O8    O     O_R   0.340660 0.500000 0.613590 -0.494839
O9    O     O_R   0.659340 0.500000 0.386410 -0.494849
O10   O     O_R   0.626230 0.500000 0.613600 -0.499748
O11   O     O_R   0.373770 0.500000 0.386400 -0.499745
O12   O     O_2   0.391844 0.874724 0.075164 -0.423136

loop_
_geom_bond_atom_site_label_1
_geom_bond_atom_site_label_2
_ccdc_geom_bond_type
C12   C17   S    
C2    C4    A    
Cu1   Cu2   S    
C19   O9    A    
C15   O2    D    
C12   O5    A    
C18   O8    A    
Cu2   O6    S    
C1    O6    A    
C9    C20   A    
N1    N2    T    
C7    H1    S    
C1    O1    A    
Cu2   O10   S    
C2    C21   A    
C11   H7    S    
C1    C16   S    
C22   H4    S    
C6    C13   S    
Cu2   O5    S    
C11   C13   D    
H2    O4    S    
C2    H5    S    
Cu2   O9    S    
C18   O10   A    
C4    C6    A    
C19   C21   S    
C20   C22   A    
C5    C11   S    
C12   O7    A    
C18   C20   S    
C10   C21   A    
C4    C14   S    
C19   O11   A    
Cu2   N1    S    
Cu1   O11   S    
H10   O3    S    
C13   H6    S    
C3    C15   S    
C8    C10   A    
Cu1   N2    S    
C7    C9    A    
C8    H3    S    
C14   O12   D    
C5    C7    A    
C10   O3    S    
C3    C22   A    
C6    C8    A    
Cu1   O1    S    
Cu1   O7    S    
C15   H9    S    
C9    O4    S    
Cu1   O8    S    
C14   H8    S    
C16   C17   T    
C3    C5    A    
