data_mof_unit_203.cif
_audit_creation_date              2013-03-05T15:50:48-0500
_audit_creation_method            fapswitch 2.2
_symmetry_space_group_name_H-M    P1
_symmetry_Int_Tables_number       1
_space_group_crystal_system       triclinic
_cell_length_a                    14.310713
_cell_length_b                    14.822659
_cell_length_c                    33.244644
_cell_angle_alpha                 97.931301
_cell_angle_beta                  90.435681
_cell_angle_gamma                 118.683626
_cell_volume                      6105.21535422

loop_
_atom_site_label
_atom_site_type_symbol
_atom_site_description
_atom_site_fract_x
_atom_site_fract_y
_atom_site_fract_z
_atom_type_partial_charge
O1    O     O_R   0.318160 0.824460 0.443680 -0.513164
O2    O     O_R   0.525040 0.857250 0.449830 -0.507187
C1    C     C_R   0.616917 0.910135 0.437043 0.539777
O3    O     O_R   0.684760 0.998800 0.456360 -0.485965
O4    O     O_R   0.647540 0.166310 0.470260 -0.435619
C2    C     C_R   0.594382 0.206111 0.456783 0.560773
O5    O     O_R   0.500960 0.181750 0.467450 -0.525679
O6    O     O_R   0.331100 0.981120 0.457080 -0.497148
C3    C     C_R   0.295460 0.892693 0.434409 0.546219
O7    O     O_R   0.315560 0.821140 0.532010 -0.520271
O8    O     O_R   0.522630 0.854180 0.531710 -0.499100
C4    C     C_R   0.613865 0.905853 0.551793 0.541302
O9    O     O_R   0.682160 0.995480 0.544690 -0.510909
O10   O     O_R   0.645130 0.163230 0.552140 -0.499526
C5    C     C_R   0.589431 0.198784 0.571083 0.540631
O11   O     O_R   0.498360 0.178430 0.555780 -0.486252
O12   O     O_R   0.328690 0.978040 0.538950 -0.437835
C6    C     C_R   0.288152 0.886815 0.548361 0.563499
Cr1   Cr    Cr6+3 0.424820 0.846020 0.489780 1.034607
Cr2   Cr    Cr6+3 0.657880 0.078580 0.505700 1.096452
Cr3   Cr    Cr6+3 0.417280 0.075360 0.504550 1.105423
O13   O     O_3   0.499990 0.999990 0.500010 -0.268913
C7    C     C_R   0.739328 0.452316 0.105870 0.020286
C8    C     C_R   0.643597 0.414303 0.125038 -0.112080
C9    C     C_R   0.643541 0.402112 0.165814 -0.067718
C10   C     C_R   0.739233 0.428703 0.188077 0.061638
C11   C     C_R   0.833552 0.459964 0.168393 -0.113048
C12   C     C_R   0.833681 0.471701 0.127500 -0.124119
C13   C     C_R   0.774961 0.359415 0.246392 -0.154626
C14   C     C_R   0.766549 0.344705 0.286929 -0.121913
C15   C     C_R   0.723024 0.393900 0.313525 -0.010592
C16   C     C_R   0.693551 0.462580 0.299666 -0.066978
C17   C     C_R   0.702624 0.478380 0.259136 0.250358
C18   C     C_R   0.740171 0.423589 0.231888 0.034313
C19   C     C_R   0.595171 0.333433 0.366446 -0.123287
C20   C     C_R   0.564571 0.287630 0.401283 -0.151471
C21   C     C_R   0.743138 0.311279 0.414053 0.228454
C22   C     C_R   0.772628 0.356244 0.378781 -0.074933
C23   C     C_R   0.698109 0.364432 0.354162 -0.015608
C24   C     C_R   0.636299 0.271903 0.424654 0.023369
H1    H     H_    0.569643 0.398125 0.109039 0.137326
H2    H     H_    0.908790 0.501506 0.113570 0.134029
H3    H     H_    0.853215 0.382407 0.369924 0.150276
H4    H     H_    0.788845 0.290616 0.296956 0.127826
H5    H     H_    0.804485 0.317261 0.225885 0.117925
H6    H     H_    0.569410 0.374839 0.180385 0.147884
H7    H     H_    0.661765 0.502458 0.320209 0.148327
H8    H     H_    0.536186 0.338640 0.347725 0.147635
H9    H     H_    0.482504 0.259318 0.408569 0.168262
H10   H     H_    0.907760 0.479313 0.185113 0.112880
H11   H     H_    0.183402 0.729977 0.103120 0.129768
H12   H     H_    0.230892 0.767215 0.176653 0.107609
H13   H     H_    0.193781 0.727596 0.300588 0.120360
H14   H     H_    0.240551 0.731471 0.371769 0.146092
C25   C     C_R   0.243133 0.877426 0.393605 -0.021462
C26   C     C_R   0.224927 0.955984 0.382138 -0.110409
C27   C     C_R   0.197608 0.954516 0.341249 0.224188
C28   C     C_R   0.189278 0.872554 0.311480 0.025676
C29   C     C_R   0.200434 0.790857 0.323270 -0.158561
C30   C     C_R   0.226751 0.792925 0.363976 -0.135052
C31   C     C_R   0.192969 0.806039 0.163739 -0.120610
C32   C     C_R   0.166315 0.785368 0.121783 -0.120824
C33   C     C_R   0.088780 0.900022 0.129957 -0.124140
C34   C     C_R   0.115043 0.920149 0.172030 -0.096416
C35   C     C_R   0.163654 0.870147 0.189060 0.036199
C36   C     C_1   0.173475 0.875202 0.232435 0.013917
C37   C     C_1   0.179895 0.875010 0.268552 0.046135
C38   C     C_R   0.109667 0.828478 0.104695 0.026284
H15   H     H_    0.235850 0.020815 0.404875 0.171342
H16   H     H_    0.092011 0.969918 0.191431 0.142351
H17   H     H_    0.044361 0.933676 0.117790 0.128155
H18   H     H_    0.871934 0.957790 0.123660 0.125891
H19   H     H_    0.846169 0.979178 0.196447 0.121624
H20   H     H_    0.827314 0.972392 0.328504 0.147994
H21   H     H_    0.804834 0.997111 0.401364 0.165318
C39   C     C_R   0.637956 0.877554 0.395701 0.014903
C40   C     C_R   0.553420 0.799250 0.368391 -0.127162
C41   C     C_R   0.566631 0.785944 0.326821 -0.098656
C42   C     C_R   0.664441 0.850070 0.312296 0.046976
C43   C     C_R   0.751163 0.922791 0.339550 -0.097456
C44   C     C_R   0.738173 0.936404 0.381084 -0.106229
C45   C     C_R   0.782075 0.916905 0.175615 -0.110745
C46   C     C_R   0.796184 0.905058 0.134063 -0.126146
C47   C     C_R   0.620070 0.752624 0.121836 -0.117351
C48   C     C_R   0.606084 0.764827 0.163294 -0.092205
C49   C     C_R   0.688496 0.844690 0.190343 0.046617
C50   C     C_1   0.680186 0.847121 0.233327 0.014878
C51   C     C_1   0.673276 0.847656 0.269337 0.018744
C52   C     C_R   0.717044 0.820056 0.107069 0.022195
H22   H     H_    0.475193 0.753035 0.378654 0.133945
H23   H     H_    0.533190 0.708916 0.174484 0.125538
H24   H     H_    0.557647 0.686543 0.101765 0.127444
H25   H     H_    0.499176 0.729216 0.305837 0.125424
H26   H     H_    0.847362 0.392311 0.904031 0.136249
H27   H     H_    0.825863 0.338232 0.830185 0.151433
H28   H     H_    0.781603 0.254544 0.692941 0.126956
H29   H     H_    0.756882 0.218421 0.618466 0.136879
C53   C     C_R   0.621228 0.245943 0.614456 0.014907
C54   C     C_R   0.556181 0.277112 0.637204 -0.099723
C55   C     C_R   0.570346 0.296990 0.679722 -0.101292
C56   C     C_R   0.649837 0.286434 0.699888 0.038203
C57   C     C_R   0.719489 0.262351 0.677528 -0.102886
C58   C     C_R   0.705644 0.242602 0.635018 -0.122719
C59   C     C_R   0.758962 0.336822 0.845701 -0.099419
C60   C     C_R   0.770720 0.367142 0.887895 -0.124578
C61   C     C_R   0.589918 0.341259 0.886006 -0.119052
C62   C     C_R   0.578345 0.310774 0.843810 -0.114156
C63   C     C_R   0.664269 0.312488 0.823504 0.033836
C64   C     C_1   0.659420 0.300785 0.779888 -0.009800
C65   C     C_1   0.655781 0.294358 0.743401 -0.008194
C66   C     C_R   0.688088 0.374578 0.908220 0.017754
H30   H     H_    0.490685 0.280548 0.622297 0.177315
H31   H     H_    0.504617 0.291789 0.826797 0.119770
H32   H     H_    0.524809 0.346115 0.900677 0.142929
H33   H     H_    0.516522 0.316352 0.696866 0.127430
C67   C     C_R   0.074388 0.756389 0.909865 -0.030401
C68   C     C_R   0.121221 0.857900 0.899686 0.196728
C69   C     C_R   0.142811 0.870519 0.859264 -0.146362
C70   C     C_R   0.122250 0.784869 0.829721 -0.014609
C71   C     C_R   0.083992 0.685738 0.840625 0.238657
C72   C     C_R   0.060562 0.672135 0.880534 -0.128994
C73   C     C_R   0.215238 0.787895 0.767134 -0.021810
C74   C     C_R   0.224602 0.797027 0.726065 0.254972
C75   C     C_R   0.152106 0.816644 0.704822 0.037033
C76   C     C_R   0.073432 0.829991 0.725381 -0.150038
C77   C     C_R   0.064998 0.821287 0.766472 -0.110419
C78   C     C_R   0.135106 0.799085 0.787202 0.023347
C79   C     C_R   0.181674 0.920765 0.649317 -0.095835
C80   C     C_R   0.210088 0.938380 0.609807 0.208908
C81   C     C_R   0.186754 0.762832 0.594560 -0.139571
C82   C     C_R   0.155690 0.745527 0.633404 -0.075377
C83   C     C_R   0.160481 0.826808 0.661681 0.010815
C84   C     C_R   0.222120 0.861552 0.583311 0.007589
H34   H     H_    0.024496 0.593931 0.887855 0.164950
H35   H     H_    0.135425 0.671117 0.642362 0.166472
H36   H     H_    0.270323 0.772219 0.783481 0.165076
H37   H     H_    0.175301 0.947172 0.850620 0.158532
H38   H     H_    0.018071 0.846078 0.709475 0.121738
H39   H     H_    0.002869 0.830124 0.781992 0.130624
H40   H     H_    0.179949 0.981700 0.670909 0.148531
H41   H     H_    0.190792 0.700968 0.574455 0.156627
C85   C     C_R   0.658667 0.745491 0.913145 0.020716
C86   C     C_R   0.584346 0.654366 0.887486 -0.123017
C87   C     C_R   0.554862 0.659358 0.848012 -0.109095
C88   C     C_R   0.598891 0.755544 0.833894 0.030060
C89   C     C_R   0.666250 0.847131 0.860906 -0.113416
C90   C     C_R   0.695712 0.842120 0.900112 -0.111465
C91   C     C_R   0.581687 0.845904 0.778471 -0.093861
C92   C     C_R   0.592276 0.862615 0.738193 -0.059010
C93   C     C_R   0.605882 0.793421 0.708730 0.046904
C94   C     C_R   0.603959 0.704612 0.719674 -0.103929
C95   C     C_R   0.595323 0.688782 0.760224 -0.099295
C96   C     C_R   0.586905 0.760864 0.790200 0.032842
C97   C     C_R   0.557171 0.740133 0.633859 -0.083575
C98   C     C_R   0.560858 0.767147 0.595102 -0.109890
C99   C     C_R   0.702707 0.941782 0.621123 -0.111677
C100  C     C_R   0.698023 0.915081 0.659910 -0.119685
C101  C     C_R   0.622468 0.815373 0.666789 0.037723
C102  C     C_R   0.630669 0.869461 0.588798 0.025127
H42   H     H_    0.554716 0.578818 0.896863 0.130952
H43   H     H_    0.752581 0.913600 0.919426 0.141298
H44   H     H_    0.750148 0.973685 0.684969 0.108795
H45   H     H_    0.590754 0.930220 0.730037 0.140597
H46   H     H_    0.572993 0.901469 0.800725 0.110916
H47   H     H_    0.501588 0.587736 0.827961 0.119011
H48   H     H_    0.613824 0.650140 0.697229 0.109019
H49   H     H_    0.601033 0.623273 0.768407 0.109796
H50   H     H_    0.498595 0.662720 0.638628 0.134575
H51   H     H_    0.504586 0.709866 0.570654 0.132203
H52   H     H_    0.702545 0.922366 0.850924 0.111001
H53   H     H_    0.757027 0.021265 0.617243 0.134937
O14   O     O_R   0.828710 0.851830 0.052170 -0.518840
O15   O     O_R   0.005980 0.823990 0.047210 -0.484551
C103  C     C_R   0.052016 0.781211 0.063860 0.555490
O16   O     O_R   0.031900 0.688850 0.050170 -0.519686
O17   O     O_R   0.830940 0.518420 0.048680 -0.503426
C104  C     C_R   0.744304 0.487180 0.066236 0.548480
O18   O     O_R   0.668160 0.499860 0.053480 -0.508884
O19   O     O_R   0.689170 0.693840 0.050110 -0.499884
C105  C     C_R   0.743310 0.789214 0.066497 0.537373
O20   O     O_R   0.803860 0.812940 0.962540 -0.503242
O21   O     O_R   0.982950 0.787950 0.964120 -0.442761
C106  C     C_R   0.023298 0.732905 0.947958 0.581015
O22   O     O_R   0.007050 0.649970 0.960540 -0.526969
O23   O     O_R   0.807910 0.482370 0.965590 -0.504124
C107  C     C_R   0.712051 0.437106 0.949337 0.543627
O24   O     O_R   0.643310 0.460980 0.963840 -0.512248
O25   O     O_R   0.666140 0.657800 0.967020 -0.503772
C108  C     C_R   0.710263 0.739654 0.950355 0.536012
Cr4   Cr    Cr6+3 0.903360 0.812540 0.006510 1.090547
Cr5   Cr    Cr6+3 0.914630 0.587050 0.006280 1.024728
Cr6   Cr    Cr6+3 0.673560 0.582680 0.008540 1.029449
O26   O     O_3   0.830520 0.660760 0.007110 -0.256368
Cl1   Cl    Cl    0.843301 0.305688 0.443105 -0.574365
N1    N     N_R   0.182892 0.038139 0.330523 0.080858
O27   O     O_R   0.225668 0.128083 0.354272 -0.342251
O28   O     O_R   0.119416 0.022648 0.299023 -0.335944
N2    N     N_R   0.147147 0.947987 0.929745 0.091578
O29   O     O_R   0.146046 0.028896 0.919238 -0.340971
O30   O     O_R   0.185527 0.955047 0.966362 -0.325462
Cl2   Cl    Cl    0.330772 0.787814 0.702909 -0.638023
N3    N     N_R   0.228634 0.034582 0.597708 0.088918
O31   O     O_R   0.183552 0.033154 0.563308 -0.313890
O32   O     O_R   0.273020 0.120505 0.623917 -0.356762
Cl3   Cl    Cl    0.054764 0.575116 0.804341 -0.612067
Cl4   Cl    Cl    0.667491 0.568184 0.243843 -0.628844

loop_
_geom_bond_atom_site_label_1
_geom_bond_atom_site_label_2
_geom_bond_distance
_ccdc_geom_bond_type
C50   C51   1.201225 T    
H26   C60   1.083028 S    
O11   Cr3   2.032544 S    
H28   C57   1.083644 S    
C19   C20   1.390452 A    
C25   C26   1.407593 A    
C97   H50   1.083231 S    
C79   C80   1.399899 A    
C88   C89   1.404569 A    
H13   C29   1.083972 S    
C92   C93   1.402340 A    
C74   C75   1.412347 A    
O4    Cr2   1.925076 S    
H14   C30   1.083023 S    
C40   C41   1.396064 A    
C26   C27   1.405946 A    
C55   H33   1.083639 S    
C26   H15   1.082965 S    
O8    Cr1   1.917874 S    
C10   C11   1.400544 A    
C77   C78   1.399583 A    
N3    O32   1.301341 A    
C61   H32   1.082982 S    
O4    C2    1.275172 A    
C71   Cl3   1.762598 S    
C99   C100  1.393035 A    
C21   C22   1.396614 A    
C97   C101  1.400905 A    
C21   C24   1.418034 A    
C82   H35   1.083618 S    
H12   C31   1.083723 S    
O16   Cr5   2.036312 S    
C22   C23   1.400071 A    
C103  O16   1.269642 A    
C61   C62   1.396126 A    
C41   H25   1.083629 S    
C86   C87   1.397864 A    
C67   C106  1.466575 S    
O15   Cr4   1.919218 S    
C63   C64   1.433476 S    
C75   C83   1.462502 S    
C6    C84   1.476584 S    
O12   C6    1.276454 A    
C52   C105  1.473781 S    
C73   C78   1.396886 A    
C81   H41   1.083178 S    
C69   C70   1.398515 A    
C42   C51   1.431739 S    
Cr4   O26   1.977367 S    
O21   C106  1.274279 A    
O20   C108  1.269567 A    
C10   C18   1.469129 S    
C100  C101  1.403106 A    
C62   H31   1.083643 S    
O19   Cr6   1.920471 S    
C54   C55   1.396155 A    
O6    C3    1.275137 A    
C94   C95   1.396287 A    
N2    O29   1.301620 A    
C3    C25   1.479627 S    
C34   H16   1.083599 S    
C72   H34   1.083868 S    
C69   H37   1.083852 S    
C11   H10   1.083350 S    
C88   C96   1.478673 S    
O14   C105  1.274325 A    
C36   C37   1.204022 T    
C60   C66   1.408463 A    
C29   C30   1.394205 A    
H20   C43   1.083739 S    
Cr3   O13   1.974195 S    
C8    H1    1.083086 S    
C14   H4    1.083242 S    
C57   C58   1.395711 A    
H11   C32   1.083190 S    
C19   H8    1.083345 S    
C79   C83   1.398183 A    
C59   C60   1.395613 A    
C9    C10   1.401576 A    
O23   Cr5   1.919485 S    
C61   C66   1.407304 A    
C48   H23   1.083732 S    
C46   C52   1.406488 A    
C17   Cl4   1.763104 S    
O1    Cr1   2.035133 S    
C48   C49   1.396716 A    
C67   C72   1.404808 A    
C74   Cl2   1.762868 S    
C98   C102  1.406577 A    
C91   H46   1.082963 S    
C56   C57   1.397561 A    
O10   Cr2   1.918513 S    
C86   H42   1.083278 S    
Cr1   O13   1.976104 S    
O1    C3    1.274100 A    
C47   C48   1.393732 A    
C9    H6    1.083368 S    
N3    O31   1.301359 A    
C77   H39   1.083518 S    
C38   C103  1.476503 S    
C41   C42   1.398457 A    
H21   C44   1.083075 S    
O17   Cr5   1.925614 S    
N1    O27   1.301636 A    
O14   Cr4   2.040230 S    
C56   C65   1.433610 S    
O15   C103  1.278600 A    
C85   C108  1.469651 S    
C13   C18   1.400989 A    
C5    O11   1.272215 A    
O12   Cr3   1.928164 S    
C42   C43   1.397229 A    
C16   C17   1.395603 A    
C13   H5    1.083502 S    
O25   C108  1.277952 A    
C19   C23   1.399685 A    
C106  O22   1.268569 A    
Cr5   O26   1.974319 S    
C13   C14   1.391589 A    
O18   Cr6   2.040078 S    
O20   Cr4   2.035480 S    
C98   H51   1.083173 S    
C15   C16   1.401859 A    
O10   C5    1.276312 A    
C20   C24   1.406848 A    
O7    Cr1   2.043169 S    
C62   C63   1.398467 A    
C17   C18   1.411449 A    
O24   Cr6   2.037302 S    
O22   Cr5   2.041859 S    
C7    C12   1.406625 A    
C8    C9    1.392032 A    
C1    C39   1.474966 S    
C73   H36   1.083929 S    
C97   C98   1.395111 A    
H29   C58   1.083018 S    
C104  O18   1.270483 A    
C92   H45   1.083520 S    
C80   N3    1.436037 S    
O17   C104  1.275425 A    
C27   N1    1.441981 S    
C45   C46   1.396812 A    
C89   H52   1.082707 S    
C90   H43   1.083415 S    
C76   C77   1.390519 A    
C76   H38   1.083463 S    
C16   H7    1.083576 S    
C2    C24   1.479002 S    
C43   C44   1.394565 A    
C81   C84   1.407196 A    
C91   C96   1.404311 A    
C5    C53   1.476918 S    
C1    O3    1.270827 A    
H19   C45   1.083591 S    
C59   C63   1.397561 A    
C95   H49   1.082724 S    
C71   C72   1.388902 A    
C89   C90   1.389411 A    
C33   C38   1.407699 A    
C66   C107  1.477569 S    
C80   C84   1.419882 A    
C93   C101  1.470538 S    
O9    Cr2   2.040282 S    
O2    Cr1   1.925983 S    
C49   C50   1.431750 S    
C85   C90   1.402185 A    
C99   C102  1.403976 A    
Cr2   O13   1.975904 S    
C87   C88   1.405997 A    
O6    Cr3   1.915999 S    
C39   C44   1.407327 A    
C70   C71   1.402852 A    
C73   C74   1.391671 A    
C2    O5    1.273835 A    
O19   C105  1.274842 A    
C94   H48   1.083214 S    
C47   H24   1.083186 S    
C99   H53   1.083179 S    
C68   C69   1.398756 A    
C32   C38   1.406660 A    
C87   H47   1.082881 S    
O25   Cr6   1.921406 S    
C21   Cl1   1.763346 S    
O2    C1    1.278685 A    
C28   C29   1.400428 A    
C22   H3    1.083708 S    
C45   C49   1.399109 A    
C82   C83   1.395401 A    
Cr6   O26   1.976983 S    
H27   C59   1.083698 S    
O5    Cr3   2.046591 S    
C39   C40   1.406981 A    
C27   C28   1.413155 A    
C14   C15   1.402827 A    
O7    C6    1.273081 A    
C54   H30   1.082795 S    
C100  H44   1.083429 S    
C34   C35   1.399461 A    
C12   H2    1.083123 S    
C55   C56   1.398659 A    
C15   C23   1.470962 S    
C67   C68   1.415485 A    
C81   C82   1.386251 A    
C91   C92   1.391373 A    
C35   C36   1.435854 S    
C4    C102  1.471528 S    
C79   H40   1.083689 S    
C31   C32   1.395237 A    
C7    C104  1.470464 S    
H18   C46   1.082878 S    
C20   H9    1.083201 S    
C7    C8    1.404182 A    
C33   C34   1.398518 A    
O3    Cr2   2.036643 S    
C31   C35   1.398163 A    
C28   C37   1.439495 S    
C4    O9    1.272637 A    
C53   C54   1.406772 A    
C47   C52   1.407189 A    
C64   C65   1.202311 T    
C11   C12   1.394094 A    
C85   C86   1.404447 A    
C40   H22   1.083095 S    
C93   C94   1.401265 A    
O23   C107  1.276377 A    
N2    O30   1.301554 A    
C95   C96   1.407365 A    
O21   Cr4   1.922833 S    
C107  O24   1.272689 A    
C25   C30   1.402901 A    
C33   H17   1.082907 S    
C68   N2    1.438712 S    
C53   C58   1.408313 A    
O8    C4    1.273879 A    
C75   C76   1.400749 A    
N1    O28   1.301340 A    
C70   C78   1.457848 S    
