data_mof_unit_394.cif
_audit_creation_date              2012-12-10T21:28:08-0500
_audit_creation_method            fapswitch 2.2
_symmetry_space_group_name_H-M    P1
_symmetry_Int_Tables_number       1
_space_group_crystal_system       triclinic
_cell_length_a                    12.903806
_cell_length_b                    16.106824
_cell_length_c                    16.882748
_cell_angle_alpha                 88.033855
_cell_angle_beta                  90.679016
_cell_angle_gamma                 100.599241
_cell_volume                      3446.94413368

loop_
_atom_site_label
_atom_site_type_symbol
_atom_type_description
_atom_site_fract_x
_atom_site_fract_y
_atom_site_fract_z
_atom_type_partial_charge
C1    C     C_R   0.501817 0.489337 0.652924 0.867533
C2    C     C_R   0.502749 0.511161 0.347093 0.854592
C3    C     C_R   0.559396 0.557779 0.859651 -0.172739
C4    C     C_R   0.553847 0.455186 0.140929 -0.165953
C5    C     C_R   0.555139 0.479505 0.900556 0.328855
C6    C     C_R   0.555998 0.533105 0.099849 0.329418
C7    C     C_R   0.535073 0.404608 0.859161 -0.191162
C8    C     C_R   0.541869 0.603951 0.140877 -0.197982
C9    C     C_R   0.516036 0.407038 0.778070 -0.211739
C10   C     C_R   0.522803 0.597166 0.221819 -0.222601
C11   C     C_R   0.464956 0.757812 0.451441 -0.140171
C12   C     C_R   0.524806 0.240245 0.552442 -0.120357
C13   C     C_R   0.470380 0.846289 0.450421 0.401551
C14   C     C_R   0.519659 0.152151 0.552324 0.407358
C15   C     C_R   0.520893 0.893151 0.514524 0.214337
C16   C     C_R   0.479745 0.107134 0.484106 0.189056
C17   C     C_R   0.569267 0.849550 0.573381 -0.378676
C18   C     C_R   0.442637 0.152694 0.420995 -0.386576
C19   C     C_R   0.564832 0.762168 0.569958 0.001610
C20   C     C_R   0.447507 0.240078 0.424860 -0.019427
C21   C     C_R   0.703384 0.516851 0.502991 0.936298
C22   C     C_R   0.296634 0.483129 0.496105 0.942418
C23   C     C_R   0.183340 0.472393 0.487980 -0.271916
C24   C     C_R   0.816928 0.527784 0.504559 -0.248564
C25   C     C_R   0.990537 0.614583 0.499359 0.381229
C26   C     C_R   0.008905 0.386052 0.482199 0.420658
C27   C     C_R   0.882091 0.607606 0.510868 0.392192
C28   C     C_R   0.118158 0.392319 0.480969 0.394205
C29   C     C_R   0.859961 0.455123 0.498488 -0.299805
C30   C     C_R   0.140067 0.545528 0.488847 -0.291729
C31   C     C_R   0.966811 0.460233 0.490270 -0.072328
C32   C     C_R   0.032635 0.540566 0.491330 -0.048565
C33   C     C_R   0.517054 0.484909 0.738091 -0.024639
C34   C     C_R   0.517865 0.518956 0.262024 -0.022795
C35   C     C_R   0.539750 0.560161 0.779234 -0.236969
C36   C     C_R   0.534290 0.448296 0.221239 -0.243396
H1    H     H_    0.190624 0.607041 0.491453 0.232055
H2    H     H_    0.809310 0.393694 0.499654 0.225468
H3    H     H_    0.610127 0.883381 0.622343 0.175410
H4    H     H_    0.410396 0.120505 0.368439 0.179698
H5    H     H_    0.602283 0.729686 0.615946 0.135721
H6    H     H_    0.419694 0.274319 0.375321 0.137664
H7    H     H_    0.532622 0.387540 0.251290 0.159824
H8    H     H_    0.543072 0.621216 0.749390 0.164722
H9    H     H_    0.565185 0.399106 0.111111 0.148559
H10   H     H_    0.575866 0.617148 0.889679 0.150427
H11   H     H_    0.531457 0.344200 0.890274 0.139031
H12   H     H_    0.543080 0.663956 0.109566 0.136596
H13   H     H_    0.500081 0.348325 0.746954 0.153723
H14   H     H_    0.511472 0.652674 0.252654 0.150782
H15   H     H_    0.558244 0.275240 0.603078 0.151829
H16   H     H_    0.422603 0.720879 0.404954 0.140494
N1    N     N_2   0.561066 0.472913 0.983790 -0.209065
N2    N     N_2   0.562772 0.541132 0.016699 -0.209137
N3    N     N_R   0.512890 0.717880 0.509760 -0.099787
N4    N     N_R   0.487110 0.282120 0.490240 -0.104962
N5    N     N_2   0.528711 0.982765 0.522210 -0.129531
N6    N     N_2   0.471756 0.017633 0.476361 -0.121832
O1    O     O_R   0.495390 0.422190 0.612650 -0.627791
O2    O     O_R   0.504610 0.577810 0.387350 -0.628561
O3    O     O_R   0.503660 0.562120 0.618910 -0.636269
O4    O     O_R   0.496340 0.437880 0.381090 -0.640989
O5    O     O_R   0.650190 0.441600 0.497400 -0.633765
O6    O     O_R   0.349810 0.558400 0.502600 -0.627320
O7    O     O_R   0.658460 0.581530 0.503670 -0.568816
O8    O     O_R   0.341540 0.418470 0.496330 -0.577456
Zn1   Zn    Zn3+2 0.494480 0.406570 0.495820 0.948511
Zn2   Zn    Zn3+2 0.505520 0.593430 0.504180 0.957094
O9    O     O_3   0.159524 0.319026 0.479755 -0.592116
C37   C     C_3   0.176226 0.299614 0.400280 0.108726
H17   H     H_    0.256845 0.330550 0.381934 0.151230
H18   H     H_    0.119685 0.321424 0.357339 0.082160
C38   C     C_3   0.165804 0.203850 0.395101 -0.302853
H19   H     H_    0.223291 0.181298 0.436205 0.236619
H20   H     H_    0.085349 0.172618 0.413778 0.231247
C39   C     C_3   0.185050 0.178360 0.311077 -1.004269
H21   H     H_    0.125348 0.197313 0.269695 0.267116
H22   H     H_    0.178773 0.108716 0.309961 0.273159
H23   H     H_    0.265070 0.208769 0.290899 0.259219
O10   O     O_3   0.838873 0.678588 0.524166 -0.624107
C40   C     C_3   0.861309 0.705898 0.602570 0.121736
H24   H     H_    0.837311 0.768420 0.606553 0.162050
H25   H     H_    0.947087 0.716293 0.616483 0.174651
C41   C     C_3   0.799698 0.645070 0.665077 -0.408434
H26   H     H_    0.714774 0.631871 0.649283 0.241809
H27   H     H_    0.828887 0.584293 0.667221 0.216054
C42   C     C_3   0.812486 0.682255 0.747276 -0.957435
H28   H     H_    0.897207 0.697269 0.764045 0.270437
H29   H     H_    0.770841 0.635709 0.791520 0.278281
H30   H     H_    0.778235 0.740635 0.748308 0.257990
O11   O     O_3   0.055951 0.692824 0.502588 -0.658852
C43   C     C_3   0.064646 0.730704 0.425762 0.050470
H31   H     H_    0.986741 0.743705 0.404903 0.172075
H32   H     H_    0.094249 0.689195 0.383112 0.131064
C44   C     C_3   0.142902 0.814260 0.428476 -0.286840
H33   H     H_    0.113605 0.856797 0.469936 0.224068
H34   H     H_    0.220271 0.802060 0.450895 0.244979
C45   C     C_3   0.158002 0.858031 0.346719 -0.926959
H35   H     H_    0.190804 0.817778 0.305000 0.258645
H36   H     H_    0.213940 0.918981 0.351189 0.287491
H37   H     H_    0.081619 0.871078 0.323180 0.252480
O12   O     O_3   0.945511 0.306511 0.487661 -0.612191
C46   C     C_3   0.895204 0.285640 0.414092 0.030571
H38   H     H_    0.948345 0.257847 0.375911 0.150065
H39   H     H_    0.872801 0.341143 0.381375 0.127188
C47   C     C_3   0.795433 0.219472 0.429145 -0.279491
H40   H     H_    0.817182 0.162239 0.458578 0.235934
H41   H     H_    0.742212 0.245046 0.469295 0.226891
C48   C     C_3   0.736424 0.194503 0.352216 -0.973021
H42   H     H_    0.710469 0.250221 0.323195 0.265974
H43   H     H_    0.665710 0.145584 0.365433 0.272841
H44   H     H_    0.787678 0.168152 0.311096 0.262150
O13   O     O_3   0.557298 0.112538 0.617646 -0.640310
C49   C     C_3   0.472687 0.078884 0.668870 0.108519
H45   H     H_    0.494375 0.023253 0.701226 0.171485
H46   H     H_    0.397488 0.055051 0.636741 0.129046
C50   C     C_3   0.455825 0.143876 0.729470 -0.392485
H47   H     H_    0.532105 0.169526 0.758687 0.235617
H48   H     H_    0.425822 0.196917 0.698907 0.213515
C51   C     C_3   0.376366 0.104551 0.792545 -0.937589
H49   H     H_    0.299090 0.079332 0.764648 0.268353
H50   H     H_    0.365286 0.153381 0.834921 0.266307
H51   H     H_    0.405349 0.052569 0.825795 0.261334
O14   O     O_3   0.420455 0.884987 0.390390 -0.646973
C52   C     C_3   0.474359 0.884793 0.317781 0.066437
H52   H     H_    0.416129 0.887074 0.269117 0.164082
H53   H     H_    0.507285 0.826318 0.309667 0.115818
C53   C     C_3   0.561621 0.963134 0.309123 -0.330140
H54   H     H_    0.526600 0.020914 0.312970 0.229180
H55   H     H_    0.620171 0.962835 0.357891 0.224390
C54   C     C_3   0.618202 0.965762 0.230015 -0.969485
H56   H     H_    0.655605 0.909276 0.225316 0.266132
H57   H     H_    0.680563 0.023269 0.225659 0.269222
H58   H     H_    0.561709 0.967749 0.180118 0.263196

loop_
_geom_bond_atom_site_label_1
_geom_bond_atom_site_label_2
_ccdc_geom_bond_type
C42   H28   S    
C4    C36   A    
C38   H20   S    
C38   H19   S    
C44   H33   S    
C41   C42   S    
C20   N4    A    
C54   H58   S    
C53   H54   S    
C12   H15   S    
C50   H48   S    
C49   H45   S    
C44   C45   S    
C1    C33   S    
N1    N2    D    
O4    Zn1   S    
O6    Zn2   S    
C5    N1    S    
C41   H27   S    
C48   H43   S    
C2    O2    A    
C47   H40   S    
C15   C17   A    
C17   H3    S    
C18   H4    S    
C24   C29   A    
C22   O8    A    
C11   H16   S    
O1    Zn1   S    
C46   H39   S    
C28   O9    S    
C29   H2    S    
C52   C53   S    
C24   C27   A    
C37   H17   S    
C18   C20   A    
C51   H51   S    
C2    C34   S    
C25   C32   A    
O8    Zn1   S    
C26   C31   A    
C9    C33   A    
C15   N5    S    
O12   C46   S    
C6    N2    S    
C40   H25   S    
C51   H50   S    
C40   H24   S    
C4    H9    S    
O5    Zn1   S    
C25   O11   S    
C23   C30   A    
C9    H13   S    
C39   H21   S    
C4    C6    A    
C27   O10   S    
C50   C51   S    
O11   C43   S    
C5    C7    A    
C13   O14   S    
N3    Zn2   S    
C17   C19   A    
C6    C8    A    
C3    C5    A    
C43   C44   S    
C30   H1    S    
C53   H55   S    
C7    H11   S    
C8    H12   S    
C49   H46   S    
C31   C32   A    
C3    C35   A    
O7    Zn2   S    
C37   C38   S    
C43   H32   S    
C10   C34   A    
C16   N6    S    
C23   C28   A    
C41   H26   S    
C35   H8    S    
C12   N4    A    
C16   C18   A    
C12   C14   A    
C45   H36   S    
C13   C15   A    
C52   H52   S    
C38   C39   S    
C14   C16   A    
C48   H44   S    
C21   C24   S    
C54   H56   S    
C14   O13   S    
C53   C54   S    
C40   C41   S    
C11   N3    A    
C51   H49   S    
O13   C49   S    
C19   N3    A    
C7    C9    A    
C21   O7    A    
C39   H22   S    
O10   C40   S    
C54   H57   S    
C1    O3    A    
C20   H6    S    
C44   H34   S    
C25   C27   A    
N4    Zn1   S    
C3    H10   S    
C26   C28   A    
C45   H37   S    
C1    O1    A    
C29   C31   A    
C50   H47   S    
C26   O12   S    
C30   C32   A    
C11   C13   A    
O3    Zn2   S    
N5    N6    D    
C47   H41   S    
C43   H31   S    
C33   C35   A    
C46   C47   S    
C34   C36   A    
O9    C37   S    
C21   O5    A    
C49   C50   S    
C22   O6    A    
C19   H5    S    
C39   H23   S    
O2    Zn2   S    
C8    C10   A    
C45   H35   S    
C42   H30   S    
C46   H38   S    
C52   H53   S    
C42   H29   S    
C22   C23   S    
C36   H7    S    
C37   H18   S    
C48   H42   S    
C2    O4    A    
O14   C52   S    
C47   C48   S    
C10   H14   S    
