data_mof_unit_1528.cif
_audit_creation_date              2013-03-05T16:41:16-0500
_audit_creation_method            fapswitch 2.2
_symmetry_space_group_name_H-M    P1
_symmetry_Int_Tables_number       1
_space_group_crystal_system       triclinic
_cell_length_a                    10.648637
_cell_length_b                    10.685496
_cell_length_c                    9.872095
_cell_angle_alpha                 89.656605
_cell_angle_beta                  91.524231
_cell_angle_gamma                 90.110115
_cell_volume                      1122.88650864

loop_
_atom_site_label
_atom_site_type_symbol
_atom_site_description
_atom_site_fract_x
_atom_site_fract_y
_atom_site_fract_z
_atom_type_partial_charge
O1    O     O_R   0.500020 0.316790 0.614690 -0.620640
O2    O     O_R   0.500000 0.316760 0.385350 -0.630114
C1    C     C_R   0.503863 0.259851 0.500338 0.890040
O3    O     O_R   0.319080 0.500020 0.614640 -0.623065
O4    O     O_R   0.319070 0.499980 0.385300 -0.545071
C2    C     C_R   0.262469 0.503652 0.497771 1.008857
Zn1   Zn    Zn3+2 0.500010 0.500020 0.653130 0.962077
Zn2   Zn    Zn3+2 0.499990 0.499980 0.346870 1.010943
O5    O     O_R   0.500000 0.683240 0.614650 -0.627349
O6    O     O_R   0.499980 0.683210 0.385310 -0.600242
O7    O     O_R   0.680930 0.500020 0.614700 -0.629385
O8    O     O_R   0.680920 0.499980 0.385360 -0.626279
C3    C     C_R   0.504794 0.739934 0.499727 0.933720
C4    C     C_R   0.737645 0.506399 0.502088 0.956655
C5    C     C_2   0.929944 0.574915 0.403888 -0.190884
C6    C     C_2   0.868814 0.530875 0.510086 -0.390495
H1    H     H_    0.881231 0.599565 0.309394 0.174938
H2    H     H_    0.915082 0.519358 0.608914 0.162965
C7    C     C_2   0.065149 0.589652 0.415032 0.474411
C8    C     C_2   0.129733 0.504677 0.489920 -0.402624
H3    H     H_    0.084564 0.426217 0.539450 0.129346
C9    C     C_R   0.531274 0.062635 0.622952 0.135429
C10   C     C_R   0.524516 0.128374 0.500802 -0.092149
C11   C     C_R   0.543001 0.065409 0.378478 -0.181814
H4    H     H_    0.547844 0.114886 0.282643 0.171164
C12   C     C_R   0.543633 0.935992 0.378038 -0.160101
H5    H     H_    0.548745 0.887884 0.282058 0.176532
C13   C     C_R   0.525749 0.871162 0.499902 -0.079976
C14   C     C_R   0.531740 0.934892 0.622374 0.109072
C15   C     C_3   0.449008 0.925592 0.741878 -0.415584
C16   C     C_3   0.448403 0.067276 0.742631 -0.481637
H6    H     H_    0.355527 0.884031 0.716418 0.236376
H7    H     H_    0.498595 0.883882 0.831767 0.206071
H8    H     H_    0.354434 0.107817 0.717607 0.217214
H9    H     H_    0.497994 0.106919 0.833150 0.203198
C17   C     C_R   0.391975 0.475818 0.068537 0.223837
N1    N     N_R   0.499170 0.499140 0.142800 -0.138904
C18   C     C_R   0.603473 0.535574 0.074521 -0.126296
H10   H     H_    0.687750 0.562631 0.130427 0.160044
C19   C     C_R   0.603492 0.535499 0.930722 -0.123928
H11   H     H_    0.687719 0.562260 0.878941 0.162570
N2    N     N_R   0.499170 0.499180 0.857150 -0.112002
C20   C     C_R   0.392016 0.476008 0.925833 0.198196
C21   C     C_3   0.315310 0.359441 0.917081 -0.573283
C22   C     C_3   0.316758 0.357670 0.071289 0.088744
H12   H     H_    0.221601 0.376255 0.868112 0.242145
H13   H     H_    0.368225 0.281031 0.873645 0.187029
H14   H     H_    0.369006 0.277328 0.117672 0.119618
N3    N     N_R   0.192347 0.375699 0.127554 0.253002
O9    O     O_R   0.153808 0.300257 0.221657 -0.372505
O10   O     O_R   0.118525 0.464877 0.083428 -0.376392
S1    S     S_3+6 0.134052 0.723021 0.338470 0.061711
O11   O     O_2   0.214393 0.790474 0.442096 -0.307110
O12   O     O_2   0.214670 0.685049 0.223064 -0.263378
O13   O     O_3   0.021271 0.820943 0.279985 -0.519331
H15   H     H_    0.990253 0.783654 0.193721 0.354632

loop_
_geom_bond_atom_site_label_1
_geom_bond_atom_site_label_2
_geom_bond_distance
_ccdc_geom_bond_type
O4    Zn2   1.973427 S    
Zn1   O7    1.973428 S    
C10   C11   1.404488 A    
S1    O13   1.682623 S    
C3    C13   1.419454 S    
C19   H11   1.081284 S    
C14   C15   1.493778 S    
C9    C14   1.365060 A    
C2    C8    1.413580 S    
N2    C20   1.364219 A    
C1    C10   1.422386 S    
C7    C8    1.345848 D    
C21   H13   1.105595 S    
C22   N3    1.463609 S    
Zn2   O8    1.953829 S    
C8    H3    1.085994 S    
O13   H15   0.990798 S    
C19   N2    1.367844 A    
O2    C1    1.284301 A    
O8    C4    1.288894 A    
C16   H8    1.112301 S    
C17   C22   1.494310 S    
C6    H2    1.087646 S    
O1    Zn1   1.996573 S    
C21   C22   1.522034 S    
C15   H6    1.112489 S    
C12   H5    1.083380 S    
C18   H10   1.080812 S    
O3    Zn1   1.953829 S    
O4    C2    1.278227 A    
O3    C2    1.287858 A    
C17   N1    1.363501 A    
C18   C19   1.419609 A    
N1    C18   1.369143 A    
S1    O12   1.502833 D    
C16   H9    1.111497 S    
C20   C21   1.489876 S    
C15   C16   1.514046 S    
O7    C4    1.280604 A    
C4    C6    1.420765 S    
C11   H4    1.083398 S    
Zn1   N2    2.014329 S    
Zn2   N1    2.014459 S    
C5    C6    1.331754 D    
Zn1   O5    1.992073 S    
S1    O11   1.502625 D    
Zn2   O6    1.996573 S    
N3    O9    1.300508 A    
C9    C16   1.494468 S    
C22   H14   1.113464 S    
C5    H1    1.086513 S    
O5    C3    1.285106 A    
C9    C10   1.392188 A    
C13   C14   1.391128 A    
C17   C20   1.408787 A    
C21   H12   1.111619 S    
C15   H7    1.111832 S    
O1    C1    1.287263 A    
C5    C7    1.449367 S    
C12   C13   1.401855 A    
C7    S1    1.775712 S    
O2    Zn2   1.992075 S    
C11   C12   1.382948 A    
N3    O10   1.302099 A    
O6    C3    1.284862 A    
