data_mof_unit_2681.cif
_audit_creation_date              2012-12-10T19:42:02-0500
_audit_creation_method            fapswitch 2.2
_symmetry_space_group_name_H-M    P1
_symmetry_Int_Tables_number       1
_space_group_crystal_system       triclinic
_cell_length_a                    18.23212
_cell_length_b                    18.485733
_cell_length_c                    18.683781
_cell_angle_alpha                 121.17449
_cell_angle_beta                  89.558822
_cell_angle_gamma                 119.673885
_cell_volume                      4411.73829551

loop_
_atom_site_label
_atom_site_type_symbol
_atom_type_description
_atom_site_fract_x
_atom_site_fract_y
_atom_site_fract_z
_atom_type_partial_charge
C1    C     C_R   0.139960 0.779934 0.138325 0.504006
C2    C     C_R   0.798240 0.108055 0.804267 0.010170
C3    C     C_3   0.371464 0.348165 0.688689 0.005022
C4    C     C_3   0.318906 0.239623 0.601843 -0.270482
C5    C     C_3   0.381590 0.217316 0.554696 -0.450427
C6    C     C_2   0.724331 0.388750 0.563183 0.631621
C7    C     C_3   0.772421 0.133756 0.991959 0.060826
C8    C     C_3   0.706867 0.096021 0.035964 -0.262216
C9    C     C_3   0.755963 0.136106 0.127478 -0.503499
C10   C     C_3   0.749061 0.909682 0.878984 -0.004292
C11   C     C_3   0.731832 0.804877 0.842528 -0.241684
C12   C     C_3   0.804278 0.816204 0.896531 -0.481687
C13   C     C_R   0.750732 0.055047 0.840511 0.251557
C14   C     C_3   0.861982 0.847170 0.641306 0.022941
C15   C     C_3   0.898325 0.844438 0.712672 -0.285880
C16   C     C_3   0.868337 0.735881 0.678317 -0.439906
C17   C     C_R   0.857868 0.220431 0.860078 0.529931
C18   C     C_R   0.712129 0.948117 0.791604 0.268245
C19   C     C_R   0.706386 0.892216 0.701203 0.002643
C20   C     C_R   0.752432 0.946051 0.666582 0.013375
C21   C     C_3   0.832759 0.956581 0.636548 0.234716
C22   C     C_3   0.872082 0.070218 0.683125 -0.215535
C23   C     C_R   0.714157 0.471520 0.169461 -0.019487
C24   C     C_R   0.800655 0.496397 0.193651 0.003222
C25   C     C_R   0.611553 0.535214 0.804399 -0.150874
C26   C     C_R   0.829400 0.506304 0.269822 -0.144246
C27   C     C_R   0.780263 0.508578 0.328769 0.017972
C28   C     C_R   0.699992 0.500212 0.309322 0.026251
C29   C     C_R   0.139963 0.500712 0.859951 0.508251
C30   C     C_R   0.668988 0.480958 0.230009 -0.003059
C31   C     C_3   0.638617 0.534717 0.214811 0.254177
C32   C     C_3   0.679545 0.514322 0.140510 -0.076801
C33   C     C_R   0.162563 0.946916 0.200386 -0.002433
C34   C     C_R   0.195932 0.891273 0.194546 -0.005785
C35   C     C_R   0.282746 0.944626 0.250006 -0.159038
C36   C     C_R   0.674984 0.513550 0.777374 -0.035763
C37   C     C_R   0.337890 0.052796 0.306214 0.206613
C38   C     C_R   0.304246 0.108238 0.309253 0.030175
C39   C     C_R   0.215880 0.053419 0.257765 -0.082874
C40   C     C_3   0.176099 0.062556 0.195492 0.193013
C41   C     C_R   0.857063 0.497753 0.137353 0.502875
C42   C     C_3   0.116784 0.943425 0.130163 0.304506
C43   C     C_R   0.289438 0.576583 0.237279 0.029362
C44   C     C_R   0.198067 0.497534 0.191267 0.024098
C45   C     C_R   0.161381 0.412246 0.193993 -0.154225
C46   C     C_R   0.213735 0.407500 0.245036 0.246729
C47   C     C_R   0.731190 0.521128 0.836378 -0.058279
C48   C     C_R   0.302469 0.495073 0.300501 0.055870
C49   C     C_R   0.338878 0.576939 0.293222 -0.061073
C50   C     C_3   0.387437 0.691834 0.363071 0.052336
C51   C     C_3   0.337932 0.692311 0.295303 0.268590
C52   C     C_R   0.282022 0.534884 0.833895 -0.068722
C53   C     C_R   0.140815 0.500935 0.140133 0.549396
C54   C     C_R   0.195329 0.504699 0.803688 -0.008658
C55   C     C_R   0.161939 0.473884 0.717442 0.222296
C56   C     C_R   0.218792 0.481497 0.666151 0.235881
C57   C     C_R   0.302596 0.502166 0.694491 0.033059
C58   C     C_R   0.788487 0.486648 0.803699 -0.022506
C59   C     C_R   0.332574 0.528060 0.778000 -0.023378
C60   C     C_3   0.357045 0.473668 0.799906 0.140949
C61   C     C_3   0.307219 0.488281 0.865672 -0.183048
C62   C     C_R   0.643430 0.502670 0.364153 0.537455
C63   C     C_R   0.359480 0.500070 0.639503 0.525884
C64   C     C_R   0.643014 0.779671 0.640891 0.510788
C65   C     C_R   0.855774 0.496940 0.860145 0.515214
C66   C     C_R   0.360052 0.219833 0.361395 0.527481
C67   C     C_R   0.359183 0.499221 0.359927 0.539403
C68   C     C_R   0.636734 0.495980 0.638937 0.496202
C69   C     C_R   0.780939 0.439387 0.712321 0.006395
C70   C     C_R   0.724033 0.560581 0.923837 0.111937
C71   C     C_R   0.678867 0.609204 0.955291 0.299104
C72   C     C_R   0.619018 0.590725 0.891978 -0.144595
C73   C     C_2   0.825897 0.387221 0.669899 0.627528
C74   C     C_2   0.815197 0.899753 0.537343 0.572589
C75   C     C_2   0.819820 0.529617 0.412352 0.565654
C76   C     C_2   0.537477 0.479893 0.190400 0.604596
C77   C     C_3   0.689175 0.705071 0.269641 0.061423
C78   C     C_3   0.785389 0.783832 0.282502 -0.254036
C79   C     C_3   0.804109 0.889386 0.320785 -0.451076
C80   C     C_R   0.728453 0.438280 0.657536 0.011643
C81   C     C_2   0.610162 0.434330 0.048602 0.617001
C82   C     C_2   0.746279 0.535225 0.977998 0.645633
C83   C     C_3   0.480682 0.098074 0.308407 0.039265
C84   C     C_3   0.523916 0.052224 0.323488 -0.241515
C85   C     C_3   0.595117 0.056708 0.279060 -0.476962
C86   C     C_3   0.296743 0.094816 0.132836 0.046141
C87   C     C_3   0.387066 0.193732 0.163760 -0.264961
C88   C     C_3   0.455593 0.172314 0.130430 -0.450608
C89   C     C_2   0.018017 0.899627 0.116766 0.529473
C90   C     C_3   0.076804 0.803522 0.980504 0.009318
C91   C     C_R   0.680366 0.481899 0.691813 -0.020040
C92   C     C_3   0.125874 0.765901 0.920464 -0.312894
C93   C     C_3   0.063499 0.651921 0.843436 -0.421518
C94   C     C_3   0.120289 0.227463 0.165036 0.018526
C95   C     C_3   0.023570 0.177723 0.164699 -0.263383
C96   C     C_3   0.958006 0.085637 0.071076 -0.480712
C97   C     C_2   0.358926 0.713075 0.444789 0.546849
C98   C     C_2   0.488553 0.751415 0.386491 0.627976
C99   C     C_3   0.307242 0.820827 0.357912 0.027341
C100  C     C_3   0.363109 0.894503 0.456480 -0.258481
C101  C     C_3   0.386430 0.002349 0.497702 -0.473397
C102  C     C_R   0.795033 0.051956 0.716430 -0.058527
C103  C     C_3   0.645950 0.714112 0.074313 0.021403
C104  C     C_3   0.694830 0.812325 0.078155 -0.287152
C105  C     C_3   0.656593 0.875391 0.122565 -0.490609
C106  C     C_2   0.392603 0.733900 0.246812 0.553777
C107  C     C_3   0.022110 0.323365 0.626780 0.072777
C108  C     C_3   0.974445 0.279505 0.532904 -0.260781
C109  C     C_3   0.912063 0.161807 0.475162 -0.504629
C110  C     C_3   0.185828 0.537216 0.595430 0.006190
C111  C     C_3   0.149631 0.508090 0.504357 -0.239177
C112  C     C_3   0.130643 0.583348 0.512758 -0.434578
H1    H     H_    0.937625 0.124048 0.737185 0.150294
H2    H     H_    0.352271 0.545926 0.935985 0.129812
H3    H     H_    0.798781 0.221885 0.171628 0.167429
H4    H     H_    0.750801 0.944994 0.948852 0.133028
H5    H     H_    0.817163 0.960813 0.880296 0.095537
H6    H     H_    0.665371 0.753961 0.843125 0.195080
H7    H     H_    0.732552 0.767834 0.773603 0.197948
H8    H     H_    0.870403 0.861692 0.892257 0.151322
H9    H     H_    0.788299 0.738817 0.869803 0.173247
H10   H     H_    0.808843 0.855346 0.967190 0.166196
H11   H     H_    0.891325 0.825174 0.587831 0.175348
H12   H     H_    0.788169 0.790472 0.612236 0.135790
H13   H     H_    0.575087 0.615393 0.907592 0.087944
H14   H     H_    0.972740 0.895947 0.737669 0.177651
H15   H     H_    0.874808 0.874511 0.769122 0.161967
H16   H     H_    0.794265 0.681248 0.647860 0.177194
H17   H     H_    0.889594 0.736454 0.734254 0.143109
H18   H     H_    0.900149 0.709736 0.628874 0.203882
H19   H     H_    0.555172 0.511246 0.758901 0.142774
H20   H     H_    0.818877 0.255406 0.607027 0.321970
H21   H     H_    0.946821 0.977454 0.553021 0.311248
H22   H     H_    0.917505 0.546620 0.483486 0.348495
H23   H     H_    0.414898 0.349111 0.109313 0.328110
H24   H     H_    0.663887 0.746866 0.316545 0.246849
H25   H     H_    0.643948 0.661663 0.201933 0.133642
H26   H     H_    0.834302 0.793894 0.327934 0.247047
H27   H     H_    0.869783 0.091953 0.638061 0.104125
H28   H     H_    0.797251 0.755102 0.217923 0.185084
H29   H     H_    0.757046 0.883181 0.277303 0.129271
H30   H     H_    0.873413 0.942140 0.326541 0.161783
H31   H     H_    0.797517 0.923274 0.387719 0.201489
H32   H     H_    0.538000 0.286860 0.938759 0.355835
H33   H     H_    0.745093 0.426007 0.979592 0.340287
H34   H     H_    0.533991 0.177838 0.331426 0.204052
H35   H     H_    0.447275 0.052165 0.235501 0.094458
H36   H     H_    0.555244 0.095148 0.395795 0.231398
H37   H     H_    0.471193 0.970693 0.295824 0.170637
H38   H     H_    0.893072 0.517790 0.285467 0.177373
H39   H     H_    0.564441 0.010177 0.206050 0.138862
H40   H     H_    0.626512 0.025074 0.293128 0.155367
H41   H     H_    0.648198 0.137836 0.305377 0.165399
H42   H     H_    0.270340 0.047205 0.059243 0.190984
H43   H     H_    0.306590 0.051035 0.150888 0.143407
H44   H     H_    0.376571 0.231171 0.138112 0.196196
H45   H     H_    0.413798 0.248079 0.237124 0.178969
H46   H     H_    0.468241 0.136496 0.157052 0.125115
H47   H     H_    0.519678 0.246038 0.153253 0.188871
H48   H     H_    0.431158 0.119965 0.056743 0.162921
H49   H     H_    0.734529 0.585726 0.152008 0.161946
H50   H     H_    0.906611 0.821171 0.138297 0.356014
H51   H     H_    0.024984 0.797166 0.942017 0.167388
H52   H     H_    0.043155 0.753812 0.002575 0.170882
H53   H     H_    0.155108 0.811694 0.893760 0.170142
H54   H     H_    0.181440 0.777987 0.959930 0.172196
H55   H     H_    0.040711 0.604768 0.868981 0.170472
H56   H     H_    0.099870 0.629307 0.798039 0.182193
H57   H     H_    0.004702 0.636780 0.805765 0.174968
H58   H     H_    0.140099 0.176085 0.154874 0.207018
H59   H     H_    0.126063 0.231028 0.107281 0.112634
H60   H     H_    0.308859 0.902748 0.248335 0.136844
H61   H     H_    0.016435 0.151631 0.207800 0.176945
H62   H     H_    0.006432 0.234680 0.191917 0.167065
H63   H     H_    0.956675 0.112135 0.029924 0.127696
H64   H     H_    0.889913 0.044588 0.073977 0.136427
H65   H     H_    0.977818 0.031285 0.039598 0.203424
H66   H     H_    0.395446 0.785862 0.577330 0.327463
H67   H     H_    0.608518 0.889383 0.461075 0.350846
H68   H     H_    0.247511 0.822287 0.351706 0.154927
H69   H     H_    0.344257 0.849214 0.320989 0.143008
H70   H     H_    0.324877 0.864852 0.492460 0.202742
H71   H     H_    0.137375 0.094949 0.225733 0.119893
H72   H     H_    0.426279 0.900195 0.464344 0.233689
H73   H     H_    0.424587 0.033949 0.462863 0.197096
H74   H     H_    0.428259 0.054531 0.568655 0.172604
H75   H     H_    0.324308 0.999667 0.493589 0.145083
H76   H     H_    0.648411 0.738742 0.142569 0.148205
H77   H     H_    0.573076 0.661802 0.036737 0.140221
H78   H     H_    0.767259 0.860401 0.116075 0.182959
H79   H     H_    0.687908 0.792173 0.010422 0.152434
H80   H     H_    0.584360 0.829046 0.085128 0.159279
H81   H     H_    0.692763 0.945250 0.123717 0.147040
H82   H     H_    0.091231 0.350065 0.157443 0.130775
H83   H     H_    0.664781 0.900085 0.191915 0.144025
H84   H     H_    0.506987 0.845543 0.254552 0.325405
H85   H     H_    0.970586 0.295390 0.655407 0.168567
H86   H     H_    0.061453 0.290999 0.622399 0.119326
H87   H     H_    0.934972 0.310740 0.535790 0.208758
H88   H     H_    0.024633 0.302684 0.501497 0.206192
H89   H     H_    0.950862 0.129130 0.469708 0.163183
H90   H     H_    0.878531 0.132236 0.407588 0.153964
H91   H     H_    0.859890 0.135619 0.503925 0.148433
H92   H     H_    0.254408 0.610408 0.630844 0.117547
H93   H     H_    0.429873 0.516763 0.832431 0.088229
H94   H     H_    0.141160 0.549992 0.633833 0.176112
H95   H     H_    0.199204 0.508007 0.469322 0.210591
H96   H     H_    0.086397 0.429174 0.463916 0.174883
H97   H     H_    0.077572 0.580058 0.543280 0.150219
H98   H     H_    0.107125 0.562089 0.445865 0.205960
H99   H     H_    0.192286 0.663430 0.554416 0.175658
H100  H     H_    0.417066 0.354174 0.733913 0.146856
H101  H     H_    0.411199 0.403159 0.672623 0.129376
H102  H     H_    0.280084 0.181987 0.615575 0.177476
H103  H     H_    0.271193 0.232333 0.557640 0.183949
H104  H     H_    0.248544 0.414909 0.850801 0.161656
H105  H     H_    0.421448 0.274498 0.540791 0.171298
H106  H     H_    0.341366 0.139125 0.490816 0.172646
H107  H     H_    0.427928 0.220505 0.596261 0.161104
H108  H     H_    0.787972 0.395025 0.476026 0.345073
H109  H     H_    0.813887 0.219395 0.037010 0.192112
H110  H     H_    0.819248 0.110673 0.986444 0.093741
H111  H     H_    0.663467 0.123831 0.043473 0.184599
H112  H     H_    0.662887 0.010355 0.993449 0.195270
H113  H     H_    0.798320 0.107604 0.121932 0.138498
H114  H     H_    0.706429 0.108334 0.157742 0.146356
O1    O     O_3   0.000000 0.500000 0.000000 -0.465306
O2    O     O_R   0.323450 0.268330 0.384170 -0.534448
O3    O     O_R   0.444860 0.560620 0.384150 -0.478744
O4    O     O_R   0.055050 0.731580 0.115780 -0.508485
O5    O     O_R   0.615780 0.439200 0.555040 -0.488912
O6    O     O_R   0.323420 0.439190 0.384160 -0.497384
O7    O     O_R   0.615760 0.560630 0.676470 -0.590275
O8    O     O_R   0.615740 0.731500 0.676460 -0.523288
O9    O     O_R   0.444900 0.268330 0.384170 -0.531232
O10   O     O_R   0.615750 0.560630 0.384150 -0.468079
O11   O     O_R   0.323430 0.439200 0.555040 -0.496772
O12   O     O_R   0.055090 0.439280 0.823480 -0.527291
O13   O     O_R   0.884220 0.268410 0.823490 -0.539670
O14   O     O_R   0.176520 0.560720 0.944920 -0.537987
O15   O     O_R   0.884200 0.439290 0.115800 -0.549885
O16   O     O_R   0.176530 0.560720 0.115800 -0.485095
O17   O     O_R   0.884180 0.560710 0.944910 -0.531765
O18   O     O_R   0.055100 0.439290 0.115810 -0.565449
O19   O     O_R   0.884190 0.439280 0.823480 -0.505537
O20   O     O_2   0.899572 0.434996 0.665313 -0.505539
O21   O     O_R   0.782392 0.283005 0.634374 -0.662069
O22   O     O_2   0.738592 0.833544 0.485438 -0.449682
O23   O     O_R   0.884180 0.560710 0.115790 -0.501235
O24   O     O_R   0.886295 0.921627 0.504322 -0.709382
O25   O     O_2   0.789376 0.551368 0.472910 -0.518781
O26   O     O_R   0.894366 0.527261 0.422850 -0.726403
O27   O     O_2   0.506135 0.528821 0.228357 -0.447178
O28   O     O_R   0.479885 0.373759 0.124107 -0.720578
O29   O     O_3   0.688580 0.640455 0.289451 -0.528135
O30   O     O_2   0.573190 0.458170 0.019399 -0.492603
O31   O     O_R   0.585898 0.332809 0.998448 -0.659255
O32   O     O_2   0.797512 0.605193 0.054058 -0.487204
O33   O     O_R   0.718295 0.433549 0.938795 -0.686124
O34   O     O_R   0.176500 0.731590 0.115790 -0.549733
O35   O     O_3   0.423455 0.103843 0.359771 -0.558632
O36   O     O_3   0.237022 0.120735 0.167494 -0.567926
O37   O     O_2   0.979282 0.911932 0.075517 -0.572979
O38   O     O_R   0.971636 0.845730 0.151488 -0.674879
O39   O     O_3   0.139981 0.908125 0.051771 -0.600847
O40   O     O_3   0.177968 0.323671 0.248758 -0.540827
O41   O     O_2   0.279410 0.670440 0.436882 -0.535524
O42   O     O_R   0.423156 0.779206 0.528914 -0.671067
O43   O     O_2   0.523379 0.706795 0.349111 -0.455627
O44   O     O_R   0.542317 0.858354 0.451226 -0.646686
O45   O     O_R   0.884220 0.268420 0.944930 -0.552166
O46   O     O_3   0.275027 0.717192 0.320808 -0.555107
O47   O     O_3   0.688962 0.662530 0.045972 -0.556512
O48   O     O_2   0.362763 0.685018 0.166218 -0.504159
O49   O     O_R   0.476227 0.828948 0.294547 -0.722646
O50   O     O_3   0.073244 0.432993 0.681311 -0.533011
O51   O     O_3   0.188441 0.456780 0.583804 -0.546404
O52   O     O_3   0.311331 0.367560 0.728588 -0.562708
O53   O     O_2   0.658015 0.302923 0.505204 -0.510818
O54   O     O_R   0.797818 0.438381 0.541855 -0.669070
O55   O     O_3   0.723505 0.100838 0.910562 -0.532359
O56   O     O_3   0.499960 0.499910 0.499960 -0.481405
O57   O     O_3   0.678508 0.898168 0.831528 -0.527225
O58   O     O_3   0.888731 0.949346 0.681346 -0.609948
O59   O     O_R   0.615770 0.439200 0.384160 -0.534584
O60   O     O_R   0.444870 0.560630 0.676470 -0.568540
O61   O     O_R   0.615730 0.731500 0.555020 -0.491073
Zn1   Zn    Zn3+2 0.956630 0.413250 0.869870 0.952383
Zn2   Zn    Zn3+2 0.130130 0.586750 0.043370 0.960579
Zn3   Zn    Zn3+2 0.956630 0.413250 0.043380 0.922462
Zn4   Zn    Zn3+2 0.956610 0.586750 0.043370 0.986694
Zn5   Zn    Zn3+2 0.543330 0.586660 0.630080 0.894354
Zn6   Zn    Zn3+2 0.543320 0.586660 0.456570 1.046985
Zn7   Zn    Zn3+2 0.369830 0.413160 0.456580 0.973075
Zn8   Zn    Zn3+2 0.543350 0.413170 0.456590 0.961173

loop_
_geom_bond_atom_site_label_1
_geom_bond_atom_site_label_2
_ccdc_geom_bond_type
C87   C88   S    
C75   O26   S    
C24   C41   S    
C96   H63   S    
C82   O32   D    
O1    Zn3   S    
C98   O43   D    
C54   C55   A    
C9    H113  S    
C95   C96   S    
C77   O29   S    
C53   O18   A    
H22   O26   S    
C33   C34   A    
C17   O45   A    
C11   H7    S    
C85   H39   S    
O12   Zn1   S    
C7    C8    S    
C5    H107  S    
C77   C78   S    
C108  C109  S    
C105  H81   S    
O14   Zn2   S    
C65   O17   A    
C93   H57   S    
C55   O50   S    
C33   C39   A    
C13   C18   A    
O1    Zn4   S    
C33   C42   S    
C110  H92   S    
C109  H90   S    
C35   C37   A    
C95   H62   S    
C24   C26   A    
C18   C19   A    
H67   O44   S    
C52   C61   S    
C51   C106  S    
C38   C39   A    
C7    H109  S    
C101  H73   S    
C60   H93   S    
C57   C59   A    
C79   H30   S    
C20   C102  A    
C29   C54   S    
C2    C102  A    
C86   H43   S    
C15   C16   S    
O23   Zn4   S    
C99   O46   S    
C3    H100  S    
C68   C91   S    
C56   C57   A    
C61   H2    S    
C36   C47   A    
O2    Zn7   S    
C34   C35   A    
C88   H47   S    
C2    C13   A    
C110  C111  S    
C100  C101  S    
H33   O33   S    
C97   O42   S    
C63   O60   A    
C71   O47   S    
O15   Zn3   S    
C12   H8    S    
C40   O36   S    
C92   H53   S    
C97   O41   D    
C22   H1    S    
C5    H105  S    
C18   O57   S    
C38   C66   S    
C93   H56   S    
C8    C9    S    
C15   H14   S    
C106  O48   D    
H108  O54   S    
C100  H72   S    
C107  C108  S    
C69   C73   S    
C9    H114  S    
C89   O37   D    
C77   H24   S    
C88   H46   S    
C96   H65   S    
C76   O28   S    
O45   Zn3   S    
C8    H112  S    
C68   O5    A    
C110  O51   S    
C84   H37   S    
C40   C42   S    
C56   O51   S    
C6    O54   S    
C59   C60   S    
C48   C67   S    
C4    H103  S    
C60   O52   S    
C21   C22   S    
C14   H11   S    
C2    C17   S    
C35   H60   S    
C105  H80   S    
C92   H54   S    
C27   C75   S    
C6    O53   D    
C78   H26   S    
C104  C105  S    
C74   O24   S    
C52   C54   A    
C1    C34   S    
C57   C63   S    
O9    Zn8   S    
C84   H36   S    
C5    H106  S    
O17   Zn4   S    
C90   C92   S    
C94   O40   S    
C90   H52   S    
C46   C48   A    
C50   C98   S    
C14   H12   S    
C12   H9    S    
C29   O14   A    
C9    H3    S    
C23   C30   A    
C26   H38   S    
C90   O39   S    
C4    H102  S    
C84   C85   S    
C103  O47   S    
O11   Zn7   S    
C39   C40   S    
C107  H85   S    
C7    H110  S    
C86   C87   S    
O56   Zn7   S    
C3    O52   S    
C73   O20   D    
C25   C36   A    
H21   O24   S    
C14   O58   S    
C45   C46   A    
C104  H79   S    
C22   H27   S    
C7    O55   S    
C98   O44   S    
C87   H45   S    
C41   O15   A    
C60   C61   S    
C112  H98   S    
C10   O57   S    
C108  H88   S    
O10   Zn6   S    
C112  H99   S    
C47   C70   A    
C64   O8    A    
C37   C38   A    
C76   O27   D    
C52   C59   A    
C79   H31   S    
C94   H59   S    
C83   H34   S    
C74   O22   D    
O5    Zn8   S    
C58   C65   S    
C6    C80   S    
C83   C84   S    
C14   C15   S    
C51   O46   S    
H50   O38   S    
C19   C64   S    
C46   O40   S    
C104  H78   S    
C32   H49   S    
O59   Zn8   S    
C55   C56   A    
O1    Zn2   S    
C50   C51   S    
C44   C53   S    
O7    Zn5   S    
C12   H10   S    
C110  H94   S    
C25   C72   A    
C85   H41   S    
C53   O16   A    
C42   O39   S    
O3    Zn6   S    
C16   H17   S    
C8    H111  S    
C67   O3    A    
C70   C71   A    
H84   O49   S    
C89   O38   S    
H32   O31   S    
C103  H77   S    
C17   O13   A    
C36   C91   A    
O56   Zn5   S    
C48   C49   A    
C61   H104  S    
C67   O6    A    
C1    O4    A    
C103  H76   S    
O8    Zn5   S    
C10   C11   S    
C62   O10   A    
C26   C27   A    
C83   H35   S    
C83   O35   S    
C41   O23   A    
C3    C4    S    
C25   H19   S    
C111  H95   S    
C29   O12   A    
C27   C28   A    
C32   C81   S    
C10   H4    S    
C44   C45   A    
C64   O61   A    
C70   C82   S    
O18   Zn3   S    
C45   H82   S    
C105  H83   S    
C108  H87   S    
C65   O19   A    
O34   Zn2   S    
C50   C97   S    
C100  H70   S    
C96   H64   S    
C111  C112  S    
C82   O33   S    
C78   C79   S    
C21   O58   S    
C31   C32   S    
C43   C49   A    
C106  O49   S    
C77   H25   S    
O4    Zn4   S    
O16   Zn2   S    
C78   H28   S    
C63   O11   A    
C107  H86   S    
C88   H48   S    
C11   C12   S    
C58   C69   A    
C73   O21   S    
O60   Zn5   S    
C3    H101  S    
O61   Zn6   S    
C90   H51   S    
C81   O31   S    
C22   C102  S    
C99   C100  S    
C31   O29   S    
C72   H13   S    
C42   C89   S    
C23   C32   S    
C75   O25   D    
C19   C20   A    
C109  H89   S    
C86   H42   S    
C85   H40   S    
C99   H68   S    
C10   H5    S    
C40   H71   S    
O1    Zn1   S    
C112  H97   S    
C47   C58   A    
C30   C31   S    
C13   O55   S    
C31   C76   S    
C79   H29   S    
C66   O9    A    
C43   C44   A    
C80   C91   A    
C43   C51   S    
C21   C74   S    
C28   C30   A    
C92   C93   S    
H20   O21   S    
C62   O59   A    
H66   O42   S    
C16   H16   S    
H23   O28   S    
C95   H61   S    
C94   C95   S    
O56   Zn8   S    
C37   O35   S    
C99   H69   S    
C68   O7    A    
C23   C24   A    
O6    Zn7   S    
C107  O50   S    
C4    C5    S    
C71   C72   A    
C20   C21   S    
C93   H55   S    
C49   C50   S    
C109  H91   S    
C66   O2    A    
C103  C104  S    
C1    O34   A    
C87   H44   S    
C69   C80   A    
C15   H15   S    
C16   H18   S    
O13   Zn1   S    
O56   Zn6   S    
C101  H75   S    
C11   H6    S    
C111  H96   S    
C86   O36   S    
C94   H58   S    
C81   O30   D    
C101  H74   S    
O19   Zn1   S    
C28   C62   S    
