data_mof_unit_4371.cif
_audit_creation_date              2012-12-10T17:09:50-0500
_audit_creation_method            fapswitch 2.2
_symmetry_space_group_name_H-M    P1
_symmetry_Int_Tables_number       1
_space_group_crystal_system       triclinic
_cell_length_a                    10.736559
_cell_length_b                    12.986172
_cell_length_c                    11.760576
_cell_angle_alpha                 99.325563
_cell_angle_beta                  92.78402
_cell_angle_gamma                 91.922565
_cell_volume                      1614.73044298

loop_
_atom_site_label
_atom_site_type_symbol
_atom_type_description
_atom_site_fract_x
_atom_site_fract_y
_atom_site_fract_z
_atom_type_partial_charge
C1    C     C_R   0.498734 0.299386 0.478974 0.811299
C2    C     C_R   0.071418 0.598870 0.542881 0.020310
C3    C     C_R   0.129066 0.504306 0.503481 -0.174229
C4    C     C_R   0.058633 0.412285 0.459854 0.413763
C5    C     C_R   0.929222 0.413410 0.459443 -0.294417
C6    C     C_R   0.870835 0.505749 0.497781 -0.136492
C7    C     C_R   0.501926 0.813940 0.533204 -0.048762
C8    C     C_R   0.499906 0.186079 0.467020 -0.047244
C9    C     C_R   0.506655 0.016749 0.346578 -0.214478
C10   C     C_R   0.505020 0.124751 0.357544 -0.216669
C11   C     C_R   0.496932 0.138728 0.565644 -0.262199
C12   C     C_R   0.262856 0.500848 0.501173 0.861565
C13   C     C_R   0.498998 0.030753 0.555410 0.177182
C14   C     C_R   0.503735 0.969309 0.444997 0.172175
C15   C     C_R   0.505308 0.861332 0.434686 -0.269570
C16   C     C_R   0.497563 0.875234 0.642769 -0.206186
C17   C     C_R   0.496226 0.983274 0.653821 -0.220648
C18   C     C_R   0.379649 0.401696 0.029087 -0.337017
C19   C     C_R   0.392093 0.411437 0.148687 0.073605
C20   C     C_R   0.553585 0.541159 0.155013 0.035312
C21   C     C_R   0.544747 0.533987 0.033113 0.032132
C22   C     C_R   0.454847 0.464424 0.968608 0.075171
C23   C     C_R   0.501929 0.700618 0.521047 0.770595
C24   C     C_R   0.442328 0.459740 0.846145 0.293930
C25   C     C_R   0.611320 0.585447 0.853720 0.053839
C26   C     C_R   0.622827 0.594576 0.974838 -0.342938
C27   C     C_R   0.737103 0.500633 0.499031 0.816387
C28   C     C_R   0.141258 0.692806 0.583957 -0.195254
C29   C     C_R   0.081716 0.785371 0.620240 -0.168497
C30   C     C_R   0.951295 0.786681 0.616403 0.210250
C31   C     C_R   0.881149 0.694063 0.575538 -0.183974
C32   C     C_R   0.940065 0.599606 0.539203 0.053375
Cu1   Cu    Cu3+1 0.509250 0.507730 0.615930 0.927938
Cu2   Cu    Cu3+1 0.490750 0.492270 0.384070 0.936547
H1    H     H_    0.492728 0.029516 0.738952 0.133652
H2    H     H_    0.507934 0.160121 0.280348 0.159191
H3    H     H_    0.492817 0.185615 0.650436 0.146031
H4    H     H_    0.673020 0.632178 0.810547 0.134375
H5    H     H_    0.310187 0.344443 0.987174 0.146947
H6    H     H_    0.693148 0.648559 0.022670 0.144606
H7    H     H_    0.333545 0.363552 0.193100 0.129939
H8    H     H_    0.621613 0.595086 0.206159 0.116565
H9    H     H_    0.242144 0.695798 0.587899 0.144350
H10   H     H_    0.137799 0.856183 0.651094 0.136253
H11   H     H_    0.780428 0.696979 0.571274 0.127954
H12   H     H_    0.873795 0.341581 0.431946 0.143476
H13   H     H_    0.509119 0.814445 0.349863 0.153591
H14   H     H_    0.494679 0.839806 0.719920 0.159914
H15   H     H_    0.510353 0.970491 0.261475 0.135663
N1    N     N_R   0.523180 0.519350 0.790130 -0.195949
N2    N     N_R   0.476820 0.480650 0.209890 -0.180144
O1    O     O_R   0.506570 0.354460 0.582000 -0.607809
O2    O     O_R   0.490940 0.341410 0.386200 -0.594049
O3    O     O_R   0.327470 0.506530 0.597920 -0.593500
O4    O     O_R   0.311840 0.493480 0.402120 -0.579493
O5    O     O_R   0.509060 0.658590 0.613800 -0.599715
O6    O     O_R   0.493430 0.645540 0.418000 -0.586911
O7    O     O_R   0.688160 0.506520 0.597880 -0.578784
O8    O     O_R   0.672530 0.493470 0.402080 -0.583605
O9    O     O_3   0.118208 0.319483 0.429676 -0.620961
C33   C     C_3   0.093985 0.281369 0.310912 0.053102
H16   H     H_    0.113525 0.343470 0.258016 0.138480
H17   H     H_    0.995249 0.251977 0.293489 0.143737
C34   C     C_3   0.178565 0.190771 0.275285 -0.314624
H18   H     H_    0.277420 0.218391 0.294226 0.225568
H19   H     H_    0.158987 0.127611 0.326235 0.229395
C35   C     C_3   0.159028 0.146942 0.146971 -0.952384
H20   H     H_    0.061223 0.116499 0.126457 0.261043
H21   H     H_    0.222650 0.081995 0.124160 0.259875
H22   H     H_    0.179836 0.208466 0.094308 0.247179
C36   C     C_3   0.334920 0.390512 0.781869 -0.360423
C37   C     C_3   0.208464 0.440334 0.801284 -0.811439
H23   H     H_    0.181992 0.444258 0.891713 0.236027
H24   H     H_    0.210987 0.520971 0.781186 0.269759
H25   H     H_    0.134781 0.393227 0.744178 0.247333
H26   H     H_    0.343315 0.369694 0.689844 0.261665
H27   H     H_    0.333905 0.311917 0.807180 0.147020
C38   C     C_3   0.886278 0.886813 0.653570 -0.412320
C39   C     C_3   0.818881 0.883363 0.764340 -0.827899
H28   H     H_    0.746054 0.819164 0.751243 0.244877
H29   H     H_    0.886493 0.871529 0.835139 0.250623
H30   H     H_    0.773064 0.958370 0.789984 0.244961
H31   H     H_    0.954358 0.954692 0.668719 0.200353
H32   H     H_    0.817779 0.899740 0.583811 0.209707

loop_
_geom_bond_atom_site_label_1
_geom_bond_atom_site_label_2
_ccdc_geom_bond_type
C6    C32   A    
C21   C26   A    
Cu1   O7    S    
C1    C8    S    
C2    C28   A    
C15   H13   S    
C18   H5    S    
C16   H14   S    
C23   O5    A    
Cu1   O1    S    
Cu2   N2    S    
C28   C29   A    
C20   N2    A    
C5    C6    A    
C2    C32   A    
C18   C19   A    
C11   H3    S    
C1    O2    A    
C25   N1    A    
C3    C12   S    
C38   H31   S    
C31   C32   A    
C16   C17   A    
Cu2   O6    S    
C9    C10   A    
Cu1   O5    S    
C7    C15   A    
Cu2   O4    S    
C13   C14   A    
C37   H25   S    
C24   N1    A    
C35   H20   S    
C34   C35   S    
C9    H15   S    
C37   H24   S    
C39   H29   S    
C38   C39   S    
C37   H23   S    
C25   C26   A    
O9    C33   S    
C35   H21   S    
C34   H19   S    
C33   C34   S    
C9    C14   A    
C29   C30   A    
C38   H32   S    
C25   H4    S    
C6    C27   S    
C4    O9    S    
C33   H17   S    
Cu1   Cu2   S    
C7    C16   A    
C29   H10   S    
Cu2   O8    S    
C22   C24   A    
C3    C4    A    
C36   H26   S    
C36   H27   S    
Cu1   O3    S    
C23   O6    A    
C18   C22   A    
C4    C5    A    
C27   O7    A    
C39   H30   S    
C20   H8    S    
C5    H12   S    
C28   H9    S    
C13   C17   A    
C35   H22   S    
C34   H18   S    
C2    C3    A    
Cu1   N1    S    
C36   C37   S    
C27   O8    A    
C11   C13   A    
C26   H6    S    
C30   C31   A    
C8    C11   A    
C7    C23   S    
C33   H16   S    
C1    O1    A    
C12   O4    A    
C39   H28   S    
C30   C38   S    
C19   N2    A    
C20   C21   A    
Cu2   O2    S    
C8    C10   A    
C31   H11   S    
C14   C15   A    
C10   H2    S    
C17   H1    S    
C21   C22   A    
C12   O3    A    
C19   H7    S    
C24   C36   S    
