data_mof_unit_202.cif
_audit_creation_date              2012-10-26T21:04:51-0400
_audit_creation_method            fapswitch 2.2
_symmetry_space_group_name_H-M    P1
_symmetry_Int_Tables_number       1
_space_group_crystal_system       triclinic
_cell_length_a                    11.690535
_cell_length_b                    12.333667
_cell_length_c                    13.175375
_cell_angle_alpha                 116.397019
_cell_angle_beta                  77.977526
_cell_angle_gamma                 101.010243
_cell_volume                      1653.79488441

loop_
_atom_site_label
_atom_site_type_symbol
_atom_type_description
_atom_site_fract_x
_atom_site_fract_y
_atom_site_fract_z
_atom_type_partial_charge
C1    C     C_R   0.513045 0.854864 0.286537 0.535179
C2    C     C_R   0.347089 0.489249 0.159001 -0.136827
C3    C     C_R   0.385152 0.611190 0.188278 -0.109814
C4    C     C_R   0.715704 0.999577 0.499907 0.543083
C5    C     C_R   0.508945 0.348731 0.869353 -0.171467
C6    C     C_R   0.379301 0.191821 0.913783 0.271718
C7    C     C_R   0.533330 0.771871 0.164479 -0.016049
C8    C     C_R   0.685146 0.345414 0.327418 -0.143607
C9    C     C_R   0.342156 0.759377 0.644773 0.069639
C10   C     C_R   0.307451 0.663107 0.676477 -0.152359
C11   C     C_R   0.366880 0.559717 0.621905 -0.130969
C12   C     C_R   0.459187 0.227453 0.835147 -0.011365
C13   C     C_R   0.462347 0.551427 0.534353 -0.001693
C14   C     C_R   0.495014 0.652932 0.505185 0.180544
C15   C     C_R   0.526530 0.446849 0.474856 -0.006380
C16   C     C_R   0.481398 0.144941 0.713428 0.555706
C17   C     C_R   0.620928 0.445932 0.387364 0.038895
C18   C     C_R   0.651318 0.545504 0.360405 -0.168938
C19   C     C_R   0.590414 0.646873 0.418487 -0.090696
C20   C     C_R   0.501769 0.342326 0.497972 0.054160
C21   C     C_R   0.656424 0.245938 0.354399 0.050961
C22   C     C_R   0.284276 0.000501 0.500244 0.536917
C23   C     C_R   0.620902 0.810310 0.093618 -0.184000
C24   C     C_1   0.837320 0.999156 0.500148 -0.024071
C25   C     C_1   0.939940 0.999600 0.500239 -0.045678
C26   C     C_1   0.059972 0.000493 0.500247 -0.049050
C27   C     C_1   0.162623 0.000950 0.500211 -0.032913
C28   C     C_R   0.349316 0.279254 0.024723 -0.112010
C29   C     C_3   0.211924 0.067211 0.860083 -0.123417
C30   C     C_3   0.787139 0.490313 0.912470 -0.133652
C31   C     C_R   0.671328 0.725744 0.990746 -0.107268
C32   C     C_R   0.635884 0.601353 0.956600 0.277323
C33   C     C_R   0.534094 0.560805 0.018001 0.037628
C34   C     C_R   0.483384 0.648551 0.123776 -0.013006
C35   C     C_R   0.482732 0.436892 0.981171 0.012991
C36   C     C_R   0.395104 0.401475 0.056417 -0.006126
Cu1   Cu    Cu3+1 0.526510 0.098270 0.475420 0.939256
Cu2   Cu    Cu3+1 0.473490 0.901730 0.524580 0.942413
H1    H     H_    0.723743 0.545523 0.293856 0.104603
H2    H     H_    0.560834 0.374248 0.804239 0.208906
H3    H     H_    0.658602 0.904688 0.122562 0.131612
H4    H     H_    0.745631 0.756153 0.941513 0.135795
H5    H     H_    0.336284 0.675805 0.262693 0.148104
H6    H     H_    0.705632 0.167987 0.308485 0.118537
H7    H     H_    0.168417 0.972934 0.837578 0.124573
H8    H     H_    0.214242 0.089484 0.786485 0.115190
H9    H     H_    0.156831 0.127824 0.936948 0.101927
H10   H     H_    0.741035 0.442586 0.966682 0.118796
H11   H     H_    0.845510 0.571559 0.962123 0.113785
H12   H     H_    0.757294 0.343951 0.260284 0.088124
H13   H     H_    0.843814 0.426553 0.840532 0.146168
H14   H     H_    0.431754 0.335068 0.562953 0.118116
H15   H     H_    0.295256 0.838787 0.686837 0.151111
H16   H     H_    0.336112 0.487870 0.649759 0.100281
H17   H     H_    0.234070 0.668545 0.743394 0.106468
H18   H     H_    0.621892 0.718741 0.392421 0.181042
H19   H     H_    0.275127 0.464032 0.213981 0.108653
H20   H     H_    0.285078 0.252385 0.084066 0.118288
N1    N     N_R   0.566700 0.246290 0.438210 -0.230332
N2    N     N_R   0.434010 0.754320 0.561170 -0.237832
O1    O     O_R   0.533340 0.972510 0.318140 -0.499175
O2    O     O_3   0.706793 0.522539 0.866933 -0.586072
O3    O     O_R   0.488570 0.806530 0.359650 -0.529241
O4    O     O_R   0.685190 0.083000 0.479260 -0.491881
O5    O     O_R   0.640410 0.917020 0.520770 -0.513449
O6    O     O_R   0.511430 0.193470 0.640350 -0.520295
O7    O     O_R   0.466660 0.027490 0.681860 -0.447479
O8    O     O_R   0.359590 0.082980 0.479230 -0.496176
O9    O     O_R   0.314810 0.917000 0.520740 -0.511994
O10   O     O_3   0.326823 0.073116 0.881684 -0.551208

loop_
_geom_bond_atom_site_label_1
_geom_bond_atom_site_label_2
_ccdc_geom_bond_type
C19   H18   S    
Cu1   O1    S    
C30   H13   S    
C15   C17   A    
Cu1   Cu2   S    
C8    C21   A    
C31   H4    S    
C28   H20   S    
C21   H6    S    
C14   N2    A    
C9    C10   A    
C4    O4    A    
C22   O9    A    
C35   C36   A    
C23   H3    S    
Cu2   O5    S    
C29   H8    S    
C18   H1    S    
C9    N2    A    
C22   O8    A    
Cu1   O6    S    
C30   O2    S    
C33   C34   A    
Cu2   O9    S    
C32   O2    S    
C20   H14   S    
C16   O7    A    
C1    C7    S    
C13   C14   A    
C32   C33   A    
C20   N1    A    
C10   H17   S    
C11   C13   A    
C3    H5    S    
C26   C27   T    
Cu1   N1    S    
C11   H16   S    
C29   H9    S    
C7    C23   A    
C5    C35   A    
C30   H10   S    
C33   C35   A    
C30   H11   S    
C21   N1    A    
C2    C3    A    
C22   C27   S    
C13   C15   A    
C6    C12   A    
C4    O5    A    
C4    C24   S    
C7    C34   A    
Cu2   N2    S    
C2    H19   S    
C16   O6    A    
C10   C11   A    
C1    O1    A    
Cu2   O7    S    
Cu1   O8    S    
C8    H12   S    
Cu1   O4    S    
C9    H15   S    
C24   C25   T    
C28   C36   A    
C5    C12   A    
C17   C18   A    
C18   C19   A    
C5    H2    S    
C2    C36   A    
C6    O10   S    
C1    O3    A    
C12   C16   S    
C3    C34   A    
C25   C26   S    
C29   O10   S    
C14   C19   A    
C31   C32   A    
C6    C28   A    
C8    C17   A    
C29   H7    S    
C15   C20   A    
Cu2   O3    S    
C23   C31   A    
