data_mof_unit_557.cif
_audit_creation_date              2012-12-11T18:37:17-0500
_audit_creation_method            fapswitch 2.2
_symmetry_space_group_name_H-M    P1
_symmetry_Int_Tables_number       1
_space_group_crystal_system       triclinic
_cell_length_a                    8.233044
_cell_length_b                    14.352572
_cell_length_c                    26.893648
_cell_angle_alpha                 93.695967
_cell_angle_beta                  92.660173
_cell_angle_gamma                 88.533925
_cell_volume                      3167.05678047

loop_
_atom_site_label
_atom_site_type_symbol
_atom_type_description
_atom_site_fract_x
_atom_site_fract_y
_atom_site_fract_z
_atom_type_partial_charge
Ba1   Ba    Ba6+2 0.849670 0.455410 0.524690 1.665266
Ba2   Ba    Ba6+2 0.340150 0.544510 0.475310 1.650958
C1    C     C_3   0.621269 0.124849 0.666578 -0.368427
C2    C     C_R   0.885325 0.574543 0.174524 0.623790
C3    C     C_2   0.736751 0.517934 0.269556 -0.083920
C4    C     C_3   0.157093 0.251773 0.664196 0.285584
C5    C     C_3   0.696021 0.513530 0.323892 -0.063901
C6    C     C_1   0.980029 0.481571 0.343261 0.022225
C7    C     C_2   0.019561 0.481931 0.295763 -0.111717
C8    C     C_2   0.891724 0.501128 0.255538 0.215592
C9    C     C_R   0.010244 0.497658 0.101480 -0.075273
C10   C     C_R   0.061533 0.423826 0.130939 -0.021260
C11   C     C_R   0.152589 0.349416 0.109068 -0.063068
C12   C     C_3   0.638032 0.218625 0.644329 0.349576
C13   C     C_R   0.922522 0.573786 0.123575 -0.021553
C14   C     C_2   0.845766 0.523530 0.357816 -0.277058
C15   C     C_2   0.349244 0.478599 0.641404 -0.282420
C16   C     C_3   0.157448 0.227250 0.718300 -0.347419
C17   C     C_R   0.195146 0.425571 0.978693 0.018575
C18   C     C_R   0.008880 0.560474 0.967201 -0.006805
C19   C     C_R   0.124557 0.494101 0.947827 0.035784
C20   C     C_R   0.313257 0.362942 0.958142 -0.108649
C21   C     C_R   0.356392 0.365547 0.908741 -0.065759
C22   C     C_R   0.284857 0.431123 0.877501 -0.026410
C23   C     C_3   0.519582 0.688865 0.624179 0.300001
C24   C     C_R   0.169323 0.495779 0.897090 -0.078535
C25   C     C_R   0.098043 0.561784 0.865878 -0.039428
C26   C     C_R   0.148177 0.565190 0.816269 0.594456
C27   C     C_R   0.325461 0.432295 0.826897 0.578712
C28   C     C_3   0.232466 0.256640 0.368044 0.419683
C29   C     C_2   0.457513 0.487628 0.729995 -0.075456
C30   C     C_3   0.499482 0.489106 0.675457 -0.052317
C31   C     C_1   0.212054 0.517463 0.656012 0.040711
C32   C     C_2   0.172014 0.515598 0.703279 -0.111793
C33   C     C_2   0.300907 0.500260 0.743939 0.191019
C34   C     C_3   0.482756 0.727551 0.676595 -0.367764
C35   C     C_R   0.146848 0.422428 0.028965 0.021429
C36   C     C_R   0.047472 0.495647 0.049899 0.051782
C37   C     C_R   0.986163 0.567467 0.019855 0.007819
C38   C     C_R   0.195416 0.348944 0.059434 -0.102721
C39   C     C_R   0.877968 0.648954 0.094585 -0.044742
C40   C     C_3   0.229224 0.259682 0.311396 -0.350289
C41   C     C_R   0.919010 0.615841 0.932637 -0.015578
C42   C     C_R   0.971422 0.619906 0.883851 -0.076595
C43   C     C_R   0.911472 0.646475 0.044132 -0.101706
C44   C     C_R   0.694820 0.065037 0.475433 -0.012115
C45   C     C_3   0.163121 0.751701 0.332101 0.292114
C46   C     C_R   0.508353 0.197959 0.500656 0.055846
C47   C     C_R   0.364956 0.228189 0.522848 -0.246166
C48   C     C_R   0.266846 0.165793 0.544332 0.040566
C49   C     C_R   0.314018 0.071985 0.545502 -0.132734
C50   C     C_R   0.458306 0.039455 0.523592 0.009446
C51   C     C_R   0.555544 0.101628 0.499604 -0.008314
C52   C     C_3   0.031928 0.743550 0.578532 0.302486
C53   C     C_R   0.644005 0.909126 0.501502 -0.009185
C54   C     C_R   0.742084 0.970405 0.477403 -0.005378
C55   C     C_R   0.689052 0.813380 0.501119 0.038954
C56   C     C_3   0.113785 0.766691 0.277111 -0.034687
C57   C     C_R   0.828939 0.780480 0.478073 -0.297395
C58   C     C_R   0.931780 0.841091 0.457511 0.035628
C59   C     C_R   0.887193 0.936001 0.455986 -0.140625
C60   C     C_R   0.503733 0.944946 0.524724 -0.035985
C61   C     C_3   0.042047 0.848519 0.590236 -0.381148
C62   C     C_3   0.679538 0.323262 0.377807 0.307729
C63   C     C_3   0.728296 0.279588 0.327344 -0.374747
C64   C     C_R   0.123825 0.867204 0.263966 0.116828
C65   C     C_R   0.271544 0.914383 0.269976 0.009284
C66   C     C_R   0.282148 0.005680 0.255409 -0.047475
C67   C     C_3   0.691322 0.755110 0.345212 0.327579
C68   C     C_R   0.145202 0.050811 0.234712 -0.050593
C69   C     C_R   0.997622 0.004702 0.228604 -0.061286
C70   C     C_R   0.987070 0.913122 0.242793 -0.049872
C71   C     C_R   0.754108 0.655799 0.942501 0.034716
C72   C     C_R   0.636152 0.600453 0.961781 -0.052207
C73   C     C_R   0.481142 0.637579 0.971032 -0.060640
C74   C     C_R   0.440781 0.729291 0.960032 -0.046499
C75   C     C_R   0.556120 0.784446 0.940192 -0.056211
C76   C     C_R   0.712211 0.748080 0.931465 -0.080124
C77   C     C_3   0.685367 0.857539 0.333729 -0.368403
C78   C     C_R   0.019793 0.425423 0.181538 0.600782
H1    H     H_    0.759882 0.220288 0.628539 0.107940
H2    H     H_    0.787665 0.353705 0.397852 0.053463
H3    H     H_    0.584740 0.378345 0.372368 0.003004
H4    H     H_    0.635438 0.067680 0.637123 0.077948
H5    H     H_    0.815312 0.220297 0.332795 0.155999
H6    H     H_    0.787447 0.330925 0.305622 0.063638
H7    H     H_    0.619138 0.253353 0.305585 0.108753
H8    H     H_    0.542527 0.224654 0.614145 -0.036755
H9    H     H_    0.499458 0.120502 0.682242 0.117632
H10   H     H_    0.404305 0.664458 0.605359 0.032641
H11   H     H_    0.608460 0.629670 0.626349 0.030354
H12   H     H_    0.259176 0.330233 0.300861 0.098488
H13   H     H_    0.402469 0.790724 0.674608 0.137916
H14   H     H_    0.419590 0.675253 0.696735 0.073792
H15   H     H_    0.597563 0.746410 0.697740 0.123110
H16   H     H_    0.716562 0.116065 0.696623 0.136554
H17   H     H_    0.214154 0.156972 0.722419 0.122153
H18   H     H_    0.294852 0.761261 0.338764 0.115700
H19   H     H_    0.130104 0.679451 0.339355 0.060529
H20   H     H_    0.987419 0.742354 0.269913 0.108032
H21   H     H_    0.807904 0.722428 0.333389 0.001804
H22   H     H_    0.684513 0.753094 0.386176 0.009428
H23   H     H_    0.322403 0.210421 0.295715 0.093604
H24   H     H_    0.797582 0.892453 0.348601 0.121125
H25   H     H_    0.579864 0.893396 0.351575 0.120762
H26   H     H_    0.100658 0.322488 0.661721 0.074914
H27   H     H_    0.673451 0.864085 0.292884 0.127811
H28   H     H_    0.144992 0.472982 0.285853 0.140227
H29   H     H_    0.192575 0.290988 0.130494 0.112877
H30   H     H_    0.556322 0.482015 0.757851 0.115148
H31   H     H_    0.447423 0.315625 0.895093 0.121714
H32   H     H_    0.377794 0.311990 0.979745 0.068695
H33   H     H_    0.263664 0.288454 0.045575 0.067343
H34   H     H_    0.107432 0.240601 0.295002 0.143788
H35   H     H_    0.639081 0.528106 0.241767 0.125900
H36   H     H_    0.817327 0.710656 0.110908 0.123786
H37   H     H_    0.284996 0.252460 0.652772 -0.016894
H38   H     H_    0.904440 0.664081 0.858462 0.118940
H39   H     H_    0.046030 0.525097 0.712668 0.145372
H40   H     H_    0.882088 0.708831 0.024900 0.082260
H41   H     H_    0.843462 0.563978 0.393367 0.063054
H42   H     H_    0.354868 0.441904 0.604882 0.071734
H43   H     H_    0.327268 0.300923 0.522370 0.072279
H44   H     H_    0.237788 0.024598 0.563184 0.065501
H45   H     H_    0.904192 0.725191 0.569876 0.008212
H46   H     H_    0.964080 0.982249 0.437785 0.120702
H47   H     H_    0.860696 0.706763 0.477422 0.056366
H48   H     H_    0.768759 0.108977 0.455056 0.120846
H49   H     H_    0.227888 0.279454 0.741968 0.132455
H50   H     H_    0.427212 0.899941 0.543687 0.084868
H51   H     H_    0.030851 0.227616 0.730930 0.130057
H52   H     H_    0.343125 0.287791 0.385353 0.067998
H53   H     H_    0.378815 0.879684 0.284996 0.088998
H54   H     H_    0.396836 0.041165 0.259892 0.071633
H55   H     H_    0.153707 0.121143 0.222951 0.088300
H56   H     H_    0.107208 0.723862 0.546148 0.058216
H57   H     H_    0.891880 0.039453 0.212211 0.071528
H58   H     H_    0.873290 0.877464 0.236128 0.081058
H59   H     H_    0.664500 0.528747 0.969899 0.070087
H60   H     H_    0.392500 0.595307 0.986886 0.075702
H61   H     H_    0.320243 0.757626 0.966973 0.068541
H62   H     H_    0.524777 0.855575 0.931748 0.069564
H63   H     H_    0.800695 0.792045 0.916563 0.067333
H64   H     H_    0.963777 0.870344 0.621659 0.137329
H65   H     H_    0.000886 0.886981 0.557397 0.061601
H66   H     H_    0.169738 0.867246 0.600710 0.111081
I1    I     I_    0.258383 0.681105 0.226943 -0.448377
I2    I     I_    0.237101 0.114011 0.386889 -0.516989
N1    N     N_R   0.932674 0.500391 0.203060 -0.418191
N2    N     N_R   0.258722 0.499625 0.796528 -0.422231
O1    O     O_2   0.918080 0.549800 0.616640 -0.469593
O2    O     O_2   0.271398 0.835278 0.445206 -0.472223
O3    O     O_3   0.081000 0.816785 0.363404 -0.643254
O4    O     O_3   0.150070 0.549720 0.556460 -0.491496
O5    O     O_3   0.546340 0.387390 0.478340 -0.488445
O6    O     O_2   0.398940 0.728800 0.517420 -0.476887
O7    O     O_3   0.587063 0.759874 0.599174 -0.648622
O8    O     O_2   0.368322 0.569898 0.324973 -0.482442
O9    O     O_3   0.561167 0.709225 0.319330 -0.577104
O10   O     O_2   0.059334 0.359250 0.206202 -0.624168
O11   O     O_2   0.418627 0.372141 0.809807 -0.599246
O12   O     O_3   0.615445 0.253149 0.403887 -0.635329
O13   O     O_2   0.812574 0.641978 0.193610 -0.584776
O14   O     O_2   0.094358 0.627584 0.790937 -0.602632
O15   O     O_3   0.658250 0.379560 0.591530 -0.493277
O16   O     O_2   0.827717 0.422653 0.675471 -0.499531
O17   O     O_3   0.087667 0.698830 0.620728 -0.627452
O18   O     O_3   0.619132 0.290867 0.681569 -0.591535
O19   O     O_2   0.790750 0.271170 0.482550 -0.445289
O20   O     O_3   0.062300 0.331660 0.568480 -0.482222
O21   O     O_2   0.926849 0.166906 0.545534 -0.489833
O22   O     O_3   0.066998 0.185548 0.634547 -0.609636
O23   O     O_2   0.271610 0.450170 0.383330 -0.498638
O24   O     O_3   0.039630 0.450200 0.443530 -0.452806
O25   O     O_3   0.531440 0.620360 0.408460 -0.469275
O26   O     O_3   0.093417 0.299450 0.388367 -0.618167
O27   O     O_3   0.643350 0.612530 0.521650 -0.473243
O28   O     O_3   0.127390 0.668260 0.431510 -0.492674
P1    P     P_3+3 0.090020 0.577590 0.608380 0.996375
P2    P     P_3+3 0.614340 0.285150 0.467650 0.997984
P3    P     P_3+3 0.079413 0.210894 0.572112 0.961384
P4    P     P_3+3 0.099670 0.422330 0.391610 0.990200
P5    P     P_3+3 0.109548 0.789861 0.426088 0.948357
P6    P     P_3+3 0.653137 0.398011 0.656312 0.971985
P7    P     P_3+3 0.582681 0.729158 0.535189 0.938128
P8    P     P_3+3 0.539582 0.600603 0.343991 0.984066

loop_
_geom_bond_atom_site_label_1
_geom_bond_atom_site_label_2
_ccdc_geom_bond_type
C41   C71   S    
O17   P1    S    
C53   C54   A    
C26   N2    Am   
Ba2   O5    S    
C8    N1    S    
C31   P1    S    
C71   C72   A    
C60   H50   S    
C5    P8    S    
C52   O17   S    
C14   H41   S    
C40   H23   S    
O24   P4    S    
C45   H19   S    
C63   H6    S    
C69   H57   S    
C4    O22   S    
C75   C76   A    
C50   C51   A    
C7    H28   S    
O26   P4    S    
C2    N1    Am   
C24   C25   A    
C45   H18   S    
O9    P8    S    
C44   H48   S    
C17   C19   A    
O7    P7    S    
Ba1   Ba2   S    
C35   C38   A    
C73   H60   S    
Ba2   O23   S    
C36   C37   A    
Ba1   P2    S    
C78   O10   D    
C52   C61   S    
C57   H47   S    
C47   H43   S    
C53   C60   A    
Ba1   O20   S    
O27   P7    S    
C77   H25   S    
C32   C33   S    
Ba2   P4    S    
Ba1   O5    S    
C75   H62   S    
C11   C38   A    
C11   H29   S    
C17   C35   A    
C27   N2    Am   
C22   C27   A    
C9    C13   A    
C34   H13   S    
C56   C64   S    
C64   C70   A    
O3    P5    S    
C6    C7    D    
O18   P6    S    
C21   C22   A    
C4    H37   S    
O21   P3    D    
C59   H46   S    
C33   N2    S    
Ba1   O15   S    
C7    C8    S    
O19   P2    D    
C55   P7    S    
O28   P5    S    
C16   H17   S    
C37   C43   A    
C74   H61   S    
C58   P5    S    
C70   H58   S    
C64   C65   A    
C57   C58   A    
C6    C14   D    
O4    P1    S    
C3    H35   S    
C49   H44   S    
C16   H51   S    
C78   N1    Am   
C15   C31   D    
C25   C42   A    
O8    P8    D    
C28   O26   S    
C19   C24   A    
C40   H34   S    
C63   H7    S    
C46   C51   A    
C4    C16   S    
C52   H45   S    
Ba1   O24   S    
C23   H11   S    
C72   C73   A    
C49   C50   A    
C27   O11   D    
C17   C20   A    
C56   H20   S    
C74   C75   A    
C13   C39   A    
C62   O12   S    
C3    C5    S    
C18   C37   A    
C56   I1    S    
C45   O3    S    
C67   H22   S    
C65   C66   A    
C58   C59   A    
C9    C36   A    
C73   C74   A    
C62   H3    S    
C35   C36   A    
Ba2   O25   S    
C23   H10   S    
O1    P1    D    
C38   H33   S    
C42   H38   S    
C71   C76   A    
C52   H56   S    
C48   C49   A    
C4    H26   S    
C2    O13   D    
C77   H27   S    
C10   C11   A    
O2    P5    D    
C28   I2    S    
O16   P6    D    
C62   H2    S    
C1    H16   S    
C1    C12   S    
C43   H40   S    
C66   C68   A    
C46   C47   A    
Ba2   O27   S    
O23   P4    D    
C20   H32   S    
C53   C55   A    
C41   C42   A    
C23   O7    S    
C68   H55   S    
C29   C33   D    
C77   H24   S    
C67   C77   S    
C48   P3    S    
C61   H64   S    
C39   H36   S    
C12   O18   S    
C46   P2    S    
C18   C41   A    
O5    P2    S    
C26   O14   D    
C6    P4    S    
C32   H39   S    
C5    C14   S    
Ba2   O6    S    
C61   H66   S    
C65   H53   S    
C54   C59   A    
O15   P6    S    
O12   P2    S    
C30   P6    S    
C29   C30   S    
O6    P7    D    
C22   C24   A    
C9    C10   A    
C63   H5    S    
C67   H21   S    
C21   H31   S    
C72   H59   S    
C1    H9    S    
C62   C63   S    
C2    C13   A    
C66   H54   S    
C12   H8    S    
C3    C8    D    
O20   P3    S    
C50   C60   A    
C76   H63   S    
Ba2   O24   S    
C45   C56   S    
Ba1   P1    S    
C34   H15   S    
C28   H52   S    
C10   C78   A    
C44   C51   A    
Ba1   O19   S    
C67   O9    S    
C29   H30   S    
C31   C32   D    
Ba1   O1    S    
C40   H12   S    
Ba1   O4    S    
C68   C69   A    
C55   C57   A    
C1    H4    S    
C23   C34   S    
C34   H14   S    
C15   H42   S    
C69   C70   A    
C18   C19   A    
Ba2   O4    S    
C47   C48   A    
C44   C54   A    
C25   C26   A    
C15   C30   S    
C39   C43   A    
C20   C21   A    
C28   C40   S    
C16   H49   S    
Ba2   O28   S    
C12   H1    S    
O22   P3    S    
Ba1   O27   S    
C61   H65   S    
O25   P8    S    
