data_mof_unit_3363.cif
_audit_creation_date              2012-12-11T15:32:42-0500
_audit_creation_method            fapswitch 2.2
_symmetry_space_group_name_H-M    P1
_symmetry_Int_Tables_number       1
_space_group_crystal_system       triclinic
_cell_length_a                    6.93908
_cell_length_b                    20.391871
_cell_length_c                    24.471704
_cell_angle_alpha                 89.538145
_cell_angle_beta                  90.72454
_cell_angle_gamma                 89.678673
_cell_volume                      3462.32047038

loop_
_atom_site_label
_atom_site_type_symbol
_atom_type_description
_atom_site_fract_x
_atom_site_fract_y
_atom_site_fract_z
_atom_type_partial_charge
O1    O     O_R   0.507320 0.423560 0.460500 -0.535711
O2    O     O_R   0.170760 0.556250 0.437010 -0.536704
O3    O     O_R   0.004030 0.576440 0.539500 -0.536444
C1    C     C_R   0.338559 0.576637 0.421221 0.723186
O4    O     O_R   0.177370 0.422820 0.454110 -0.538636
O5    O     O_R   0.010680 0.442050 0.556720 -0.535100
C2    C     C_R   0.346107 0.399232 0.442947 0.694018
O6    O     O_R   0.500680 0.557950 0.443280 -0.535675
O7    O     O_3   0.340380 0.506470 0.533650 -0.366608
V1    V     V_3+5 0.064130 0.498800 0.493760 1.425536
O8    O     O_R   0.681160 0.443750 0.562990 -0.538431
C3    C     C_R   0.851088 0.423735 0.578948 0.725950
O9    O     O_R   0.674560 0.577180 0.545890 -0.537725
C4    C     C_R   0.843199 0.601407 0.556195 0.695776
V2    V     V_3+5 0.564560 0.501200 0.506240 1.423677
O10   O     O_3   0.838180 0.493530 0.466350 -0.366531
C5    C     C_R   0.970696 0.838198 0.910705 -0.126560
C6    C     C_R   0.849623 0.662501 0.587867 -0.044090
C7    C     C_R   0.967355 0.719576 0.906453 -0.201787
C8    C     C_R   0.964879 0.776715 0.937451 0.034031
C9    C     C_R   0.970825 0.841441 0.852571 0.192722
C10   C     C_R   0.945906 0.782777 0.821137 0.047476
C11   C     C_R   0.960153 0.721984 0.849380 0.070504
C12   C     C_R   0.907590 0.781455 0.763080 0.068567
C13   C     C_R   0.918441 0.720650 0.733922 0.049621
C14   C     C_R   0.952291 0.662545 0.764187 -0.185485
C15   C     C_R   0.966039 0.663200 0.820715 -0.178006
C16   C     C_R   0.842168 0.837547 0.734094 -0.160668
C17   C     C_R   0.806904 0.836256 0.678170 -0.228912
C18   C     C_R   0.828283 0.778484 0.648775 0.141810
C19   C     C_R   0.884222 0.719498 0.675907 0.085926
C20   C     C_R   0.785681 0.778930 0.592548 -0.157441
C21   C     C_R   0.793991 0.721307 0.562576 -0.166556
C22   C     C_R   0.897493 0.661617 0.643854 -0.215570
H1    H     H_    0.982069 0.616814 0.842334 0.119199
H2    H     H_    0.940965 0.614951 0.661035 0.093989
H3    H     H_    0.755420 0.722459 0.519531 0.109828
H4    H     H_    0.756893 0.880797 0.657918 0.125743
H5    H     H_    0.970642 0.672415 0.927323 0.121560
H6    H     H_    0.958849 0.614884 0.745702 0.119007
H7    H     H_    0.804584 0.882532 0.754158 0.171078
H8    H     H_    0.741362 0.823860 0.571893 0.114847
C23   C     C_3   0.783832 0.296426 0.762870 0.132511
C24   C     C_3   0.970554 0.282039 0.796097 -0.180090
H9    H     H_    0.016623 0.307721 0.833840 0.121432
H10   H     H_    0.226148 0.301676 0.734139 0.115861
C25   C     C_1   0.959886 0.122040 0.875654 -0.190554
C26   C     C_1   0.864426 0.378492 0.624919 -0.196645
C27   C     C_3   0.739663 0.222332 0.759306 -0.176628
C28   C     C_3   0.927586 0.208030 0.791826 0.115727
C29   C     C_3   0.853780 0.218997 0.705091 -0.178699
C30   C     C_3   0.896601 0.293079 0.709329 0.115655
C31   C     C_3   0.040439 0.204627 0.738344 0.134685
C32   C     C_3   0.084659 0.278722 0.741875 -0.175313
C33   C     C_1   0.945835 0.160680 0.837825 -0.069552
C34   C     C_1   0.878341 0.340214 0.663075 -0.069087
H11   H     H_    0.807743 0.193211 0.667397 0.120373
H12   H     H_    0.598251 0.199333 0.767101 0.116213
C35   C     C_3   0.530832 0.725867 0.214470 -0.181077
C36   C     C_3   0.335926 0.697381 0.232314 0.307468
H13   H     H_    0.630735 0.703054 0.185085 0.128833
H14   H     H_    0.093168 0.774892 0.206617 0.116948
C37   C     C_1   0.347307 0.622905 0.375801 -0.188887
C38   C     C_1   0.474753 0.879011 0.125475 -0.189807
C39   C     C_3   0.579941 0.739590 0.275612 -0.216168
C40   C     C_3   0.384512 0.709720 0.292594 0.047774
C41   C     C_3   0.483536 0.808680 0.270412 -0.132177
C42   C     C_3   0.432607 0.794218 0.209873 0.081779
C43   C     C_3   0.289995 0.777592 0.286610 0.309001
C44   C     C_3   0.235391 0.764808 0.226332 -0.192397
C45   C     C_1   0.361071 0.662017 0.338260 -0.031906
C46   C     C_1   0.458208 0.841095 0.163769 -0.040981
H15   H     H_    0.543671 0.855153 0.286438 0.115777
H16   H     H_    0.721318 0.729285 0.295712 0.137910
C47   C     C_R   0.481843 0.164269 0.087932 -0.174909
C48   C     C_R   0.353982 0.339291 0.409719 -0.040239
C49   C     C_R   0.630722 0.272111 0.098443 0.249388
C50   C     C_R   0.593178 0.216244 0.066993 0.211066
C51   C     C_R   0.402598 0.169608 0.141116 -0.032018
C52   C     C_R   0.458317 0.223801 0.175521 -0.022351
C53   C     C_R   0.549831 0.279198 0.151312 -0.021776
C54   C     C_R   0.429959 0.224430 0.233581 0.080686
C55   C     C_R   0.437198 0.284298 0.263232 0.027137
C56   C     C_R   0.492209 0.341171 0.234972 -0.208221
C57   C     C_R   0.555464 0.339931 0.180594 0.092027
C58   C     C_R   0.416814 0.165716 0.263767 -0.197545
C59   C     C_R   0.381528 0.165256 0.319401 -0.219278
C60   C     C_R   0.367398 0.223756 0.348081 0.148724
C61   C     C_R   0.397914 0.284579 0.320974 0.092338
C62   C     C_R   0.329409 0.221415 0.404264 -0.163981
C63   C     C_R   0.322093 0.278680 0.434702 -0.171662
C64   C     C_R   0.390368 0.342497 0.353279 -0.217838
H17   H     H_    0.408623 0.390839 0.336109 0.089858
H18   H     H_    0.292892 0.275686 0.478042 0.104880
H19   H     H_    0.368751 0.118461 0.340354 0.122643
H20   H     H_    0.498284 0.386665 0.256251 0.120348
H21   H     H_    0.443873 0.119215 0.245228 0.158488
H22   H     H_    0.306347 0.174907 0.424854 0.112357
O11   O     O_R   0.323550 0.942140 0.056770 -0.541546
O12   O     O_R   0.647080 0.077200 0.045890 -0.544760
O13   O     O_R   0.813610 0.057920 0.943260 -0.534513
C65   C     C_R   0.479171 0.101647 0.056637 0.735892
O14   O     O_R   0.653470 0.943760 0.063000 -0.533312
O15   O     O_R   0.820050 0.923540 0.960490 -0.539024
C66   C     C_R   0.485385 0.923762 0.079056 0.712271
O16   O     O_R   0.317110 0.076520 0.039540 -0.545651
O17   O     O_3   0.483830 0.993580 0.966380 -0.363967
V3    V     V_3+5 0.760140 0.001190 0.006240 1.390469
O18   O     O_R   0.149510 0.922740 0.954070 -0.536600
C67   C     C_R   0.980584 0.898815 0.943471 0.711161
O19   O     O_R   0.143120 0.056170 0.936970 -0.536671
C68   C     C_R   0.973241 0.076385 0.921213 0.718318
V4    V     V_3+5 0.259690 0.998700 0.993700 1.385962
O20   O     O_3   0.986130 0.006420 0.033620 -0.370093
C69   C     C_3   0.638372 0.350182 0.776349 -0.366826
C70   C     C_3   0.535492 0.335345 0.830057 -0.308907
C71   C     C_3   0.393497 0.389882 0.843998 -0.779811
H23   H     H_    0.470777 0.436954 0.849610 0.230184
H24   H     H_    0.283668 0.395838 0.810885 0.228876
H25   H     H_    0.319061 0.377315 0.882566 0.212898
H26   H     H_    0.455400 0.288463 0.826603 0.194105
H27   H     H_    0.643264 0.330361 0.863854 0.196150
H28   H     H_    0.715919 0.397568 0.779457 0.174603
H29   H     H_    0.531383 0.354154 0.742356 0.168928
C72   C     C_3   0.185626 0.150478 0.725644 -0.370038
C73   C     C_3   0.292050 0.164701 0.672435 -0.304916
C74   C     C_3   0.433406 0.109570 0.659482 -0.780414
H30   H     H_    0.541256 0.103581 0.693114 0.228711
H31   H     H_    0.355200 0.062679 0.653833 0.230859
H32   H     H_    0.510397 0.121504 0.621198 0.214238
H33   H     H_    0.186473 0.169892 0.638103 0.195337
H34   H     H_    0.373237 0.211330 0.676161 0.194316
H35   H     H_    0.290715 0.146431 0.760118 0.168921
H36   H     H_    0.107333 0.103243 0.722384 0.176996
N1    N     N_2   0.255567 0.636536 0.212653 -0.514096
H37   H     H_    0.332095 0.595795 0.225780 0.257126
C75   C     C_3   0.208407 0.635827 0.154969 -0.566384
H38   H     H_    0.142436 0.588055 0.144309 0.198145
H39   H     H_    0.340420 0.642614 0.130390 0.190986
H40   H     H_    0.103152 0.675368 0.144746 0.204834
N2    N     N_2   0.159370 0.804591 0.326286 -0.511304
H41   H     H_    0.052899 0.772198 0.337317 0.252678
C76   C     C_3   0.085519 0.869297 0.313102 -0.562540
H42   H     H_    0.995933 0.887147 0.347243 0.200563
H43   H     H_    0.994710 0.867808 0.275396 0.189818
H44   H     H_    0.205996 0.904184 0.307246 0.204236
C77   C     C_3   0.621647 0.403913 0.153337 -0.311240
C78   C     C_3   0.577883 0.468693 0.182789 -0.363511
C79   C     C_3   0.639617 0.527571 0.148294 -0.768694
H45   H     H_    0.794293 0.523317 0.137615 0.229003
H46   H     H_    0.551386 0.530829 0.110170 0.226603
H47   H     H_    0.619905 0.573374 0.171777 0.225603
H48   H     H_    0.420943 0.472814 0.190826 0.201427
H49   H     H_    0.659722 0.470544 0.222083 0.198785
H50   H     H_    0.780440 0.401630 0.148837 0.213672
H51   H     H_    0.551342 0.407449 0.112315 0.191074
N3    N     N_2   0.770929 0.317065 0.078874 -0.537532
H52   H     H_    0.755772 0.329767 0.038160 0.283428
C80   C     C_3   0.967458 0.299847 0.093956 -0.560807
H53   H     H_    0.065834 0.339535 0.080765 0.193331
H54   H     H_    0.011275 0.253500 0.073856 0.205048
H55   H     H_    0.982015 0.293875 0.139017 0.205318
N4    N     N_2   0.670471 0.213787 0.013234 -0.524984
H56   H     H_    0.765164 0.175948 0.005903 0.270404
C81   C     C_3   0.533658 0.226559 0.969297 -0.567990
H57   H     H_    0.610903 0.228799 0.929869 0.196191
H58   H     H_    0.459871 0.274369 0.975561 0.198199
H59   H     H_    0.424886 0.186908 0.967007 0.194213
C82   C     C_3   0.229432 0.126888 0.155508 -0.333230
C83   C     C_3   0.278889 0.053865 0.166029 -0.305747
C84   C     C_3   0.147158 0.022833 0.208463 -0.789335
H60   H     H_    0.166091 0.046716 0.248754 0.228520
H61   H     H_    0.994084 0.027558 0.195067 0.231323
H62   H     H_    0.183087 0.969918 0.213107 0.219346
H63   H     H_    0.257637 0.026152 0.127973 0.218902
H64   H     H_    0.431842 0.046903 0.178797 0.170639
H65   H     H_    0.151118 0.147841 0.190639 0.190762
H66   H     H_    0.122309 0.130199 0.121399 0.168084
C85   C     C_3   0.956409 0.769641 0.999034 -0.350012
C86   C     C_3   0.747726 0.758787 0.016647 -0.283325
C87   C     C_3   0.736852 0.741938 0.077257 -0.799293
H67   H     H_    0.812999 0.694915 0.086020 0.222342
H68   H     H_    0.802382 0.781455 0.102215 0.237770
H69   H     H_    0.583443 0.736363 0.088642 0.220662
H70   H     H_    0.661548 0.803955 0.008194 0.197000
H71   H     H_    0.682808 0.717865 0.993091 0.193542
H72   H     H_    0.047813 0.727317 0.012416 0.170198
H73   H     H_    0.015793 0.813249 0.020128 0.164296
N5    N     N_2   0.015068 0.902234 0.826502 -0.546376
H74   H     H_    0.963747 0.943684 0.845427 0.239763
C88   C     C_3   0.213383 0.908237 0.809742 -0.526835
H75   H     H_    0.232075 0.955207 0.787199 0.188286
H76   H     H_    0.253199 0.867427 0.782189 0.209602
H77   H     H_    0.311018 0.907803 0.846099 0.199852

loop_
_geom_bond_atom_site_label_1
_geom_bond_atom_site_label_2
_ccdc_geom_bond_type
C72   H36   S    
C13   C19   A    
C76   H44   S    
C18   C20   A    
C84   H60   S    
N3    H52   S    
C82   C83   S    
C4    C6    S    
O2    C1    A    
C77   C78   S    
O1    V2    S    
C1    O6    A    
C5    C67   S    
C88   H76   S    
C79   H45   S    
C38   C66   S    
C83   H64   S    
C49   C50   A    
C24   H9    S    
O13   C68   A    
C73   H34   S    
C75   H39   S    
C1    C37   S    
C14   C15   A    
C81   H57   S    
C70   H27   S    
C55   C56   A    
C7    H5    S    
C16   C17   A    
N4    C81   S    
C71   H24   S    
O5    C3    A    
C18   C19   A    
C23   C30   S    
C40   C43   S    
C85   H72   S    
C83   C84   S    
C43   N2    S    
V2    O10   S    
C76   H43   S    
C16   H7    S    
C5    C8    A    
C70   C71   S    
H14   C44   S    
C26   C34   T    
C56   H20   S    
V3    O20   S    
N5    C88   S    
C58   H21   S    
O17   V4    S    
C24   C28   S    
C25   C68   S    
C23   C69   S    
O8    V2    S    
O14   C66   A    
O19   C68   A    
C39   C41   S    
C59   H19   S    
C17   H4    S    
C47   C65   S    
O17   V3    S    
C80   H54   S    
O14   V3    S    
C41   H15   S    
C11   C15   A    
C77   H50   S    
O7    V1    S    
C3    C26   S    
O13   V3    S    
C38   C46   T    
C36   C40   S    
C35   C36   S    
N3    C80   S    
C9    C10   A    
C79   H46   S    
N5    H74   S    
C78   H49   S    
C55   C61   A    
C41   C43   S    
C47   C50   A    
C82   H65   S    
C75   H40   S    
C30   C32   S    
C8    C85   S    
C83   H63   S    
C87   H68   S    
O11   C66   A    
C84   H62   S    
O12   V3    S    
C28   C31   S    
C35   H13   S    
C70   H26   S    
O16   V4    S    
C41   C42   S    
C57   C77   S    
N1    H37   S    
C69   H28   S    
C56   C57   A    
C52   C54   A    
C71   H25   S    
O4    C2    A    
C58   C59   A    
C23   C27   S    
C85   H73   S    
C27   C29   S    
C13   C14   A    
C87   H67   S    
C21   H3    S    
C27   H12   S    
C29   C30   S    
C29   C31   S    
C7    C11   A    
C23   C24   S    
C74   H31   S    
C40   C45   S    
O5    V1    S    
C17   C18   A    
C35   C42   S    
C84   H61   S    
C9    N5    S    
C80   H53   S    
C36   C44   S    
C42   C46   S    
H10   C32   S    
O12   C65   A    
C80   H55   S    
O19   V4    S    
C12   C13   A    
C61   C64   A    
C77   H51   S    
C6    C22   A    
C36   N1    S    
O3    C4    A    
C31   C72   S    
C48   C64   A    
C29   H11   S    
C42   C44   S    
C60   C62   A    
C54   C55   A    
C81   H59   S    
O9    V2    S    
C72   C73   S    
C27   C28   S    
C10   C12   A    
C79   H47   S    
C78   H48   S    
C74   H30   S    
O2    V1    S    
C82   H66   S    
O15   V3    S    
C19   C22   A    
C86   C87   S    
C25   C33   T    
V4    O20   S    
C87   H69   S    
C72   H35   S    
C88   H75   S    
N1    C75   S    
C69   H29   S    
O1    C2    A    
C12   C16   A    
C37   C45   T    
C52   C53   A    
O11   V4    S    
O8    C3    A    
C31   C32   S    
C2    C48   S    
O18   V4    S    
C85   C86   S    
O6    V2    S    
C75   H38   S    
C71   H23   S    
C28   C33   S    
C86   H71   S    
C15   H1    S    
C20   C21   A    
C51   C82   S    
C7    C8    A    
N2    C76   S    
O7    V2    S    
C88   H77   S    
O4    V1    S    
O3    V1    S    
C54   C58   A    
N2    H41   S    
C35   C39   S    
C63   H18   S    
O15   C67   A    
C14   H6    S    
C62   C63   A    
C30   C34   S    
C73   H33   S    
C73   C74   S    
C64   H17   S    
C65   O16   A    
C22   H2    S    
C78   C79   S    
C39   C40   S    
C43   C44   S    
C6    C21   A    
C5    C9    A    
C74   H32   S    
N4    H56   S    
C86   H70   S    
C39   H16   S    
C48   C63   A    
C51   C52   A    
C24   C32   S    
C50   N4    S    
C60   C61   A    
C59   C60   A    
C81   H58   S    
C49   C53   A    
O18   C67   A    
C20   H8    S    
C10   C11   A    
V1    O10   S    
C69   C70   S    
O9    C4    A    
C47   C51   A    
C62   H22   S    
C53   C57   A    
C76   H42   S    
C49   N3    S    
