data_mof_unit_3957.cif
_audit_creation_date              2013-03-05T15:53:06-0500
_audit_creation_method            fapswitch 2.2
_symmetry_space_group_name_H-M    P1
_symmetry_Int_Tables_number       1
_space_group_crystal_system       triclinic
_cell_length_a                    9.992766
_cell_length_b                    10.762497
_cell_length_c                    15.577688
_cell_angle_alpha                 95.511239
_cell_angle_beta                  70.277979
_cell_angle_gamma                 91.880024
_cell_volume                      1569.77144945

loop_
_atom_site_label
_atom_site_type_symbol
_atom_site_description
_atom_site_fract_x
_atom_site_fract_y
_atom_site_fract_z
_atom_type_partial_charge
O1    O     O_R   0.385310 0.683220 0.500000 -0.557643
O2    O     O_R   0.614640 0.683250 0.500010 -0.651489
C1    C     C_R   0.503111 0.739355 0.498978 0.926987
O3    O     O_R   0.319840 0.499980 0.632240 -0.542265
O4    O     O_R   0.549160 0.500000 0.632250 -0.660032
C2    C     C_R   0.411584 0.491028 0.673317 0.922890
Zn1   Zn    Zn3+2 0.346880 0.499980 0.499990 1.052088
Zn2   Zn    Zn3+2 0.653120 0.500020 0.500010 0.941084
O5    O     O_R   0.385360 0.316750 0.499990 -0.603496
O6    O     O_R   0.614690 0.316780 0.500000 -0.616778
O7    O     O_R   0.450840 0.500000 0.367750 -0.612449
O8    O     O_R   0.680160 0.500020 0.367760 -0.618923
C3    C     C_R   0.498739 0.260136 0.496393 0.864018
C4    C     C_R   0.589096 0.500779 0.324647 0.845155
C5    C     C_R   0.359741 0.452985 0.766098 -0.152233
C6    C     C_R   0.643718 0.497425 0.223604 -0.103086
C7    C     C_R   0.221414 0.319288 0.880962 -0.248617
C8    C     C_R   0.256320 0.357918 0.792839 0.262287
C9    C     C_R   0.436652 0.494004 0.822577 -0.235881
C10   C     C_R   0.417501 0.439283 0.903531 0.074373
C11   C     C_R   0.298659 0.362083 0.938627 0.046893
C12   C     C_R   0.519935 0.453946 0.946759 -0.000304
C13   C     C_R   0.483375 0.429672 0.038985 -0.076584
C14   C     C_R   0.354694 0.363063 0.079362 0.350715
C15   C     C_R   0.266774 0.322756 0.027194 0.059000
C16   C     C_R   0.663066 0.475406 0.895600 -0.158032
C17   C     C_R   0.768501 0.475480 0.935377 0.158090
C18   C     C_R   0.729067 0.476355 0.031032 0.113211
C19   C     C_R   0.583816 0.463758 0.083703 0.087253
C20   C     C_R   0.830912 0.489848 0.075230 -0.177764
C21   C     C_R   0.790813 0.498077 0.170657 0.129514
C22   C     C_R   0.543563 0.487609 0.178718 -0.139987
H1    H     H_    0.432567 0.498851 0.218672 0.239348
H2    H     H_    0.138329 0.250275 0.901225 0.192798
H3    H     H_    0.517300 0.564942 0.800481 0.162301
H4    H     H_    0.695974 0.476633 0.822008 0.158831
H5    H     H_    0.942919 0.493755 0.036012 0.159766
C23   C     C_R   0.425261 0.844751 0.362374 -0.239980
H6    H     H_    0.455720 0.747598 0.347961 0.165939
C24   C     C_R   0.347343 0.889274 0.312671 0.364119
C25   C     C_R   0.311320 0.016183 0.326342 0.126689
C26   C     C_R   0.367933 0.097406 0.381728 -0.154367
H7    H     H_    0.347469 0.195180 0.383553 0.187880
C27   C     C_R   0.439515 0.051001 0.437098 0.014795
C28   C     C_R   0.459042 0.922125 0.431120 0.018483
C29   C     C_R   0.510405 0.872130 0.494404 -0.094665
C30   C     C_R   0.549274 0.948274 0.561320 0.178769
C31   C     C_R   0.532456 0.077088 0.566739 0.197638
C32   C     C_R   0.488320 0.127621 0.500285 -0.104944
H8    H     H_    0.931428 0.366565 0.386996 0.148969
C33   C     C_R   0.788382 0.638778 0.636542 -0.237138
H9    H     H_    0.689858 0.657387 0.629372 0.234723
C34   C     C_R   0.808066 0.688596 0.715900 -0.350045
H10   H     H_    0.718930 0.732955 0.769838 0.218836
C35   C     C_R   0.942601 0.692579 0.722681 0.251810
C36   C     C_R   0.059778 0.651836 0.644427 0.249397
C37   C     C_R   0.036503 0.572979 0.569489 0.036114
C38   C     C_R   0.893271 0.569996 0.568016 0.156180
N1    N     N_R   0.856800 0.501200 0.500850 -0.117711
C39   C     C_R   0.959460 0.427377 0.437666 -0.057003
H11   H     H_    0.178919 0.364274 0.390336 0.173989
C40   C     C_R   0.101454 0.426521 0.438509 0.007229
N2    N     N_R   0.142390 0.501280 0.500880 -0.111300
C41   C     C_3   0.142459 0.234962 0.064027 -0.797906
H12   H     H_    0.128586 0.206666 0.132858 0.275459
H13   H     H_    0.042070 0.279866 0.067567 0.231962
H14   H     H_    0.158763 0.147083 0.018210 0.253742
C42   C     C_3   0.609219 0.890937 0.625814 -0.820215
H15   H     H_    0.630035 0.955950 0.679182 0.250665
H16   H     H_    0.534553 0.819591 0.662492 0.252359
H17   H     H_    0.714352 0.850717 0.584389 0.248290
N3    N     N_R   0.299491 0.803145 0.252659 0.196429
O9    O     O_R   0.306965 0.831992 0.171961 -0.377496
O10   O     O_R   0.258755 0.691382 0.275674 -0.399705
C43   C     C_3   0.203443 0.063003 0.289071 -0.694576
H18   H     H_    0.106363 0.004147 0.309277 0.224672
H19   H     H_    0.170413 0.159899 0.317172 0.237557
H20   H     H_    0.247011 0.059514 0.213356 0.293718
C44   C     C_3   0.553939 0.158639 0.646635 -0.762087
H21   H     H_    0.516168 0.255061 0.653398 0.226168
H22   H     H_    0.490077 0.121966 0.712452 0.255277
H23   H     H_    0.668325 0.161742 0.639639 0.240377
N4    N     N_R   0.962211 0.763521 0.801123 0.251325
O11   O     O_R   0.870395 0.848550 0.848769 -0.345987
O12   O     O_R   0.063767 0.736319 0.830735 -0.347086
N5    N     N_R   0.173234 0.739342 0.626946 0.242909
O13   O     O_R   0.165387 0.834652 0.583280 -0.362778
O14   O     O_R   0.256674 0.746976 0.675818 -0.360960
C45   C     C_3   0.907743 0.509814 0.212090 -0.720171
H24   H     H_    0.893493 0.596412 0.259112 0.258777
H25   H     H_    0.907540 0.426556 0.248850 0.248268
H26   H     H_    0.014827 0.515053 0.159360 0.247748
C46   C     C_3   0.920448 0.465955 0.873884 -0.788778
H27   H     H_    0.986240 0.539447 0.894379 0.269574
H28   H     H_    0.959904 0.372984 0.878548 0.245438
H29   H     H_    0.931136 0.474208 0.801582 0.260022
N6    N     N_R   0.199633 0.287916 0.729335 0.196852
O15   O     O_R   0.123968 0.342086 0.690293 -0.393905
O16   O     O_R   0.200096 0.166537 0.724441 -0.341730
N7    N     N_R   0.321002 0.322016 0.168576 0.170004
O17   O     O_R   0.408641 0.251008 0.187213 -0.435311
O18   O     O_R   0.204271 0.360458 0.232206 -0.484345

loop_
_geom_bond_atom_site_label_1
_geom_bond_atom_site_label_2
_geom_bond_distance
_ccdc_geom_bond_type
C27   C32   1.424223 A    
C5    C8    1.417874 A    
C35   C36   1.420218 A    
C46   H27   1.104010 S    
C25   C26   1.407385 A    
C9    C10   1.395056 A    
C44   H23   1.110695 S    
N6    O15   1.299565 A    
C34   H10   1.083065 S    
C6    C21   1.422357 A    
C5    C9    1.385332 A    
C16   C17   1.390850 A    
C13   C19   1.423332 A    
C31   C44   1.524331 S    
C18   C19   1.415278 A    
C19   C22   1.396571 A    
Zn2   N1    2.039395 S    
O4    C2    1.310780 A    
O7    C4    1.316763 A    
N5    O14   1.301335 A    
C36   C37   1.455012 A    
C39   C40   1.423732 A    
O5    C3    1.286040 A    
C23   C28   1.417205 A    
C2    C5    1.455795 S    
C30   C31   1.393057 A    
C42   H15   1.104284 S    
C21   C45   1.510456 S    
C13   C14   1.429436 A    
C8    N6    1.440182 S    
C45   H25   1.108375 S    
N1    C39   1.369019 A    
C46   H28   1.105041 S    
C14   N7    1.425585 S    
C7    H2    1.080888 S    
C26   C27   1.423955 A    
O3    Zn1   1.985329 S    
N6    O16   1.301305 A    
C37   N2    1.410403 A    
C34   C35   1.382584 A    
C23   H6    1.079826 S    
C33   H9    1.055136 S    
C41   H14   1.110160 S    
C14   C15   1.417597 A    
N3    O10   1.301267 A    
C44   H22   1.110782 S    
N5    O13   1.302448 A    
C38   N1    1.366239 A    
C28   C29   1.409351 A    
C7    C11   1.407143 A    
C20   H5    1.080785 S    
O1    C1    1.301342 A    
C15   C41   1.520288 S    
C41   H13   1.110090 S    
Zn1   O7    1.969396 S    
C43   H18   1.110546 S    
C40   N2    1.362061 A    
C25   C43   1.505757 S    
C36   N5    1.420323 S    
N4    O11   1.301975 A    
Zn2   O8    1.985326 S    
N7    O18   1.298793 A    
C7    C8    1.398540 A    
C33   C38   1.389272 A    
C45   H26   1.111145 S    
C43   H19   1.107004 S    
Zn1   N2    2.039282 S    
C3    C32   1.432179 S    
O3    C2    1.293357 A    
C24   C25   1.401839 A    
N4    O12   1.299890 A    
C10   C12   1.400103 A    
C46   H29   1.106907 S    
C4    C6    1.478961 S    
C17   C46   1.497759 S    
C26   H7    1.074424 S    
C35   N4    1.444677 S    
C30   C42   1.516069 S    
C27   C28   1.396879 A    
C16   H4    1.081999 S    
Zn1   O5    2.021494 S    
C11   C15   1.410956 A    
C29   C30   1.413272 A    
C31   C32   1.412080 A    
C24   N3    1.438057 S    
O1    Zn1   1.996753 S    
Zn2   O6    1.996752 S    
O2    Zn2   2.021495 S    
O8    C4    1.301217 A    
N3    O9    1.300891 A    
O6    C3    1.307040 A    
O4    Zn2   1.969396 S    
C6    C22   1.397457 A    
C1    C29   1.435832 S    
H8    C39   1.080656 S    
C22   H1    1.077344 S    
C18   C20   1.405309 A    
O2    C1    1.290368 A    
C9    H3    1.083384 S    
C41   H12   1.105099 S    
C23   C24   1.392105 A    
C37   C38   1.438454 A    
C20   C21   1.397562 A    
C42   H17   1.107306 S    
N7    O17   1.301315 A    
H11   C40   1.075437 S    
C43   H20   1.108195 S    
C44   H21   1.099237 S    
C10   C11   1.408492 A    
C42   H16   1.109820 S    
C12   C16   1.406602 A    
C17   C18   1.406045 A    
C12   C13   1.406170 A    
C33   C34   1.372691 A    
C45   H24   1.110243 S    
