data_mof_unit_2971.cif
_audit_creation_date              2012-10-26T20:32:53-0400
_audit_creation_method            fapswitch 2.2
_symmetry_space_group_name_H-M    P1
_symmetry_Int_Tables_number       1
_space_group_crystal_system       triclinic
_cell_length_a                    27.785257
_cell_length_b                    10.827978
_cell_length_c                    9.563705
_cell_angle_alpha                 90.689961
_cell_angle_beta                  90.665495
_cell_angle_gamma                 90.677196
_cell_volume                      2876.71012832

loop_
_atom_site_label
_atom_site_type_symbol
_atom_type_description
_atom_site_fract_x
_atom_site_fract_y
_atom_site_fract_z
_atom_type_partial_charge
C1    C     C_R   0.498709 0.262461 0.499171 0.574007
C2    C     C_R   0.973831 0.376618 0.483539 0.060982
C3    C     C_R   0.975569 0.597384 0.554438 0.021346
C4    C     C_R   0.407568 0.496831 0.499139 0.588753
C5    C     C_R   0.949467 0.487845 0.517900 -0.050591
C6    C     C_R   0.945768 0.265336 0.471305 0.231363
C7    C     C_R   0.895388 0.271462 0.462363 -0.093944
C8    C     C_R   0.871594 0.382575 0.483810 0.003939
C9    C     C_R   0.898398 0.489221 0.519843 -0.055608
C10   C     C_R   0.873975 0.597120 0.559424 -0.019692
C11   C     C_R   0.823472 0.598508 0.553426 0.402691
C12   C     C_R   0.277101 0.430672 0.589277 -0.052258
C13   C     C_R   0.821094 0.387753 0.478723 0.407108
C14   C     C_R   0.721645 0.494024 0.380432 -0.055947
C15   C     C_R   0.671428 0.495158 0.377570 -0.143866
C16   C     C_R   0.499049 0.737789 0.500385 0.545524
C17   C     C_R   0.670930 0.502793 0.631208 -0.144636
C18   C     C_R   0.721084 0.502132 0.633735 -0.055642
C19   C     C_R   0.746600 0.497661 0.508492 0.242322
C20   C     C_R   0.025022 0.380740 0.469458 0.040704
C21   C     C_R   0.050597 0.493620 0.495642 -0.021091
C22   C     C_R   0.025735 0.603908 0.527668 0.036769
C23   C     C_R   0.253558 0.500767 0.487817 0.205751
C24   C     C_R   0.051671 0.278910 0.419383 -0.088459
C25   C     C_R   0.101881 0.718932 0.518438 -0.108054
C26   C     C_R   0.950170 0.694868 0.621858 0.286626
C27   C     C_R   0.900204 0.697982 0.613248 -0.042083
C28   C     C_R   0.592545 0.499971 0.500795 0.546687
C29   C     C_R   0.051407 0.718232 0.520518 0.227712
C30   C     C_R   0.488482 0.065650 0.622208 0.035695
C31   C     C_R   0.493104 0.129510 0.497313 0.027224
C32   C     C_R   0.490641 0.062835 0.370462 -0.147201
C33   C     C_R   0.491003 0.934042 0.371466 -0.149748
C34   C     C_R   0.101581 0.497180 0.485302 -0.039626
C35   C     C_R   0.493880 0.871016 0.499310 0.009506
C36   C     C_R   0.488891 0.938560 0.623459 0.033374
C37   C     C_3   0.517816 0.937507 0.756034 -0.278125
C38   C     C_3   0.516959 0.077407 0.754846 -0.266355
C39   C     C_R   0.540256 0.534422 0.075553 0.124763
C40   C     C_R   0.177538 0.393088 0.451520 0.409696
C41   C     C_R   0.462608 0.449028 0.070453 0.325498
C42   C     C_R   0.462307 0.452885 0.922598 0.055634
C43   C     C_R   0.540511 0.532895 0.928473 0.134963
C44   C     C_3   0.566888 0.653277 0.925281 -0.271240
C45   C     C_R   0.127044 0.389377 0.452613 0.034246
C46   C     C_3   0.566212 0.655284 0.084081 -0.267759
C47   C     C_R   0.177773 0.608643 0.504971 0.410810
C48   C     C_R   0.280472 0.566530 0.390386 -0.047582
C49   C     C_R   0.330548 0.563048 0.394846 -0.138942
C50   C     C_R   0.327472 0.423620 0.593181 0.028202
C51   C     C_2   0.349941 0.336557 0.692512 0.577577
C52   C     C_R   0.101617 0.281677 0.416599 -0.116902
C53   C     C_R   0.127190 0.608904 0.505355 -0.004177
C54   C     C_R   0.354598 0.493111 0.496228 -0.006908
C55   C     C_R   0.645587 0.499504 0.503072 0.004457
Cu1   Cu    Cu3+1 0.500000 0.499980 0.640670 0.962874
Cu2   Cu    Cu3+1 0.500000 0.500020 0.359330 0.968070
H1    H     H_    0.262533 0.620062 0.310790 0.156090
H2    H     H_    0.554503 0.900045 0.740780 0.136449
H3    H     H_    0.495574 0.117990 0.841153 0.144273
H4    H     H_    0.553044 0.120454 0.739785 0.147031
H5    H     H_    0.431791 0.415052 0.865125 0.178309
H6    H     H_    0.603622 0.644293 0.881981 0.126438
H7    H     H_    0.544811 0.726114 0.878137 0.145816
H8    H     H_    0.602596 0.647084 0.132278 0.130861
H9    H     H_    0.543791 0.730268 0.128220 0.146124
H10   H     H_    0.120189 0.199575 0.381927 0.171283
H11   H     H_    0.652919 0.492070 0.277314 0.124822
H12   H     H_    0.121206 0.806451 0.521230 0.161292
H13   H     H_    0.741213 0.490371 0.283241 0.131581
H14   H     H_    0.874636 0.187085 0.445800 0.162014
H15   H     H_    0.035304 0.196852 0.375022 0.199400
H16   H     H_    0.350639 0.616258 0.319530 0.153939
H17   H     H_    0.401508 0.210834 0.728786 0.335778
H18   H     H_    0.001867 0.744659 0.748239 0.338770
H19   H     H_    0.049927 0.897439 0.498153 0.337502
H20   H     H_    0.437679 0.342315 0.210009 0.362668
H21   H     H_    0.942297 0.084486 0.473486 0.350061
H22   H     H_    0.652086 0.505456 0.729588 0.123555
H23   H     H_    0.881901 0.776654 0.658085 0.190415
H24   H     H_    0.740197 0.504239 0.733078 0.131345
H25   H     H_    0.491137 0.109459 0.270909 0.135358
H26   H     H_    0.491564 0.884792 0.272297 0.134597
H27   H     H_    0.497090 0.898151 0.844024 0.141082
H28   H     H_    0.255734 0.378138 0.662297 0.169809
N1    N     N_R   0.201880 0.501059 0.481165 -0.394908
N2    N     N_R   0.798187 0.495129 0.511742 -0.392651
N3    N     N_R   0.500300 0.500930 0.147930 -0.243738
N4    N     N_R   0.500310 0.500890 0.852020 -0.274219
O1    O     O_R   0.500000 0.319640 0.618810 -0.488422
O2    O     O_R   0.569730 0.499960 0.618810 -0.505454
O3    O     O_R   0.569740 0.500000 0.381220 -0.504942
O4    O     O_2   0.202145 0.289716 0.420676 -0.473092
O5    O     O_2   0.332412 0.321426 0.807880 -0.492630
O6    O     O_R   0.389891 0.267839 0.652471 -0.686564
O7    O     O_3   0.972070 0.781180 0.709595 -0.633592
O8    O     O_3   0.026734 0.827391 0.503864 -0.636644
O9    O     O_3   0.424427 0.390495 0.131977 -0.672158
O10   O     O_3   0.967055 0.151039 0.481267 -0.698411
O11   O     O_2   0.795053 0.286004 0.442768 -0.487867
O12   O     O_2   0.202622 0.714604 0.530007 -0.479108
O13   O     O_2   0.799814 0.702290 0.588618 -0.490289
O14   O     O_R   0.500010 0.319680 0.381230 -0.533931
O15   O     O_R   0.430260 0.500000 0.618780 -0.487519
O16   O     O_R   0.430270 0.500040 0.381190 -0.477819
O17   O     O_R   0.499990 0.680320 0.618770 -0.499826
O18   O     O_R   0.500000 0.680360 0.381190 -0.511317

loop_
_geom_bond_atom_site_label_1
_geom_bond_atom_site_label_2
_ccdc_geom_bond_type
C10   C27   A    
C24   C52   A    
Cu2   O16   S    
C8    C13   A    
C47   O12   S    
Cu2   O3    S    
C41   C42   A    
C35   C36   A    
C1    C31   S    
C40   O4    S    
C7    C8    A    
C44   H7    S    
C12   C23   A    
C26   C27   A    
C50   C54   A    
C12   H28   S    
C36   C37   S    
C22   C29   A    
C25   C53   A    
C46   H9    S    
C19   N2    S    
C16   C35   S    
C7    H14   S    
C30   C31   A    
C49   C54   A    
C17   H22   S    
C18   H24   S    
Cu1   Cu2   S    
C30   C38   S    
C18   C19   A    
C40   N1    A    
C16   O18   A    
Cu1   O2    S    
C20   C24   A    
C11   N2    A    
C8    C9    A    
C23   N1    S    
C37   H27   S    
C28   O2    A    
C9    C10   A    
C42   H5    S    
C16   O17   A    
C47   C53   A    
C38   H4    S    
Cu1   O1    S    
C21   C22   A    
C25   C29   A    
C14   H13   S    
C2    C6    A    
C39   N3    A    
H17   O6    S    
C28   C55   S    
C44   C46   S    
H18   O7    S    
C50   C51   S    
C44   H6    S    
C26   O7    S    
C40   C45   A    
Cu2   O14   S    
C2    C20   A    
C47   N1    A    
Cu1   O15   S    
C46   H8    S    
C27   H23   S    
C39   C43   A    
C21   C34   A    
C45   C52   A    
H19   O8    S    
C15   C55   A    
C43   C44   S    
C5    C9    A    
C37   C38   S    
C31   C32   A    
C13   N2    A    
C17   C18   A    
H20   O9    S    
C28   O3    A    
C34   C45   A    
C43   N4    A    
C33   H26   S    
Cu1   O17   S    
C37   H2    S    
C52   H10   S    
C39   C46   S    
C38   H3    S    
C48   C49   A    
Cu2   O18   S    
C49   H16   S    
C2    C5    A    
C25   H12   S    
C1    O1    A    
C24   H15   S    
C41   N3    A    
C1    O14   A    
Cu1   N4    S    
C23   C48   A    
C4    C54   S    
C14   C15   A    
C14   C19   A    
C3    C26   A    
C3    C5    A    
C12   C50   A    
C48   H1    S    
C6    C7    A    
C30   C36   A    
C32   H25   S    
C4    O16   A    
Cu2   N3    S    
C29   O8    S    
C42   N4    A    
C6    O10   S    
C13   O11   S    
C32   C33   A    
C15   H11   S    
C4    O15   A    
C33   C35   A    
C17   C55   A    
C11   O13   S    
C10   C11   A    
C51   O5    D    
C20   C21   A    
C34   C53   A    
H21   O10   S    
C41   O9    S    
C3    C22   A    
C51   O6    S    
