data_mof_unit_4029.cif
_audit_creation_date              2012-12-10T17:13:44-0500
_audit_creation_method            fapswitch 2.2
_symmetry_space_group_name_H-M    P1
_symmetry_Int_Tables_number       1
_space_group_crystal_system       triclinic
_cell_length_a                    27.741906
_cell_length_b                    10.720046
_cell_length_c                    10.013761
_cell_angle_alpha                 89.65413
_cell_angle_beta                  89.125261
_cell_angle_gamma                 90.518336
_cell_volume                      2977.51184148

loop_
_atom_site_label
_atom_site_type_symbol
_atom_type_description
_atom_site_fract_x
_atom_site_fract_y
_atom_site_fract_z
_atom_type_partial_charge
C1    C     C_R   0.500548 0.262601 0.500053 0.916378
C2    C     C_R   0.974377 0.385702 0.486816 0.043290
C3    C     C_R   0.974937 0.616192 0.487917 0.062314
C4    C     C_R   0.406069 0.499237 0.500958 0.892758
C5    C     C_R   0.949472 0.500733 0.484359 0.071240
C6    C     C_R   0.947485 0.273612 0.474396 -0.215697
C7    C     C_R   0.897627 0.274279 0.468382 -0.140017
C8    C     C_R   0.872720 0.386547 0.472925 -0.041269
C9    C     C_R   0.898447 0.500196 0.479171 -0.055177
C10   C     C_R   0.872997 0.613231 0.481130 -0.023862
C11   C     C_R   0.822614 0.610439 0.479368 0.491967
C12   C     C_R   0.278036 0.510691 0.386987 -0.187830
C13   C     C_R   0.822342 0.388013 0.471836 0.571631
C14   C     C_R   0.723739 0.469133 0.605520 0.393188
C15   C     C_R   0.673115 0.463422 0.610886 0.340407
C16   C     C_R   0.498433 0.737248 0.499790 0.935647
C17   C     C_R   0.671265 0.527311 0.376758 -0.295624
C18   C     C_R   0.721182 0.526936 0.370595 -0.180573
C19   C     C_R   0.747317 0.497824 0.484159 0.185318
C20   C     C_R   0.025111 0.386156 0.500570 0.057920
C21   C     C_R   0.050871 0.501473 0.498080 0.069910
C22   C     C_R   0.026100 0.616295 0.488957 0.014863
C23   C     C_R   0.253056 0.495343 0.508262 0.236905
C24   C     C_R   0.051082 0.274633 0.518563 -0.216710
C25   C     C_R   0.103537 0.728760 0.488179 0.242921
C26   C     C_R   0.948046 0.727883 0.491463 -0.217223
C27   C     C_R   0.898135 0.726107 0.487616 -0.145131
C28   C     C_R   0.593991 0.498862 0.499207 0.917651
C29   C     C_R   0.053422 0.727949 0.481523 -0.283371
C30   C     C_2   0.495794 0.933701 0.386881 -0.160758
C31   C     C_2   0.492385 0.868326 0.500267 -0.321755
C32   C     C_2   0.493174 0.067701 0.388926 -0.148366
C33   C     C_2   0.503700 0.130834 0.499520 -0.331163
C34   C     C_R   0.101939 0.501566 0.504349 -0.095996
C35   C     C_2   0.530417 0.563464 0.924265 0.003559
C36   C     C_2   0.523875 0.582429 0.073447 0.271557
C37   C     C_R   0.176845 0.387914 0.520001 0.562355
C38   C     C_R   0.179194 0.609623 0.497925 0.496644
C39   C     C_R   0.277913 0.481698 0.628223 0.527310
C40   C     C_R   0.328232 0.480862 0.624994 -0.320983
C41   C     C_R   0.328039 0.511997 0.384383 -0.206810
C42   C     C_3   0.254339 0.569011 0.824959 0.055829
C43   C     C_3   0.223112 0.548347 0.950348 -0.325528
C44   C     C_3   0.223506 0.662813 0.040243 -0.936241
C45   C     C_R   0.126589 0.387601 0.516839 -0.021569
C46   C     C_3   0.135409 0.897891 0.617868 -0.684043
C47   C     C_3   0.443108 0.357731 0.886339 0.171758
C48   C     C_3   0.399259 0.325406 0.974663 -0.410605
C49   C     C_3   0.382134 0.191609 0.952271 -0.923531
C50   C     C_3   0.562293 0.791739 0.053694 -0.866032
C51   C     C_3   0.655025 0.304852 0.760896 0.131628
C52   C     C_3   0.605766 0.239795 0.758794 -0.338007
C53   C     C_3   0.608674 0.104650 0.806552 -0.980999
C54   C     C_3   0.754696 0.544837 0.797843 0.079950
C55   C     C_3   0.784225 0.511203 0.920259 -0.328165
C56   C     C_R   0.100809 0.275594 0.525866 -0.146038
C57   C     C_3   0.790782 0.623235 0.011757 -0.945402
C58   C     C_R   0.128450 0.614939 0.497638 -0.066669
C59   C     C_R   0.353446 0.497576 0.503456 -0.095356
C60   C     C_R   0.646788 0.496916 0.496518 -0.185322
H1    H     H_    0.346714 0.524617 0.289409 0.176109
H2    H     H_    0.258538 0.521862 0.294904 0.159529
H3    H     H_    0.516026 0.087331 0.590631 0.147895
H4    H     H_    0.561739 0.604378 0.874374 0.127523
H5    H     H_    0.492850 0.416563 0.105733 0.169837
H6    H     H_    0.119012 0.187408 0.538270 0.180036
H7    H     H_    0.878655 0.185882 0.460527 0.188571
H8    H     H_    0.963816 0.183178 0.466680 0.136464
H9    H     H_    0.034102 0.184429 0.530028 0.134765
H10   H     H_    0.347356 0.466582 0.717207 0.174365
H11   H     H_    0.240038 0.650527 0.768735 0.161781
H12   H     H_    0.964130 0.819076 0.500227 0.137483
H13   H     H_    0.291974 0.589498 0.855984 0.144595
H14   H     H_    0.185410 0.527710 0.920853 0.233376
H15   H     H_    0.236818 0.466970 0.007194 0.232078
H16   H     H_    0.260744 0.683442 0.073494 0.269581
H17   H     H_    0.200318 0.644807 0.129818 0.271920
H18   H     H_    0.209333 0.745093 0.986053 0.270675
H19   H     H_    0.113968 0.910130 0.421456 0.214934
H20   H     H_    0.158344 0.983027 0.609109 0.255555
H21   H     H_    0.153880 0.829981 0.683494 0.251468
H22   H     H_    0.100184 0.923351 0.664050 0.202750
H23   H     H_    0.651831 0.552123 0.287572 0.186526
H24   H     H_    0.472994 0.293133 0.911465 0.100766
H25   H     H_    0.433138 0.343358 0.781131 0.194984
H26   H     H_    0.408635 0.336854 0.081445 0.229792
H27   H     H_    0.369383 0.390194 0.951794 0.235275
H28   H     H_    0.371482 0.178780 0.846698 0.270828
H29   H     H_    0.350394 0.171127 0.017931 0.279936
H30   H     H_    0.411196 0.124969 0.976650 0.258954
H31   H     H_    0.568117 0.666477 0.213422 0.258517
H32   H     H_    0.570815 0.872361 0.118559 0.249805
H33   H     H_    0.533763 0.820571 0.983499 0.259050
H34   H     H_    0.879281 0.814156 0.490968 0.190052
H35   H     H_    0.595612 0.766416 0.997670 0.240448
H36   H     H_    0.669757 0.298240 0.863244 0.171279
H37   H     H_    0.680334 0.253941 0.693002 0.154915
H38   H     H_    0.579913 0.290733 0.824040 0.232998
H39   H     H_    0.592177 0.241208 0.655085 0.222254
H40   H     H_    0.633563 0.051229 0.740965 0.277272
H41   H     H_    0.572342 0.060520 0.803301 0.263064
H42   H     H_    0.621581 0.100684 0.910944 0.270530
H43   H     H_    0.718558 0.577218 0.832371 0.167903
H44   H     H_    0.773504 0.622005 0.742475 0.166305
H45   H     H_    0.739714 0.549794 0.277632 0.171526
H46   H     H_    0.765620 0.434899 0.977007 0.230226
H47   H     H_    0.820266 0.477556 0.887369 0.237001
H48   H     H_    0.810499 0.699483 0.958071 0.275197
H49   H     H_    0.811934 0.595308 0.100174 0.268601
H50   H     H_    0.755175 0.657943 0.046672 0.263573
H51   H     H_    0.037104 0.817913 0.469954 0.136461
H52   H     H_    0.500632 0.889089 0.290598 0.196632
H53   H     H_    0.483922 0.909923 0.596118 0.151828
H54   H     H_    0.483440 0.114631 0.296791 0.171659
N1    N     N_R   0.201746 0.497603 0.509562 -0.344097
N2    N     N_R   0.798605 0.498839 0.476807 -0.328781
N3    N     N_2   0.500520 0.501330 0.852150 0.035515
N4    N     N_2   0.500540 0.501360 0.147810 -0.207410
N5    N     N_2   0.128247 0.845822 0.486591 -0.247942
N6    N     N_2   0.545698 0.687880 0.135825 -0.282021
O1    O     O_R   0.499990 0.319060 0.613040 -0.662204
O2    O     O_R   0.571240 0.499960 0.613080 -0.584889
O3    O     O_R   0.571250 0.500000 0.386950 -0.652271
O4    O     O_2   0.200860 0.279476 0.531723 -0.548451
O5    O     O_3   0.252645 0.460229 0.746344 -0.630941
O6    O     O_3   0.456530 0.482991 0.908619 -0.572009
O7    O     O_3   0.649419 0.433018 0.729687 -0.644807
O8    O     O_3   0.750406 0.438442 0.716356 -0.639426
O9    O     O_2   0.797142 0.279858 0.466697 -0.553539
O10   O     O_2   0.206165 0.714531 0.485443 -0.537087
O11   O     O_2   0.797685 0.717999 0.482128 -0.571762
O12   O     O_R   0.500010 0.319100 0.386900 -0.619364
O13   O     O_R   0.428750 0.500000 0.613050 -0.613270
O14   O     O_R   0.428760 0.500040 0.386920 -0.615252
O15   O     O_R   0.499990 0.680900 0.613100 -0.613409
O16   O     O_R   0.500010 0.680940 0.386960 -0.607394
Zn1   Zn    Zn3+2 0.499990 0.499970 0.650990 0.972768
Zn2   Zn    Zn3+2 0.500010 0.500030 0.349010 0.939519

loop_
_geom_bond_atom_site_label_1
_geom_bond_atom_site_label_2
_ccdc_geom_bond_type
C10   C27   A    
C51   H37   S    
C46   H20   S    
O13   Zn1   S    
C8    C13   A    
C39   O5    S    
C22   C29   A    
C26   H12   S    
C15   C60   A    
C35   C36   S    
C41   H1    S    
C49   H30   S    
C1    O12   A    
C28   O3    A    
C1    C33   S    
C7    C8    A    
C16   C31   S    
O3    Zn2   S    
C26   C27   A    
C40   H10   S    
C50   N6    S    
C47   H25   S    
C54   H44   S    
C44   H17   S    
C30   C31   D    
C28   O2    A    
C50   H35   S    
O12   Zn2   S    
C46   H21   S    
C14   O8    S    
C18   C19   A    
O1    Zn1   S    
C44   H16   S    
C42   O5    S    
C46   H22   S    
C57   H49   S    
C20   C24   A    
C45   C56   A    
C53   H41   S    
C8    C9    A    
H19   N5    S    
H5    N4    S    
C56   H6    S    
C35   H4    S    
C36   N4    D    
C9    C10   A    
C51   H36   S    
C43   H14   S    
C6    H8    S    
C40   C59   A    
C38   C58   A    
C21   C22   A    
C25   C29   A    
C49   H28   S    
C2    C6    A    
C25   N5    S    
C24   H9    S    
C28   C60   S    
C53   H40   S    
C43   H15   S    
C55   H46   S    
C2    C20   A    
C51   C52   S    
C47   C48   S    
C54   H43   S    
C41   C59   A    
O16   Zn2   S    
C39   C40   A    
C21   C34   A    
C54   O8    S    
C30   H52   S    
C17   H23   S    
C43   C44   S    
C5    C9    A    
C12   C41   A    
C37   O4    S    
C12   H2    S    
C57   H50   S    
C12   C23   A    
C53   H42   S    
C33   H3    S    
C17   C18   A    
C48   H27   S    
C34   C45   A    
C47   H24   S    
C11   N2    A    
C50   H32   S    
C48   C49   S    
C55   C57   S    
C48   H26   S    
C35   N3    D    
C2    C5    A    
C42   C43   S    
C37   C45   A    
C16   O16   A    
C38   O10   S    
C52   C53   S    
C47   O6    S    
C4    O14   A    
N3    O6    S    
O15   Zn1   S    
C54   C55   S    
C42   H13   S    
H31   N6    S    
C14   C19   A    
C29   H51   S    
C3    C26   A    
N3    Zn1   S    
O2    Zn1   S    
C49   H29   S    
C3    C5    A    
C11   O11   S    
O14   Zn2   S    
C50   H33   S    
C6    C7    A    
C37   N1    A    
C24   C56   A    
C52   H39   S    
C51   O7    S    
C32   C33   D    
C44   H18   S    
C27   H34   S    
C18   H45   S    
C30   C32   S    
C38   N1    A    
C19   N2    S    
C23   C39   A    
C4    C59   S    
C52   H38   S    
C42   H11   S    
C23   N1    S    
C46   N5    S    
C36   N6    S    
C1    O1    A    
C13   N2    A    
C10   C11   A    
C17   C60   A    
C7    H7    S    
C57   H48   S    
C20   C21   A    
C25   C58   A    
C55   H47   S    
C34   C58   A    
C13   O9    S    
C14   C15   A    
C3    C22   A    
C15   O7    S    
C32   H54   S    
N4    Zn2   S    
C16   O15   A    
C31   H53   S    
C4    O13   A    
