data_mof_unit_1377.cif
_audit_creation_date              2012-12-10T18:58:10-0500
_audit_creation_method            fapswitch 2.2
_symmetry_space_group_name_H-M    P1
_symmetry_Int_Tables_number       1
_space_group_crystal_system       triclinic
_cell_length_a                    11.046073
_cell_length_b                    10.831319
_cell_length_c                    9.576622
_cell_angle_alpha                 89.813958
_cell_angle_beta                  102.388288
_cell_angle_gamma                 90.421568
_cell_volume                      1119.0708467

loop_
_atom_site_label
_atom_site_type_symbol
_atom_type_description
_atom_site_fract_x
_atom_site_fract_y
_atom_site_fract_z
_atom_type_partial_charge
C1    C     C_R   0.501387 0.262557 0.500552 0.830319
C2    C     C_R   0.510892 0.129584 0.503652 -0.027091
C3    C     C_R   0.538535 0.065337 0.387319 -0.215012
C4    C     C_R   0.537437 0.936693 0.386860 -0.191874
C5    C     C_R   0.509435 0.871027 0.502871 -0.030450
C6    C     C_R   0.496156 0.936222 0.624271 0.056577
C7    C     C_3   0.397183 0.929350 0.709338 0.181439
C8    C     C_3   0.398549 0.070338 0.709991 0.182976
C9    C     C_R   0.608565 0.508720 0.100079 0.066342
C10   C     C_R   0.393943 0.479900 0.047971 -0.073972
C11   C     C_R   0.393959 0.479870 0.899763 -0.067130
C12   C     C_R   0.262922 0.498389 0.442224 0.890485
C13   C     C_R   0.608523 0.508051 0.952967 0.069423
C14   C     C_3   0.705924 0.607326 0.968367 0.173551
C15   C     C_3   0.704567 0.610200 0.127546 0.179778
C16   C     C_R   0.500809 0.737612 0.500113 0.862320
C17   C     C_R   0.737020 0.498695 0.558028 0.864498
C18   C     C_2   0.128096 0.491272 0.410528 -0.320463
C19   C     C_2   0.067658 0.489617 0.517341 -0.123309
C20   C     C_2   0.871879 0.498121 0.591283 -0.335077
C21   C     C_2   0.933394 0.480055 0.487588 -0.140696
C22   C     C_R   0.496878 0.063435 0.624539 0.016783
Cu1   Cu    Cu3+1 0.499990 0.499980 0.640670 0.983584
Cu2   Cu    Cu3+1 0.500010 0.500020 0.359330 0.968787
H1    H     H_    0.884510 0.459555 0.379262 0.161751
H2    H     H_    0.432458 0.112709 0.817199 0.061947
H3    H     H_    0.307421 0.464766 0.080808 0.141717
H4    H     H_    0.307463 0.464554 0.824404 0.136436
H5    H     H_    0.794581 0.573126 0.946330 0.099553
H6    H     H_    0.793852 0.580938 0.195580 0.099753
H7    H     H_    0.117139 0.497341 0.628100 0.166231
H8    H     H_    0.921159 0.515037 0.700677 0.141716
H9    H     H_    0.078055 0.485734 0.299781 0.133124
H10   H     H_    0.555996 0.113891 0.294479 0.166027
H11   H     H_    0.553632 0.889561 0.293586 0.192612
H12   H     H_    0.429149 0.886734 0.816638 0.048664
N1    N     N_R   0.500780 0.500930 0.148120 -0.170879
N2    N     N_R   0.500790 0.500890 0.852210 -0.173339
O1    O     O_R   0.500000 0.319640 0.618810 -0.572803
O2    O     O_R   0.500010 0.319680 0.381230 -0.594812
O3    O     O_R   0.320680 0.500000 0.575130 -0.583933
O4    O     O_R   0.320690 0.500040 0.337550 -0.597712
O5    O     O_R   0.499990 0.680320 0.618770 -0.553841
O6    O     O_R   0.500000 0.680360 0.381190 -0.574347
O7    O     O_R   0.679310 0.499960 0.662450 -0.577639
O8    O     O_R   0.679320 0.500000 0.424870 -0.573110
O9    O     O_3   0.667278 0.717712 0.894373 -0.668613
H13   H     H_    0.578641 0.731359 0.894314 0.331597
O10   O     O_3   0.662626 0.722028 0.174250 -0.675261
H14   H     H_    0.573829 0.732615 0.128304 0.324705
O11   O     O_3   0.286873 0.878300 0.629462 -0.670401
H15   H     H_    0.228989 0.873737 0.695493 0.325614
O12   O     O_3   0.289087 0.122476 0.630940 -0.668423
H16   H     H_    0.231815 0.127321 0.697559 0.321875

loop_
_geom_bond_atom_site_label_1
_geom_bond_atom_site_label_2
_ccdc_geom_bond_type
C8    O12   S    
C2    C22   A    
C11   N2    A    
C8    C22   S    
Cu1   Cu2   S    
C12   O3    A    
Cu1   O7    S    
Cu1   N2    S    
Cu2   O4    S    
C7    H12   S    
C16   O6    A    
O9    H13   S    
Cu1   O3    S    
C10   H3    S    
C19   H7    S    
C1    O2    A    
C9    N1    A    
C2    C3    A    
C9    C15   S    
C4    H11   S    
C7    O11   S    
C7    C8    S    
O12   H16   S    
C17   O8    A    
C16   O5    A    
C13   N2    A    
C14   O9    S    
C21   H1    S    
C11   H4    S    
C10   N1    A    
Cu1   O1    S    
C19   C21   S    
C17   O7    A    
Cu2   N1    S    
C6    C7    S    
C15   O10   S    
C5    C6    A    
Cu2   O6    S    
C18   H9    S    
C10   C11   A    
C1    O1    A    
C14   H5    S    
C3    C4    A    
C6    C22   A    
C4    C5    A    
C17   C20   S    
C8    H2    S    
C20   C21   D    
C15   H6    S    
C1    C2    S    
C20   H8    S    
C12   C18   S    
O10   H14   S    
C9    C13   A    
C14   C15   S    
C18   C19   D    
C5    C16   S    
C12   O4    A    
C3    H10   S    
Cu2   O2    S    
C13   C14   S    
Cu1   O5    S    
O11   H15   S    
Cu2   O8    S    
