data_mof_unit_4506.cif
_audit_creation_date              2012-12-11T17:36:24-0500
_audit_creation_method            fapswitch 2.2
_symmetry_space_group_name_H-M    P1
_symmetry_Int_Tables_number       1
_space_group_crystal_system       triclinic
_cell_length_a                    25.971853
_cell_length_b                    6.899849
_cell_length_c                    21.649532
_cell_angle_alpha                 90.00127
_cell_angle_beta                  95.835301
_cell_angle_gamma                 90.000222
_cell_volume                      3859.5332091

loop_
_atom_site_label
_atom_site_type_symbol
_atom_type_description
_atom_site_fract_x
_atom_site_fract_y
_atom_site_fract_z
_atom_type_partial_charge
O1    O     O_R   0.208650 0.594520 0.175450 -0.538017
O2    O     O_R   0.791350 0.405480 0.824550 -0.533348
O3    O     O_R   0.291350 0.094520 0.324550 -0.538007
O4    O     O_R   0.708650 0.905480 0.675450 -0.533344
O5    O     O_R   0.192980 0.260780 0.300160 -0.539859
O6    O     O_R   0.807020 0.739220 0.699840 -0.541998
O7    O     O_R   0.307020 0.760780 0.199840 -0.539860
O8    O     O_R   0.692980 0.239220 0.800160 -0.542001
C1    C     C_R   0.178745 0.432926 0.318362 0.674873
C2    C     C_R   0.821252 0.567091 0.681634 0.675817
C3    C     C_R   0.321255 0.932924 0.181639 0.674871
C4    C     C_R   0.678748 0.067092 0.818366 0.675814
O9    O     O_R   0.202550 0.264660 0.174420 -0.531336
O10   O     O_R   0.797450 0.735340 0.825580 -0.536824
O11   O     O_R   0.297450 0.764660 0.325580 -0.531341
O12   O     O_R   0.702550 0.235340 0.674420 -0.536829
O13   O     O_R   0.300990 0.096480 0.197920 -0.541431
O14   O     O_R   0.699010 0.903520 0.802080 -0.538785
O15   O     O_R   0.199010 0.596480 0.302080 -0.541435
O16   O     O_R   0.800990 0.403520 0.697920 -0.538788
C5    C     C_R   0.190815 0.433484 0.151376 0.680893
C6    C     C_R   0.809030 0.566102 0.848677 0.682651
C7    C     C_R   0.309184 0.933489 0.348624 0.680898
C8    C     C_R   0.690970 0.066097 0.651323 0.682646
O17   O     O_3   0.282290 0.427760 0.257860 -0.362600
O18   O     O_3   0.717710 0.572240 0.742140 -0.363058
O19   O     O_3   0.217710 0.927760 0.242140 -0.362608
O20   O     O_3   0.782290 0.072240 0.757860 -0.363058
V1    V     V_3+5 0.244010 0.152080 0.248540 1.434388
V2    V     V_3+5 0.755990 0.847920 0.751460 1.427943
V3    V     V_3+5 0.255990 0.652080 0.251460 1.434371
V4    V     V_3+5 0.744010 0.347920 0.748540 1.427929
C9    C     C_R   0.656400 0.053689 0.592873 -0.110851
C10   C     C_R   0.343920 0.938544 0.407166 -0.111413
C11   C     C_R   0.843602 0.553712 0.907126 -0.110860
C12   C     C_R   0.156079 0.438520 0.092833 -0.111419
C13   C     C_R   0.648844 0.002077 0.481853 -0.152062
C14   C     C_R   0.355928 0.856287 0.516292 -0.147234
C15   C     C_R   0.851159 0.502266 0.018153 -0.152063
C16   C     C_R   0.144060 0.356078 0.983720 -0.147225
C17   C     C_R   0.679027 0.014083 0.538463 -0.161698
C18   C     C_R   0.325286 0.859189 0.459906 -0.152582
C19   C     C_R   0.820974 0.514215 0.961542 -0.161712
C20   C     C_R   0.174704 0.359038 0.040104 -0.152544
C21   C     C_R   0.601916 0.077824 0.590677 -0.078358
C22   C     C_R   0.395184 0.012900 0.410818 -0.076872
C23   C     C_R   0.898087 0.577787 0.909316 -0.078345
C24   C     C_R   0.104821 0.512947 0.089173 -0.076888
C25   C     C_R   0.569968 0.034609 0.534087 0.082536
C26   C     C_R   0.429627 0.980878 0.466304 0.085008
C27   C     C_R   0.930033 0.534634 0.965912 0.082528
C28   C     C_R   0.070373 0.480869 0.033695 0.085017
C29   C     C_R   0.594807 0.011593 0.479089 0.112914
C30   C     C_R   0.407699 0.915392 0.520024 0.110641
C31   C     C_R   0.905196 0.511736 0.020914 0.112911
C32   C     C_R   0.092294 0.415252 0.979983 0.110643
C33   C     C_R   0.514932 0.004144 0.529815 0.065534
C34   C     C_R   0.485012 0.001127 0.470394 0.070214
C35   C     C_R   0.985068 0.504119 0.970186 0.065524
C36   C     C_R   0.014990 0.501176 0.029606 0.070224
C37   C     C_R   0.511931 0.988674 0.417234 -0.092384
C38   C     C_R   0.490277 0.947608 0.581958 -0.088246
C39   C     C_R   0.988071 0.488847 0.082770 -0.092393
C40   C     C_R   0.009716 0.447460 0.918050 -0.088252
C41   C     C_R   0.565633 0.990436 0.421697 -0.193153
C42   C     C_R   0.438029 0.901122 0.576868 -0.181221
C43   C     C_R   0.934370 0.490651 0.078310 -0.193168
C44   C     C_R   0.061960 0.400915 0.923143 -0.181209
H1    H     H_    0.584573 0.971523 0.379724 0.126508
H2    H     H_    0.421380 0.849789 0.617800 0.130613
H3    H     H_    0.915431 0.471829 0.120287 0.126503
H4    H     H_    0.078603 0.349481 0.882219 0.130626
H5    H     H_    0.286074 0.803948 0.457749 0.113168
H6    H     H_    0.720633 0.998145 0.539613 0.110917
H7    H     H_    0.213911 0.303736 0.042266 0.113172
H8    H     H_    0.779368 0.498322 0.960396 0.110918
H9    H     H_    0.667829 0.978742 0.440141 0.117360
H10   H     H_    0.339549 0.800616 0.556840 0.119121
H11   H     H_    0.832174 0.479016 0.059869 0.117361
H12   H     H_    0.160433 0.300302 0.943180 0.119119
H13   H     H_    0.492259 0.959064 0.371895 0.128730
H14   H     H_    0.511812 0.920788 0.626433 0.132629
H15   H     H_    0.007743 0.459297 0.128113 0.128716
H16   H     H_    0.988176 0.420579 0.873581 0.132642
C45   C     C_R   0.426947 0.793655 0.078863 -0.131298
C46   C     C_R   0.572523 0.206491 0.920361 -0.129101
C47   C     C_R   0.073052 0.293657 0.421135 -0.131303
C48   C     C_R   0.927476 0.706489 0.579640 -0.129099
H17   H     H_    0.444738 0.662962 0.063217 0.105740
H18   H     H_    0.554340 0.337134 0.935425 0.105784
H19   H     H_    0.055261 0.162964 0.436779 0.105740
H20   H     H_    0.945660 0.837132 0.564577 0.105784
C49   C     C_R   0.387721 0.778647 0.118862 -0.163818
C50   C     C_R   0.611781 0.221377 0.880401 -0.163551
C51   C     C_R   0.112278 0.278650 0.381135 -0.163818
C52   C     C_R   0.888218 0.721375 0.619600 -0.163537
H21   H     H_    0.376141 0.636072 0.133081 0.120141
H22   H     H_    0.622975 0.363808 0.865607 0.119905
H23   H     H_    0.123858 0.136075 0.366915 0.120140
H24   H     H_    0.877024 0.863806 0.634395 0.119906
C53   C     C_R   0.363678 0.945959 0.139887 -0.058159
C54   C     C_R   0.636320 0.054135 0.860111 -0.057745
C55   C     C_R   0.136322 0.445962 0.360113 -0.058157
C56   C     C_R   0.863680 0.554132 0.639889 -0.057743
C57   C     C_R   0.380252 0.128214 0.119873 -0.164241
C58   C     C_R   0.620218 0.872068 0.880829 -0.162265
C59   C     C_R   0.119749 0.628217 0.380130 -0.164257
C60   C     C_R   0.879782 0.372065 0.619170 -0.162266
H25   H     H_    0.362882 0.260584 0.134811 0.123259
H26   H     H_    0.637997 0.739760 0.866497 0.122882
H27   H     H_    0.137120 0.760587 0.365195 0.123255
H28   H     H_    0.862004 0.239756 0.633501 0.122881
C61   C     C_R   0.419362 0.142723 0.080007 -0.133960
C62   C     C_R   0.581079 0.857680 0.920658 -0.134820
C63   C     C_R   0.080639 0.642726 0.419996 -0.133964
C64   C     C_R   0.918921 0.357677 0.579342 -0.134816
H29   H     H_    0.431132 0.284677 0.065325 0.105543
H30   H     H_    0.569683 0.715874 0.935896 0.105486
H31   H     H_    0.068869 0.784680 0.434681 0.105544
H32   H     H_    0.930318 0.215871 0.564102 0.105486
C65   C     C_R   0.442913 0.975843 0.059118 0.129531
C66   C     C_R   0.557025 0.024495 0.940804 0.129599
C67   C     C_R   0.057088 0.475845 0.440882 0.129533
C68   C     C_R   0.942975 0.524492 0.559197 0.129599
C69   C     C_1   0.483172 0.992590 0.017389 -0.056984
C70   C     C_1   0.516745 0.007858 0.982508 -0.056764
C71   C     C_1   0.016829 0.492591 0.482612 -0.056986
C72   C     C_1   0.983255 0.507856 0.517492 -0.056763
C73   C     C_2   0.409058 0.140470 0.359710 0.356258
H33   H     H_    0.392968 0.114309 0.312213 0.034729
O21   O     O_2   0.436991 0.281285 0.370647 -0.518894
C74   C     C_2   0.580991 0.170664 0.644874 0.355129
H34   H     H_    0.599266 0.146149 0.691550 0.027334
O22   O     O_2   0.544481 0.282722 0.637571 -0.518828
C75   C     C_2   0.090958 0.640630 0.140264 0.356238
H35   H     H_    0.107048 0.614533 0.187765 0.034765
O23   O     O_2   0.063036 0.781464 0.129306 -0.518889
C76   C     C_2   0.919015 0.670503 0.855105 0.355142
H36   H     H_    0.900738 0.645917 0.808434 0.027310
O24   O     O_2   0.955533 0.782521 0.862389 -0.518835

loop_
_geom_bond_atom_site_label_1
_geom_bond_atom_site_label_2
_ccdc_geom_bond_type
O17   V3    S    
C48   C52   A    
O1    C5    A    
C47   H19   S    
O19   V1    S    
C9    C21   A    
C24   C75   S    
O3    C7    A    
C10   C18   A    
C48   C68   A    
C11   C23   A    
C22   C73   S    
C25   C33   A    
C75   H35   S    
C5    C12   S    
O7    C3    A    
C6    C11   S    
C35   C40   A    
C26   C30   A    
C58   C62   A    
C36   C39   A    
C40   C44   A    
C57   C61   A    
C14   C18   A    
C58   H26   S    
O4    C8    A    
C51   H23   S    
C50   H22   S    
O1    V3    S    
O13   V1    S    
C31   C43   A    
O2    V4    S    
O3    V1    S    
C40   H16   S    
C46   C50   A    
C17   H6    S    
C45   C49   A    
C1    O15   A    
C15   C31   A    
C48   H20   S    
C2    O16   A    
C74   H34   S    
C16   C32   A    
C47   C51   A    
O2    C6    A    
C16   H12   S    
C45   C65   A    
C10   C22   A    
C11   C19   A    
C16   C20   A    
C43   H3    S    
C1    C55   S    
C68   C72   S    
C13   C29   A    
C34   C37   A    
O11   C7    A    
C38   H14   S    
O15   V3    S    
C35   C36   A    
O12   C8    A    
C53   C57   A    
O10   V2    S    
C51   C55   A    
O5    V1    S    
O17   V1    S    
C39   C43   A    
C63   C67   A    
C38   C42   A    
O19   V3    S    
C26   C34   A    
O20   V4    S    
O7    V3    S    
C46   H18   S    
C49   C53   A    
C45   H17   S    
O18   V4    S    
C15   C19   A    
C14   H10   S    
C33   C38   A    
C32   C44   A    
C13   H9    S    
C60   H28   S    
C39   H15   S    
C44   H4    S    
O8    V4    S    
C66   C70   S    
C20   H7    S    
C4    C54   S    
C37   C41   A    
C67   C71   S    
C14   C30   A    
C21   C25   A    
O8    C4    A    
C7    C10   S    
O9    C5    A    
C3    C53   S    
C59   C63   A    
C62   H30   S    
C76   O24   D    
C61   H29   S    
C74   O22   D    
O6    V2    S    
C65   C69   S    
O18   V2    S    
C63   H31   S    
C52   C56   A    
C69   C70   T    
C12   C20   A    
C27   C35   A    
C71   C72   T    
C49   H21   S    
C56   C60   A    
C29   C41   A    
C73   H33   S    
O16   V4    S    
O9    V1    S    
C19   H8    S    
C75   O23   D    
C57   H25   S    
C3    O13   A    
C18   H5    S    
C64   C68   A    
C59   H27   S    
O5    C1    A    
O6    C2    A    
C23   C27   A    
O11   V3    S    
C30   C42   A    
O12   V4    S    
C22   C26   A    
C8    C9    S    
C9    C17   A    
O10   C6    A    
C2    C56   S    
C37   H13   S    
C47   C67   A    
C60   C64   A    
C33   C34   A    
C42   H2    S    
C41   H1    S    
C52   H24   S    
C23   C76   S    
O20   V2    S    
C12   C24   A    
C27   C31   A    
C13   C17   A    
C46   C66   A    
C25   C29   A    
C76   H36   S    
O14   V2    S    
C62   C66   A    
C64   H32   S    
C24   C28   A    
C61   C65   A    
C50   C54   A    
C21   C74   S    
C28   C36   A    
C54   C58   A    
C4    O14   A    
C55   C59   A    
O4    V2    S    
C28   C32   A    
C15   H11   S    
C73   O21   D    
