data_mof_unit_2855.cif
_audit_creation_date              2012-12-11T15:46:56-0500
_audit_creation_method            fapswitch 2.2
_symmetry_space_group_name_H-M    P1
_symmetry_Int_Tables_number       1
_space_group_crystal_system       triclinic
_cell_length_a                    11.514996
_cell_length_b                    11.591549
_cell_length_c                    19.514231
_cell_angle_alpha                 90.555562
_cell_angle_beta                  89.978362
_cell_angle_gamma                 60.10053
_cell_volume                      2257.86581995

loop_
_atom_site_label
_atom_site_type_symbol
_atom_type_description
_atom_site_fract_x
_atom_site_fract_y
_atom_site_fract_z
_atom_type_partial_charge
C1    C     C_R   0.640654 0.117193 0.599145 0.539568
C2    C     C_1   0.653295 0.149572 0.668530 0.002808
C3    C     C_R   0.650278 0.698706 0.184230 -0.017081
C4    C     C_R   0.612660 0.745756 0.598535 0.551750
C5    C     C_R   0.518935 0.772086 0.210087 -0.024023
C6    C     C_R   0.498771 0.800449 0.279666 0.054888
C7    C     C_R   0.737064 0.706166 0.295735 -0.173334
C8    C     C_R   0.757996 0.676538 0.226398 -0.121860
C9    C     C_3   0.404244 0.745074 0.204377 0.228243
C10   C     C_3   0.392929 0.760788 0.281561 0.461224
C11   C     C_R   0.607477 0.763971 0.323331 -0.000506
C12   C     C_1   0.641455 0.703738 0.667901 0.002311
C13   C     C_R   0.136908 0.197604 0.192597 0.054558
C14   C     C_R   0.229955 0.229010 0.219030 -0.018960
C15   C     C_R   0.256739 0.214716 0.287889 -0.015206
C16   C     C_R   0.240889 0.145264 0.598059 0.546080
C17   C     C_R   0.108196 0.127592 0.306031 -0.095652
C18   C     C_R   0.080239 0.141865 0.236161 -0.052197
C19   C     C_3   0.242250 0.351933 0.215399 0.183077
C20   C     C_3   0.260302 0.341801 0.292827 0.197472
C21   C     C_R   0.197483 0.164203 0.332225 0.058382
C22   C     C_R   0.695921 0.202937 0.203339 -0.069315
C23   C     C_1   0.127062 0.198916 0.859420 0.003299
C24   C     C_R   0.797813 0.092132 0.236008 0.059673
C25   C     C_R   0.795410 0.072093 0.304636 -0.102838
C26   C     C_R   0.604241 0.290261 0.317736 0.228810
C27   C     C_R   0.604984 0.309221 0.246002 -0.155919
C28   C     C_R   0.648234 0.113932 0.404350 0.534314
C29   C     C_3   0.871192 0.946469 0.219613 0.462330
C30   C     C_3   0.868123 0.923915 0.296292 -0.217031
C31   C     C_R   0.686137 0.161279 0.344127 -0.009746
C32   C     C_R   0.081891 0.231299 0.928732 0.537650
C33   C     C_R   0.683882 0.604662 0.929609 0.544479
C34   C     C_1   0.171327 0.170354 0.727689 -0.031616
C35   C     C_R   0.708283 0.206743 0.930246 0.549739
C36   C     C_R   0.081900 0.236675 0.125164 0.547247
C37   C     C_R   0.680242 0.617257 0.123311 0.547567
C38   C     C_R   0.713511 0.215968 0.130142 0.560027
C39   C     C_R   0.583623 0.798311 0.395100 0.562909
C40   C     C_R   0.242643 0.141870 0.402142 0.538162
C41   C     C_1   0.670533 0.646628 0.860234 0.004648
C42   C     C_1   0.655016 0.683605 0.728396 -0.031988
C43   C     C_1   0.663665 0.666741 0.799732 -0.031587
C44   C     C_3   0.162591 0.548876 0.345582 -0.084597
C45   C     C_1   0.150368 0.182349 0.798986 -0.031944
C46   C     C_3   0.584971 0.423790 0.408640 -0.045054
C47   C     C_3   0.300189 0.824658 0.100598 -0.082079
C48   C     C_3   0.150392 0.541233 0.149390 -0.101505
C49   C     C_1   0.194964 0.160973 0.667273 0.003884
C50   C     C_1   0.678422 0.191264 0.860880 0.003429
C51   C     C_1   0.658725 0.167188 0.728992 -0.031285
C52   C     C_1   0.665604 0.180881 0.800369 -0.031548
Cr1   Cr    Cr6+3 0.404720 0.198220 0.499960 1.039562
Cr2   Cr    Cr6+3 0.698290 0.897110 0.500380 1.014917
Cr3   Cr    Cr6+3 0.396970 0.904720 0.499610 1.012346
Cr4   Cr    Cr6+3 0.926290 0.152010 0.028150 1.053312
Cr5   Cr    Cr6+3 0.921440 0.451830 0.027490 1.039127
Cr6   Cr    Cr6+3 0.626370 0.446880 0.028730 0.995920
H1    H     H_    0.823497 0.677251 0.328075 0.163513
H2    H     H_    0.007213 0.117956 0.216908 0.187015
H3    H     H_    0.174060 0.595444 0.298516 0.118488
H4    H     H_    0.248408 0.520054 0.380764 0.155287
H5    H     H_    0.070967 0.624936 0.372532 0.124444
H6    H     H_    0.657528 0.447672 0.383851 0.158021
H7    H     H_    0.637385 0.342434 0.446059 0.097443
H8    H     H_    0.512144 0.513146 0.438174 0.175942
H9    H     H_    0.052560 0.806647 0.201904 0.325240
H10   H     H_    0.706144 0.944395 0.197352 0.299265
H11   H     H_    0.302994 0.729109 0.088946 0.098651
H12   H     H_    0.335736 0.331045 0.187500 0.040502
H13   H     H_    0.388105 0.825559 0.077637 0.126516
H14   H     H_    0.209066 0.904954 0.076242 0.168278
H15   H     H_    0.267273 0.851026 0.355497 0.341953
H16   H     H_    0.366244 0.615343 0.304911 0.324999
H17   H     H_    0.197249 0.482810 0.101718 0.125341
H18   H     H_    0.216570 0.575133 0.172765 0.076675
H19   H     H_    0.054923 0.630189 0.134719 0.166375
H20   H     H_    0.358657 0.323728 0.311292 0.127744
H21   H     H_    0.535300 0.404638 0.224308 0.144093
H22   H     H_    0.804195 0.882291 0.310613 0.131032
H23   H     H_    0.968243 0.876577 0.320951 0.130754
H24   H     H_    0.860262 0.622644 0.207860 0.215107
H25   H     H_    0.427929 0.643265 0.188131 0.103970
H26   H     H_    0.060047 0.089277 0.339179 0.131062
O1    O     O_R   0.267750 0.231960 0.575440 -0.501938
O2    O     O_R   0.596230 0.579400 0.952760 -0.516154
O3    O     O_R   0.639160 0.321170 0.958690 -0.495377
O4    O     O_R   0.527290 0.186640 0.570530 -0.496812
O5    O     O_R   0.821370 0.124220 0.104400 -0.443221
O6    O     O_R   0.037020 0.167050 0.097880 -0.512634
O7    O     O_R   0.056310 0.349620 0.102920 -0.476751
O8    O     O_R   0.797790 0.564880 0.097980 -0.486346
O9    O     O_R   0.596000 0.584270 0.104310 -0.554714
O10   O     O_R   0.638950 0.325690 0.099180 -0.519569
O11   O     O_3   0.824700 0.350240 0.028120 -0.262157
O12   O     O_R   0.685950 0.784660 0.430010 -0.513316
O13   O     O_R   0.728110 0.003450 0.576380 -0.504681
O14   O     O_R   0.682980 0.789190 0.570500 -0.486046
O15   O     O_R   0.499300 0.771880 0.575540 -0.508294
O16   O     O_R   0.285350 0.030870 0.569740 -0.495452
O17   O     O_R   0.270960 0.227070 0.423890 -0.481889
O18   O     O_R   0.530270 0.182120 0.430040 -0.476641
O19   O     O_R   0.731320 0.998570 0.424830 -0.537166
O20   O     O_3   0.146576 0.439026 0.329493 -0.510687
O21   O     O_3   0.513977 0.393274 0.359352 -0.578954
O22   O     O_3   0.999978 0.903600 0.193656 -0.621994
O23   O     O_R   0.502510 0.767000 0.423980 -0.495879
O24   O     O_3   0.798775 0.903715 0.178723 -0.677534
O25   O     O_3   0.292364 0.850093 0.171666 -0.525365
O26   O     O_3   0.267827 0.860216 0.305051 -0.675044
O27   O     O_3   0.435985 0.639596 0.314278 -0.713028
O28   O     O_3   0.121893 0.466626 0.196209 -0.517633
O29   O     O_R   0.288320 0.026340 0.429250 -0.532526
O30   O     O_3   0.499990 0.000020 0.499980 -0.278957
O31   O     O_R   0.821590 0.119350 0.952850 -0.500310
O32   O     O_R   0.037230 0.162540 0.957390 -0.504518
O33   O     O_R   0.056530 0.344750 0.951370 -0.511448
O34   O     O_R   0.798000 0.560370 0.957490 -0.491512

loop_
_geom_bond_atom_site_label_1
_geom_bond_atom_site_label_2
_ccdc_geom_bond_type
C25   C31   A    
Cr4   O11   S    
C24   C25   A    
C23   C45   T    
Cr5   O8    S    
C4    O14   A    
C48   H18   S    
C19   C20   S    
C32   O33   A    
Cr6   O11   S    
Cr6   O3    S    
C44   O20   S    
C7    C8    A    
C19   O28   S    
C39   O23   A    
C38   O5    A    
C26   C27   A    
C13   C18   A    
C8    H24   S    
Cr6   O9    S    
C46   H8    S    
C27   H21   S    
C5    C6    A    
C22   C38   S    
C46   O21   S    
C1    C2    S    
C24   C29   S    
C47   H11   S    
C12   C42   T    
C40   O17   A    
C35   O3    A    
Cr1   O17   S    
Cr3   O16   S    
C50   C52   T    
C29   O24   S    
C35   O31   A    
C4    C12   S    
C9    C10   S    
Cr2   O12   S    
C30   H22   S    
C1    O4    A    
Cr4   O6    S    
C26   C31   A    
Cr3   O23   S    
C13   C14   A    
C41   C43   T    
C48   H17   S    
Cr6   O2    S    
C26   O21   S    
C7    H1    S    
C44   H5    S    
C9    O25   S    
C15   C20   S    
C47   H14   S    
C51   C52   S    
Cr2   O19   S    
H15   O26   S    
C16   C49   S    
C46   H7    S    
C3    C8    A    
C1    O13   A    
C6    C11   A    
C16   O16   A    
Cr3   O29   S    
C44   H4    S    
C47   O25   S    
C17   C21   A    
C46   H6    S    
C48   H19   S    
C7    C11   A    
C33   O2    A    
C5    C9    S    
C29   C30   S    
C40   O29   A    
C15   C21   A    
Cr1   O18   S    
C38   O10   A    
C35   C50   S    
C17   C18   A    
Cr4   O32   S    
C37   O9    A    
C10   O27   S    
Cr2   O13   S    
C34   C45   S    
C32   O32   A    
C11   C39   S    
C47   H13   S    
C9    H25   S    
C36   O7    A    
C18   H2    S    
Cr4   O5    S    
C48   O28   S    
C22   C27   A    
C16   O1    A    
C22   C24   A    
C29   O22   S    
C42   C43   S    
H16   O27   S    
Cr1   O30   S    
Cr5   O33   S    
C36   O6    A    
C25   C30   S    
C34   C49   T    
Cr5   O7    S    
C37   O8    A    
C14   C19   S    
C28   C31   S    
C3    C5    A    
C13   C36   S    
C6    C10   S    
H9    O22   S    
C20   O20   S    
Cr3   O30   S    
C44   H3    S    
C20   H20   S    
C17   H26   S    
C33   C41   S    
C23   C32   S    
C30   H23   S    
Cr6   O10   S    
C28   O19   A    
C21   C40   S    
Cr2   O30   S    
Cr4   O31   S    
C10   O26   S    
Cr1   O4    S    
C39   O12   A    
C2    C51   T    
C28   O18   A    
C33   O34   A    
C3    C37   S    
Cr5   O11   S    
C4    O15   A    
Cr3   O15   S    
C14   C15   A    
Cr2   O14   S    
C19   H12   S    
Cr1   O1    S    
H10   O24   S    
Cr5   O34   S    
