data_mof_unit_3438.cif
_audit_creation_date              2012-12-11T17:00:14-0500
_audit_creation_method            fapswitch 2.2
_symmetry_space_group_name_H-M    P1
_symmetry_Int_Tables_number       1
_space_group_crystal_system       triclinic
_cell_length_a                    6.941169
_cell_length_b                    13.581286
_cell_length_c                    20.272065
_cell_angle_alpha                 103.048534
_cell_angle_beta                  89.992912
_cell_angle_gamma                 90.445223
_cell_volume                      1861.64393386

loop_
_atom_site_label
_atom_site_type_symbol
_atom_type_description
_atom_site_fract_x
_atom_site_fract_y
_atom_site_fract_z
_atom_type_partial_charge
O1    O     O_R   0.506770 0.599700 0.449550 -0.540436
O2    O     O_R   0.179980 0.595740 0.587960 -0.550813
O3    O     O_R   0.004580 0.400300 0.550450 -0.541278
C1    C     C_R   0.348333 0.617782 0.615115 0.675068
O4    O     O_R   0.177380 0.611700 0.452380 -0.530464
O5    O     O_R   0.001970 0.416370 0.413900 -0.512930
C2    C     C_R   0.346178 0.639079 0.436178 0.749708
O6    O     O_R   0.509390 0.583630 0.586100 -0.542603
O7    O     O_3   0.337530 0.435890 0.487530 -0.357463
V1    V     V_3+5 0.064660 0.511890 0.502310 1.459075
O8    O     O_R   0.671950 0.404260 0.412040 -0.531245
C3    C     C_R   0.840686 0.385180 0.383828 0.752132
O9    O     O_R   0.674540 0.388300 0.547620 -0.544266
C4    C     C_R   0.842986 0.361598 0.564272 0.682790
V2    V     V_3+5 0.564030 0.488110 0.497690 1.459211
O10   O     O_3   0.841030 0.564110 0.512470 -0.380724
C5    C     C_R   0.862981 0.109289 0.610211 -0.159118
H1    H     H_    0.856542 0.159212 0.517086 0.099482
H2    H     H_    0.874138 0.983666 0.692983 0.117144
H3    H     H_    0.867961 0.030277 0.584270 0.109673
C6    C     C_R   0.850529 0.284490 0.604059 -0.027297
C7    C     C_R   0.855036 0.317001 0.930727 -0.166923
C8    C     C_R   0.847775 0.393359 0.895367 -0.117348
C9    C     C_R   0.847856 0.370049 0.824806 -0.158762
C10   C     C_R   0.855207 0.268420 0.787440 0.075797
C11   C     C_R   0.861897 0.190414 0.824140 0.070366
C12   C     C_R   0.855998 0.241591 0.715054 0.071852
C13   C     C_R   0.862696 0.137746 0.681257 0.144189
C14   C     C_R   0.868930 0.062923 0.718425 -0.207082
C15   C     C_R   0.868614 0.088652 0.788660 -0.197098
C16   C     C_R   0.850385 0.314081 0.674756 -0.213896
C17   C     C_R   0.856609 0.182308 0.571860 -0.175225
C18   C     C_R   0.861964 0.215880 0.895890 -0.070094
H4    H     H_    0.845485 0.394133 0.696401 0.090047
H5    H     H_    0.855041 0.336793 0.985601 0.103940
H6    H     H_    0.841878 0.433539 0.801286 0.106103
H7    H     H_    0.842069 0.471510 0.922888 0.118615
H8    H     H_    0.873572 0.027706 0.814999 0.106692
C19   C     C_R   0.694657 0.202436 0.220416 0.124371
C20   C     C_R   0.861972 0.191918 0.180959 -0.165147
C21   C     C_R   0.016890 0.257792 0.205109 -0.219404
H9    H     H_    0.144249 0.257206 0.174137 0.163932
C22   C     C_R   0.011188 0.324156 0.269682 0.247701
C23   C     C_R   0.849439 0.323567 0.313056 -0.180559
C24   C     C_R   0.689424 0.265622 0.284638 0.142648
C25   C     C_3   0.566494 0.193238 0.311833 -0.410577
C26   C     C_3   0.571292 0.124256 0.241369 -0.397399
H10   H     H_    0.420859 0.223768 0.326700 0.211639
H11   H     H_    0.642206 0.161487 0.350614 0.155900
H12   H     H_    0.428633 0.115831 0.215662 0.183398
H13   H     H_    0.648502 0.052290 0.239502 0.202803
C27   C     C_R   0.499377 0.678582 0.730243 0.101724
C28   C     C_R   0.351757 0.683840 0.684229 -0.105631
C29   C     C_R   0.196661 0.748935 0.707904 -0.176542
H14   H     H_    0.078398 0.755027 0.674418 0.126064
C30   C     C_R   0.198210 0.811738 0.773558 -0.171251
H15   H     H_    0.082126 0.864627 0.788510 0.123873
C31   C     C_R   0.355124 0.811557 0.817470 -0.106143
C32   C     C_R   0.501543 0.741282 0.795027 0.099192
C33   C     C_3   0.713755 0.757705 0.792654 -0.399172
C34   C     C_3   0.711225 0.689197 0.722173 -0.405751
H16   H     H_    0.792293 0.724986 0.830345 0.171209
H17   H     H_    0.750681 0.837539 0.792904 0.165197
H18   H     H_    0.787777 0.616707 0.719133 0.164973
H19   H     H_    0.746914 0.729122 0.681500 0.167053
C35   C     C_R   0.213767 0.876000 0.384897 -0.137102
H20   H     H_    0.220128 0.829026 0.478690 0.101034
H21   H     H_    0.137296 0.944786 0.407155 0.109822
C36   C     C_R   0.349279 0.718312 0.397858 -0.056647
C37   C     C_R   0.468837 0.695310 0.075203 -0.138903
C38   C     C_R   0.530258 0.629263 0.113841 -0.095869
C39   C     C_R   0.494701 0.650006 0.183046 -0.101813
C40   C     C_R   0.384073 0.734559 0.214718 0.051041
C41   C     C_R   0.304917 0.797171 0.173471 0.022051
C42   C     C_R   0.348999 0.758784 0.286058 0.068284
C43   C     C_R   0.248078 0.848725 0.315023 0.099515
C44   C     C_R   0.162203 0.904624 0.273493 -0.223931
C45   C     C_R   0.173437 0.873149 0.203546 0.198624
C46   C     C_R   0.400580 0.694445 0.329282 -0.167543
C47   C     C_R   0.261856 0.810554 0.425836 -0.177148
C48   C     C_R   0.362712 0.781618 0.104286 -0.062910
H22   H     H_    0.463704 0.621319 0.310187 0.138292
H23   H     H_    0.513758 0.681952 0.022727 0.103260
H24   H     H_    0.615614 0.564246 0.090616 0.117840
O11   O     O_R   0.203450 0.916320 0.913910 -0.544690
O12   O     O_R   0.535520 0.888300 0.047620 -0.525893
O13   O     O_R   0.710860 0.083650 0.086100 -0.533392
C49   C     C_R   0.366609 0.863732 0.066854 0.736649
O14   O     O_R   0.532860 0.904250 0.912040 -0.547001
O15   O     O_R   0.708190 0.099710 0.949550 -0.542998
C50   C     C_R   0.364316 0.882633 0.884736 0.684088
O16   O     O_R   0.206120 0.900260 0.050460 -0.511727
O17   O     O_3   0.375280 0.064080 0.012470 -0.376323
V3    V     V_3+5 0.648180 0.988110 0.997690 1.467418
O18   O     O_R   0.038220 0.111740 0.952370 -0.545102
C51   C     C_R   0.869765 0.138243 0.935598 0.669420
O19   O     O_R   0.040880 0.095790 0.087940 -0.536288
C52   C     C_R   0.871996 0.119000 0.114582 0.785006
V4    V     V_3+5 0.148800 0.011950 0.002300 1.464533
O20   O     O_3   0.871820 0.935920 0.987530 -0.355966
Br1   Br    Br    0.228760 0.413593 0.293169 -0.610150
H25   H     H_    0.064886 0.965426 0.295276 0.149544
H26   H     H_    0.558698 0.599218 0.210461 0.123201
Br2   Br    Br    0.946342 0.901494 0.157797 -0.579146

loop_
_geom_bond_atom_site_label_1
_geom_bond_atom_site_label_2
_ccdc_geom_bond_type
C35   H21   S    
C42   C43   A    
O17   V3    S    
C1    C28   S    
C40   C42   A    
C21   H9    S    
O18   C51   A    
C1    O6    A    
O19   C52   A    
O11   C50   A    
C28   C29   A    
C23   C24   A    
C7    H5    S    
C6    C16   A    
C25   H11   S    
C9    H6    S    
C33   H17   S    
C4    C6    S    
C13   C14   A    
C27   C34   S    
C20   C52   S    
O12   C49   A    
V2    O10   S    
O13   V3    S    
C5    H3    S    
C30   H15   S    
C15   H8    S    
C33   H16   S    
C40   C41   A    
O14   V3    S    
C37   C48   A    
O12   V3    S    
C29   H14   S    
O8    V2    S    
C49   O16   A    
C8    C9    A    
C37   C38   A    
O1    V2    S    
O14   C50   A    
C31   C50   S    
O17   V4    S    
C44   C45   A    
C19   C24   A    
O13   C52   A    
C32   C33   S    
O9    C4    A    
C21   C22   A    
C44   H25   S    
O19   V4    S    
O15   V3    S    
C26   H12   S    
C25   H10   S    
C6    C17   A    
C29   C30   A    
C12   C16   A    
C43   C44   A    
C19   C20   A    
O4    C2    A    
C26   H13   S    
C10   C11   A    
C8    H7    S    
C45   Br2   S    
C33   C34   S    
C34   H18   S    
O2    C1    A    
C22   C23   A    
C22   Br1   S    
O5    V1    S    
C14   C15   A    
O11   V4    S    
C27   C32   A    
C34   H19   S    
C11   C18   A    
V4    O20   S    
V3    O20   S    
C35   C43   A    
C16   H4    S    
C9    C10   A    
C37   H23   S    
O3    C4    A    
C20   C21   A    
C11   C15   A    
O6    V2    S    
O9    V2    S    
C36   C46   A    
H1    C17   S    
C41   C48   A    
O2    V1    S    
C18   C51   S    
C27   C28   A    
C19   C26   S    
C38   H24   S    
O7    V1    S    
C7    C18   A    
C25   C26   S    
O1    C2    A    
C5    C13   A    
H20   C47   S    
C39   C40   A    
C2    C36   S    
C46   H22   S    
O8    C3    A    
O15   C51   A    
C39   H26   S    
C10   C12   A    
C35   C47   A    
O7    V2    S    
O4    V1    S    
C3    C23   S    
O3    V1    S    
V1    O10   S    
O5    C3    A    
C30   C31   A    
O18   V4    S    
C31   C32   A    
C48   C49   S    
C24   C25   S    
C38   C39   A    
C41   C45   A    
C12   C13   A    
C5    C17   A    
C7    C8    A    
C36   C47   A    
C42   C46   A    
O16   V4    S    
H2    C14   S    
