data_mof_unit_4700.cif
_audit_creation_date              2012-12-10T19:43:26-0500
_audit_creation_method            fapswitch 2.2
_symmetry_space_group_name_H-M    P1
_symmetry_Int_Tables_number       1
_space_group_crystal_system       triclinic
_cell_length_a                    10.87542
_cell_length_b                    10.879779
_cell_length_c                    9.724034
_cell_angle_alpha                 89.511807
_cell_angle_beta                  92.04751
_cell_angle_gamma                 95.335353
_cell_volume                      1144.83691539

loop_
_atom_site_label
_atom_site_type_symbol
_atom_type_description
_atom_site_fract_x
_atom_site_fract_y
_atom_site_fract_z
_atom_type_partial_charge
C1    C     C_R   0.503910 0.262729 0.501970 0.786637
C2    C     C_R   0.139012 0.201942 0.061594 0.210611
C3    C     C_R   0.924002 0.408775 0.413670 0.089154
C4    C     C_R   0.870425 0.481259 0.510570 -0.200198
C5    C     C_R   0.946502 0.543555 0.613594 0.013714
C6    C     C_R   0.072849 0.565164 0.592218 0.122382
C7    C     C_R   0.127838 0.496952 0.492767 -0.177329
C8    C     C_R   0.052893 0.417811 0.402992 -0.024549
C9    C     C_R   0.940346 0.648561 0.844172 -0.195885
C10   C     C_R   0.927651 0.639328 0.987031 0.149176
C11   C     C_R   0.873640 0.529447 0.043600 -0.111370
C12   C     C_R   0.262577 0.498402 0.497330 0.795529
C13   C     C_R   0.837071 0.427932 0.959795 0.155029
C14   C     C_R   0.857114 0.435464 0.818816 -0.158914
C15   C     C_R   0.907663 0.546068 0.758923 0.088072
C16   C     C_R   0.514228 0.111599 0.765319 -0.208023
C17   C     C_R   0.467563 0.050156 0.881150 0.195232
C18   C     C_R   0.406878 0.931232 0.866950 0.168308
C19   C     C_R   0.408396 0.871264 0.742110 -0.226755
C20   C     C_R   0.459801 0.931118 0.626187 0.009437
C21   C     C_R   0.494549 0.058935 0.632973 0.039942
C22   C     C_R   0.503247 0.127534 0.507613 -0.116500
C23   C     C_R   0.487883 0.735607 0.499686 0.797403
C24   C     C_R   0.487661 0.064571 0.382882 -0.269036
C25   C     C_R   0.471020 0.936545 0.379546 0.112993
C26   C     C_R   0.470587 0.868536 0.501609 -0.104321
C27   C     C_R   0.645112 0.700142 0.136042 0.155737
C28   C     C_R   0.688234 0.801511 0.055469 -0.218204
C29   C     C_R   0.689198 0.792983 0.915173 0.146618
C30   C     C_R   0.642166 0.683711 0.853764 -0.173474
C31   C     C_R   0.569520 0.592348 0.925413 0.119359
C32   C     C_R   0.569927 0.595655 0.074550 0.189740
C33   C     C_R   0.436029 0.410403 0.071843 -0.045614
C34   C     C_R   0.736698 0.492936 0.503055 0.797432
C35   C     C_R   0.434924 0.411201 0.924969 -0.065341
C36   C     C_R   0.133571 0.329537 0.047263 -0.170069
C37   C     C_R   0.118157 0.401882 0.162213 -0.147065
C38   C     C_R   0.103816 0.347105 0.292331 0.174191
C39   C     C_R   0.113775 0.220091 0.308044 -0.154660
C40   C     C_R   0.132340 0.147921 0.193453 -0.179493
Cu1   Cu    Cu3+1 0.499990 0.499990 0.640660 0.915790
Cu2   Cu    Cu3+1 0.500010 0.500010 0.359340 0.965690
H1    H     H_    0.139002 0.372498 0.946492 0.148464
N1    N     N_R   0.501190 0.501210 0.147910 -0.185508
N2    N     N_R   0.501230 0.501290 0.852040 -0.198284
O1    O     O_R   0.499990 0.319640 0.618810 -0.596060
O2    O     O_R   0.500000 0.319660 0.381240 -0.584600
O3    O     O_R   0.319640 0.500000 0.618780 -0.587588
O4    O     O_R   0.319650 0.500020 0.381210 -0.576283
O5    O     O_R   0.500000 0.680340 0.618760 -0.621528
O6    O     O_R   0.500010 0.680360 0.381190 -0.516824
O7    O     O_R   0.680350 0.499980 0.618790 -0.599090
O8    O     O_R   0.680360 0.500000 0.381220 -0.557485
N3    N     N_3   0.146183 0.128344 0.941006 -0.598361
H2    H     H_    0.230466 0.154712 0.896118 0.215900
H3    H     H_    0.146546 0.035284 0.968188 0.215678
H4    H     H_    0.862088 0.522805 0.153161 0.157897
N4    N     N_3   0.782670 0.315995 0.018814 -0.595275
H5    H     H_    0.695127 0.296123 0.972180 0.232152
H6    H     H_    0.836600 0.244871 0.995018 0.244436
H7    H     H_    0.835235 0.353793 0.756326 0.135087
H8    H     H_    0.483994 0.114871 0.287039 0.174008
H9    H     H_    0.568082 0.198519 0.782924 0.183102
N5    N     N_3   0.481704 0.111885 0.010441 -0.635452
H10   H     H_    0.398680 0.098850 0.061719 0.225147
H11   H     H_    0.551396 0.073031 0.067549 0.223321
N6    N     N_3   0.342740 0.870201 0.977161 -0.647083
H12   H     H_    0.250331 0.850160 0.945018 0.209835
H13   H     H_    0.379610 0.785801 0.994870 0.233699
H14   H     H_    0.363038 0.779384 0.737011 0.173793
N7    N     N_3   0.436871 0.876295 0.253191 -0.566170
H15   H     H_    0.505221 0.901748 0.183609 0.232433
H16   H     H_    0.353722 0.909503 0.220034 0.240568
H17   H     H_    0.384179 0.335937 0.124667 0.153239
N8    N     N_3   0.699938 0.701029 0.271255 -0.493922
H18   H     H_    0.693100 0.787063 0.316416 0.200567
H19   H     H_    0.794492 0.693404 0.263635 0.216395
H20   H     H_    0.736973 0.882239 0.103857 0.171151
N9    N     N_3   0.748493 0.892127 0.836902 -0.584660
H21   H     H_    0.819776 0.858928 0.783293 0.208803
H22   H     H_    0.684479 0.919894 0.763408 0.228872
H23   H     H_    0.667393 0.672222 0.750292 0.211066
H24   H     H_    0.380879 0.337947 0.869622 0.145716
H25   H     H_    0.111314 0.499824 0.148862 0.132060
H26   H     H_    0.101109 0.176194 0.407570 0.134928
H27   H     H_    0.136689 0.049484 0.206810 0.131185
N10   N     N_3   0.850321 0.313453 0.338500 -0.567505
H28   H     H_    0.785951 0.351876 0.273824 0.273452
H29   H     H_    0.802363 0.255691 0.408958 0.204538
N11   N     N_3   0.144052 0.659139 0.670921 -0.626596
H30   H     H_    0.198652 0.714761 0.604350 0.209460
H31   H     H_    0.197266 0.619280 0.747645 0.245803
H32   H     H_    0.979212 0.734604 0.800526 0.160622
N12   N     N_3   0.968769 0.740772 0.075807 -0.615456
H33   H     H_    0.003318 0.817021 0.018107 0.221620
H34   H     H_    0.042498 0.714099 0.137456 0.207350

loop_
_geom_bond_atom_site_label_1
_geom_bond_atom_site_label_2
_ccdc_geom_bond_type
N10   H28   S    
C16   C21   A    
Cu1   Cu2   S    
C19   C20   A    
C12   O3    A    
C12   O4    A    
C7    C8    A    
C37   C38   A    
C8    C38   S    
C5    C6    A    
C21   C22   A    
C36   C37   A    
C17   N5    S    
C30   C31   A    
C1    O1    A    
C10   N12   S    
N4    H6    S    
C18   C19   A    
C23   C26   S    
C40   H27   S    
C23   O6    A    
C16   C17   A    
Cu1   O1    S    
C37   H25   S    
C25   N7    S    
C16   H9    S    
C28   H20   S    
C9    C10   A    
Cu1   O7    S    
Cu2   O6    S    
C1    C22   S    
C13   C14   A    
Cu2   N1    S    
C27   N8    S    
C25   C26   A    
N3    H3    S    
C7    C12   S    
C4    C34   S    
C3    N10   S    
N6    H12   S    
C24   C25   A    
C3    C8    A    
C2    N3    S    
C39   C40   A    
N7    H16   S    
C35   H24   S    
C1    O2    A    
C23   O5    A    
C13   N4    S    
C18   N6    S    
C6    N11   S    
C14   H7    S    
N6    H13   S    
N5    H11   S    
C30   H23   S    
N8    H18   S    
C29   C30   A    
N11   H31   S    
C31   C32   A    
C29   N9    S    
C17   C18   A    
C32   N1    A    
N12   H34   S    
N8    H19   S    
N10   H29   S    
C22   C24   A    
C39   H26   S    
C3    C4    A    
C35   N2    A    
C9    H32   S    
Cu1   O5    S    
N9    H22   S    
C2    C36   A    
N3    H2    S    
C28   C29   A    
C24   H8    S    
C27   C32   A    
C33   N1    A    
C4    C5    A    
C19   H14   S    
C6    C7    A    
C34   O7    A    
N5    H10   S    
N4    H5    S    
N7    H15   S    
Cu2   O8    S    
C11   C13   A    
N11   H30   S    
C38   C39   A    
C20   C26   A    
C33   C35   A    
Cu1   O3    S    
Cu2   O2    S    
C9    C15   A    
N12   H33   S    
C5    C15   S    
C10   C11   A    
Cu2   O4    S    
N9    H21   S    
C2    C40   A    
C33   H17   S    
C20   C21   A    
C34   O8    A    
C31   N2    A    
C27   C28   A    
Cu1   N2    S    
C14   C15   A    
C36   H1    S    
C11   H4    S    
