data_mof_unit_4352.cif
_audit_creation_date              2013-03-05T15:41:54-0500
_audit_creation_method            fapswitch 2.2
_symmetry_space_group_name_H-M    P1
_symmetry_Int_Tables_number       1
_space_group_crystal_system       triclinic
_cell_length_a                    23.452932
_cell_length_b                    8.782862
_cell_length_c                    7.505814
_cell_angle_alpha                 103.416046
_cell_angle_beta                  93.634254
_cell_angle_gamma                 92.20503
_cell_volume                      1498.60728326

loop_
_atom_site_label
_atom_site_type_symbol
_atom_site_description
_atom_site_fract_x
_atom_site_fract_y
_atom_site_fract_z
_atom_type_partial_charge
O1    O     O_R   0.504120 0.286130 0.619770 -0.570047
O2    O     O_R   0.495880 0.713870 0.380230 -0.559701
O3    O     O_R   0.493410 0.256770 0.308360 -0.557908
O4    O     O_R   0.506590 0.743230 0.691640 -0.562857
C1    C     C_R   0.497922 0.200766 0.453381 0.847871
C2    C     C_R   0.502049 0.799450 0.545217 0.788074
O5    O     O_R   0.423230 0.514630 0.655730 -0.560041
O6    O     O_R   0.576770 0.485370 0.344270 -0.562509
O7    O     O_R   0.412530 0.485280 0.344320 -0.548849
O8    O     O_R   0.587470 0.514720 0.655680 -0.543333
C3    C     C_R   0.391276 0.499496 0.503594 0.799378
C4    C     C_R   0.608871 0.497612 0.497324 0.836795
Cu1   Cu    Cu3+1 0.506340 0.517380 0.684380 1.139389
Cu2   Cu    Cu3+1 0.493660 0.482620 0.315620 1.149083
C5    C     C_R   0.886738 0.641742 0.588128 0.574350
C6    C     C_R   0.116371 0.341252 0.524424 0.582844
N1    N     N_R   0.853647 0.504546 0.558051 -0.459174
N2    N     N_R   0.149469 0.478900 0.562599 -0.454991
C7    C     C_R   0.878177 0.364522 0.555311 0.566761
C8    C     C_R   0.125921 0.620251 0.627051 0.571962
C9    C     C_R   0.937680 0.355491 0.556241 -0.007891
C10   C     C_R   0.066496 0.629104 0.628410 -0.003860
C11   C     C_R   0.972025 0.495001 0.585360 -0.008734
C12   C     C_R   0.031987 0.489209 0.586629 -0.007032
C13   C     C_R   0.946530 0.640229 0.610540 -0.011048
C14   C     C_R   0.057226 0.343561 0.543267 -0.008844
C15   C     C_R   0.963446 0.210715 0.524774 -0.151151
C16   C     C_R   0.040828 0.774007 0.665470 -0.148583
C17   C     C_R   0.022568 0.204608 0.514262 -0.165138
C18   C     C_R   0.981364 0.779472 0.652529 -0.165534
O9    O     O_2   0.862018 0.778768 0.593228 -0.511671
O10   O     O_2   0.140278 0.203020 0.464836 -0.515166
O11   O     O_2   0.845041 0.234246 0.550045 -0.483778
O12   O     O_2   0.159928 0.752171 0.686846 -0.498173
H1    H     H_    0.937831 0.101671 0.501070 0.199085
H2    H     H_    0.066524 0.883370 0.697698 0.193582
H3    H     H_    0.040947 0.091021 0.483105 0.185088
H4    H     H_    0.962839 0.892805 0.675799 0.182603
C19   C     C_R   0.234134 0.571437 0.424441 -0.050212
C20   C     C_R   0.761809 0.409991 0.371991 -0.055085
C21   C     C_R   0.294400 0.590161 0.428057 -0.123197
C22   C     C_R   0.701069 0.396867 0.362653 -0.103977
C23   C     C_R   0.328863 0.495096 0.512705 -0.083730
C24   C     C_R   0.671831 0.498368 0.498039 -0.084528
C25   C     C_R   0.303678 0.393913 0.607750 -0.134438
C26   C     C_R   0.703175 0.599498 0.647168 -0.153859
H5    H     H_    0.329662 0.320588 0.673485 0.209274
H6    H     H_    0.681594 0.675928 0.753747 0.191509
C27   C     C_R   0.244996 0.388999 0.623156 -0.056693
C28   C     C_R   0.762310 0.600369 0.665347 -0.053202
H7    H     H_    0.226935 0.317193 0.707157 0.189373
H8    H     H_    0.785059 0.673584 0.787150 0.180861
C29   C     C_R   0.209649 0.476444 0.532282 0.252780
C30   C     C_R   0.792257 0.507211 0.529401 0.249963
C31   C     C_2   0.491343 0.033851 0.427265 -0.263604
C32   C     C_2   0.511245 0.964971 0.562381 -0.232784
N3    N     N_2   0.484110 0.456420 0.038520 0.027588
N4    N     N_2   0.515890 0.543580 0.961480 0.030306
C33   C     C_2   0.196435 0.650951 0.311360 0.906302
O13   O     O_2   0.155673 0.577087 0.216108 -0.589813
O14   O     O_R   0.206356 0.810097 0.316983 -0.682024
H9    H     H_    0.177300 0.849923 0.235246 0.367376
C34   C     C_2   0.794315 0.320585 0.222260 0.940683
O15   O     O_2   0.828844 0.390168 0.149945 -0.579044
O16   O     O_R   0.787188 0.157106 0.169171 -0.693698
H10   H     H_    0.812291 0.110074 0.067603 0.355114
C35   C     C_2   0.321385 0.727218 0.377947 0.942653
O17   O     O_2   0.317425 0.740883 0.219261 -0.484811
O18   O     O_R   0.349370 0.844341 0.518307 -0.742383
H11   H     H_    0.358680 0.944269 0.478867 0.356891
C36   C     C_2   0.669294 0.266844 0.226258 0.940373
O19   O     O_2   0.632294 0.187358 0.276030 -0.580937
O20   O     O_R   0.683311 0.230244 0.043588 -0.683343
H12   H     H_    0.663999 0.127502 0.971261 0.366222
C37   C     C_2   0.456654 0.953837 0.254632 0.945801
O21   O     O_2   0.408329 0.994442 0.225822 -0.557657
O22   O     O_R   0.481629 0.850454 0.115156 -0.647860
H13   H     H_    0.454075 0.810681 0.002791 0.369109
C38   C     C_2   0.548641 0.049630 0.724922 0.913452
O23   O     O_2   0.593210 0.117919 0.703620 -0.548377
O24   O     O_R   0.532094 0.052666 0.901055 -0.682776
H14   H     H_    0.559081 0.121240 0.000409 0.363986
N5    N     N_R   0.429513 0.416572 0.955848 0.249194
O25   O     O_R   0.389969 0.516863 0.991361 -0.325598
O26   O     O_R   0.414353 0.269195 0.890602 -0.337740
N6    N     N_R   0.571521 0.573902 0.038853 0.261890
O27   O     O_R   0.608564 0.467490 0.996420 -0.326783
O28   O     O_R   0.589978 0.717940 0.110630 -0.303397

loop_
_geom_bond_atom_site_label_1
_geom_bond_atom_site_label_2
_geom_bond_distance
_ccdc_geom_bond_type
C31   C32   1.363370 D    
C34   O16   1.398530 S    
C15   C17   1.396190 A    
O20   H12   1.012007 S    
C37   O21   1.222407 D    
O24   H14   1.010871 S    
C19   C21   1.414463 A    
O22   H13   1.013784 S    
O5    C3    1.302554 A    
C28   C30   1.396980 A    
C32   C38   1.484490 S    
O1    C1    1.295014 A    
C7    C9    1.400500 A    
C12   C14   1.407894 A    
C20   C34   1.485253 S    
O18   H11   1.009755 S    
N6    O28   1.300018 A    
C5    C13   1.402669 A    
C18   H4    1.082728 S    
O4    Cu1   1.971450 S    
N2    C29   1.443984 S    
C27   H7    1.082820 S    
C28   H8    1.083021 S    
C11   C12   1.408661 A    
N3    N5    1.382443 S    
C3    C23   1.469142 S    
C31   C37   1.494825 S    
C20   C22   1.420736 A    
C9    C15   1.405573 A    
C33   O13   1.223236 D    
C10   C16   1.405464 A    
Cu1   Cu2   2.709086 S    
C21   C23   1.409634 A    
O2    C2    1.287020 A    
C22   C24   1.418650 A    
N4    N6    1.384160 S    
C24   C26   1.402259 A    
C25   H5    1.081237 S    
C6    C14   1.403662 A    
C26   H6    1.083989 S    
C33   O14   1.398569 S    
C35   O17   1.222641 D    
C21   C35   1.474001 S    
O4    C2    1.305390 A    
C7    O11   1.349584 S    
C36   O20   1.397150 S    
N6    O27   1.299649 A    
Cu1   N4    2.035639 S    
C15   H1    1.082997 S    
C34   O15   1.222899 D    
C35   O18   1.398681 S    
O7    Cu2   1.928837 S    
C37   O22   1.393219 S    
N5    O25   1.300864 A    
C25   C27   1.388269 A    
O6    C4    1.313352 A    
C19   C33   1.489056 S    
C23   C25   1.398127 A    
O3    Cu2   1.971450 S    
O8    C4    1.298380 A    
N5    O26   1.300024 A    
C8    C10   1.399408 A    
C20   C30   1.418768 A    
O7    C3    1.305486 A    
C10   C12   1.405529 A    
O1    Cu1   1.973475 S    
C38   O24   1.395903 S    
C13   C18   1.404995 A    
C5    N1    1.372890 A    
Cu2   N3    2.035639 S    
O6    Cu2   1.946002 S    
C1    C31   1.434147 S    
C2    C32   1.435937 S    
O3    C1    1.294535 A    
O8    Cu1   1.928837 S    
C5    O9    1.349469 S    
C6    O10   1.349290 S    
C26   C28   1.384496 A    
C9    C11   1.405490 A    
C8    O12   1.349873 S    
C36   O19   1.222887 D    
C4    C24   1.476018 S    
N3    N4    1.300788 D    
C19   C29   1.420012 A    
C27   C29   1.400957 A    
C16   C18   1.395277 A    
C22   C36   1.484182 S    
N1    C7    1.374059 A    
N2    C8    1.374116 A    
C11   C13   1.407596 A    
O14   H9    1.013919 S    
O2    Cu2   1.973475 S    
C38   O23   1.222837 D    
O5    Cu1   1.946002 S    
C16   H2    1.083251 S    
C14   C17   1.405496 A    
C6    N2    1.372965 A    
O16   H10   1.013862 S    
C17   H3    1.083206 S    
N1    C30   1.444099 S    
