data_mof_unit_4364.cif
_audit_creation_date              2012-10-26T19:07:28-0400
_audit_creation_method            fapswitch 2.2
_symmetry_space_group_name_H-M    P1
_symmetry_Int_Tables_number       1
_space_group_crystal_system       triclinic
_cell_length_a                    14.945887
_cell_length_b                    13.896071
_cell_length_c                    10.592557
_cell_angle_alpha                 89.505156
_cell_angle_beta                  86.300669
_cell_angle_gamma                 90.148089
_cell_volume                      2195.28204758

loop_
_atom_site_label
_atom_site_type_symbol
_atom_type_description
_atom_site_fract_x
_atom_site_fract_y
_atom_site_fract_z
_atom_type_partial_charge
C1    C     C_R   0.329235 0.499885 0.499734 0.518119
C2    C     C_R   0.962756 0.498213 0.269458 -0.128155
C3    C     C_R   0.444962 0.793859 0.586599 0.254794
C4    C     C_R   0.559683 0.208250 0.419390 0.253895
C5    C     C_R   0.554761 0.794382 0.410950 0.247579
C6    C     C_R   0.439673 0.205094 0.579591 0.246266
C7    C     C_R   0.562244 0.897895 0.416868 -0.031617
C8    C     C_R   0.445811 0.102236 0.588802 -0.030610
C9    C     C_R   0.438204 0.896563 0.576930 -0.014294
C10   C     C_R   0.556436 0.105111 0.409393 -0.005999
C11   C     C_R   0.501314 0.948624 0.498252 -0.031953
C12   C     C_R   0.670757 0.500089 0.499895 0.528586
C13   C     C_R   0.501951 0.052207 0.499442 -0.034235
C14   C     C_R   0.623981 0.953466 0.337285 0.012573
C15   C     C_R   0.390923 0.046577 0.676439 0.015202
C16   C     C_R   0.372293 0.950410 0.647556 0.037789
C17   C     C_R   0.606073 0.051943 0.314541 0.045608
C18   C     C_R   0.500213 0.500201 0.259533 0.533919
C19   C     C_R   0.500076 0.499831 0.740426 0.522439
C20   C     C_3   0.435756 0.559665 0.047103 -0.115102
C21   C     C_3   0.564411 0.440726 0.952838 -0.125912
C22   C     C_3   0.516001 0.589932 0.955956 -0.101514
C23   C     C_R   0.953015 0.498146 0.500360 0.014169
C24   C     C_3   0.484115 0.410480 0.043899 -0.119863
C25   C     C_3   0.419611 0.470029 0.966198 -0.140388
C26   C     C_3   0.580535 0.530434 0.033713 -0.127747
C27   C     C_3   0.499883 0.500062 0.877363 0.043138
C28   C     C_3   0.500287 0.500267 0.122565 0.046463
C29   C     C_R   0.818010 0.499082 0.385369 -0.155642
C30   C     C_R   0.181887 0.499413 0.614244 -0.145153
C31   C     C_R   0.767004 0.500255 0.500116 -0.020252
C32   C     C_R   0.232951 0.499545 0.499489 -0.012018
C33   C     C_R   0.807333 0.500893 0.615161 -0.127099
C34   C     C_R   0.046890 0.497942 0.499262 0.013462
C35   C     C_R   0.192614 0.499225 0.384406 -0.122262
C36   C     C_R   0.900851 0.499051 0.617117 0.045514
C37   C     C_R   0.099065 0.497680 0.382498 0.045316
C38   C     C_3   0.864823 0.407934 0.899404 -0.328302
C39   C     C_3   0.133643 0.404092 0.103358 -0.325471
C40   C     C_3   0.330786 0.694820 0.713887 -0.244697
C41   C     C_3   0.718565 0.249375 0.388975 -0.292380
C42   C     C_3   0.670051 0.696533 0.287552 -0.253842
C43   C     C_3   0.351387 0.300548 0.742993 -0.256757
C44   C     C_3   0.715839 0.914344 0.294287 -0.275434
C45   C     C_R   0.911173 0.498391 0.384485 -0.012493
C46   C     C_3   0.793595 0.984541 0.308711 -0.453009
C47   C     C_3   0.362832 0.082121 0.808364 -0.274841
C48   C     C_3   0.373857 0.006745 0.912653 -0.454976
C49   C     C_3   0.274882 0.918631 0.665064 -0.268479
C50   C     C_3   0.236699 0.892437 0.539235 -0.441273
C51   C     C_3   0.626101 0.090664 0.180407 -0.269938
C52   C     C_3   0.540264 0.121072 0.120255 -0.455314
C53   C     C_R   0.088726 0.498998 0.615117 -0.008644
C54   C     C_R   0.943435 0.499443 0.732437 0.139380
C55   C     C_R   0.056462 0.497310 0.267183 0.138994
C56   C     C_R   0.037141 0.500001 0.730137 -0.126687
Cu1   Cu    Cu3+1 0.500000 0.597420 0.500000 0.963697
Cu2   Cu    Cu3+1 0.500000 0.402580 0.500000 0.959298
H1    H     H_    0.353129 0.446292 0.937207 0.081246
H2    H     H_    0.234770 0.500391 0.297193 0.137342
H3    H     H_    0.069670 0.500755 0.818749 0.099163
H4    H     H_    0.930229 0.498340 0.180834 0.099272
H5    H     H_    0.922381 0.541833 0.918410 0.240329
H6    H     H_    0.924324 0.364563 0.921483 0.135978
H7    H     H_    0.826089 0.369117 0.829546 0.150586
H8    H     H_    0.821166 0.416618 0.987442 0.129842
H9    H     H_    0.078001 0.538374 0.079802 0.240153
H10   H     H_    0.073468 0.360980 0.083482 0.135359
H11   H     H_    0.172254 0.365571 0.174257 0.156542
H12   H     H_    0.646972 0.554582 0.062414 0.093540
H13   H     H_    0.176949 0.411765 0.014598 0.127366
H14   H     H_    0.426074 0.787439 0.782930 0.218410
H15   H     H_    0.290007 0.716339 0.800307 0.077960
H16   H     H_    0.343196 0.617297 0.728307 0.169056
H17   H     H_    0.291107 0.705836 0.630178 0.159764
H18   H     H_    0.618842 0.279974 0.259462 0.238716
H19   H     H_    0.742962 0.176793 0.363587 0.117181
H20   H     H_    0.763543 0.303102 0.339363 0.135442
H21   H     H_    0.721935 0.258526 0.492644 0.167694
H22   H     H_    0.571451 0.783875 0.214471 0.224216
H23   H     H_    0.383172 0.608326 0.088754 0.114075
H24   H     H_    0.713958 0.724916 0.207248 0.081371
H25   H     H_    0.659106 0.619779 0.266957 0.164511
H26   H     H_    0.706161 0.702350 0.375348 0.157356
H27   H     H_    0.300282 0.213147 0.604671 0.227944
H28   H     H_    0.334677 0.377024 0.727368 0.163752
H29   H     H_    0.414240 0.295451 0.792761 0.152786
H30   H     H_    0.295680 0.270735 0.805865 0.077905
H31   H     H_    0.794338 0.042769 0.236622 0.137512
H32   H     H_    0.789678 0.015477 0.405253 0.151133
H33   H     H_    0.858145 0.945415 0.294657 0.133972
H34   H     H_    0.616997 0.392035 0.911222 0.104088
H35   H     H_    0.731699 0.854567 0.357750 0.155408
H36   H     H_    0.716397 0.890086 0.194730 0.134530
H37   H     H_    0.326015 0.946255 0.905925 0.143444
H38   H     H_    0.443458 0.978447 0.907247 0.149359
H39   H     H_    0.359702 0.040530 0.006375 0.130385
H40   H     H_    0.407702 0.141405 0.832501 0.148969
H41   H     H_    0.292105 0.106474 0.812557 0.134295
H42   H     H_    0.238596 0.956364 0.475386 0.149067
H43   H     H_    0.275279 0.833650 0.491315 0.156667
H44   H     H_    0.165968 0.868553 0.556313 0.133505
H45   H     H_    0.529092 0.663556 0.917482 0.124497
H46   H     H_    0.265395 0.860522 0.734919 0.138816
H47   H     H_    0.232307 0.977895 0.704760 0.136885
H48   H     H_    0.493686 0.058824 0.119265 0.150950
H49   H     H_    0.506264 0.180386 0.173424 0.148205
H50   H     H_    0.556360 0.145808 0.021392 0.130449
H51   H     H_    0.675798 0.149605 0.175460 0.133567
H52   H     H_    0.656563 0.033892 0.118446 0.141247
H53   H     H_    0.470605 0.336973 0.082195 0.109042
H54   H     H_    0.784926 0.498513 0.297150 0.083479
H55   H     H_    0.214829 0.499983 0.702529 0.071115
H56   H     H_    0.765177 0.502806 0.702304 0.138689
N1    N     N_R   0.500000 0.743810 0.500000 -0.192490
N2    N     N_R   0.500000 0.256190 0.500000 -0.198337
N3    N     N_2   0.892728 0.501676 0.850943 -0.530347
N4    N     N_2   0.107158 0.498384 0.148600 -0.532248
N5    N     N_2   0.414859 0.747921 0.703407 -0.470715
N6    N     N_2   0.627662 0.263486 0.352732 -0.459618
N7    N     N_2   0.585068 0.747410 0.296260 -0.467988
N8    N     N_2   0.357677 0.250501 0.623112 -0.464042
O1    O     O_R   0.370260 0.582280 0.500030 -0.509456
O2    O     O_R   0.629740 0.417720 0.499970 -0.472412
O3    O     O_R   0.629740 0.582280 0.499970 -0.504509
O4    O     O_R   0.370260 0.417720 0.500030 -0.467354
O5    O     O_R   0.499980 0.582260 0.316850 -0.474637
O6    O     O_R   0.500020 0.417740 0.683150 -0.513475
O7    O     O_R   0.500020 0.582260 0.683150 -0.477266
O8    O     O_R   0.499980 0.417740 0.316850 -0.503084

loop_
_geom_bond_atom_site_label_1
_geom_bond_atom_site_label_2
_ccdc_geom_bond_type
C19   O7    A    
C21   C26   S    
Cu2   O6    S    
C8    C13   A    
C23   C45   A    
C48   H37   S    
C55   N4    S    
C34   C37   A    
C39   H10   S    
C29   H54   S    
C42   H24   S    
C15   C47   S    
C17   C51   S    
C49   H46   S    
C1    O4    A    
Cu1   N1    S    
C46   H31   S    
C7    C11   A    
C48   H39   S    
C33   H56   S    
H18   N6    S    
C47   H40   S    
C43   H30   S    
Cu1   O7    S    
C35   C37   A    
C9    C16   A    
C2    C55   A    
C41   H19   S    
H5    N3    S    
C20   C25   S    
C10   C17   A    
C15   C16   A    
C23   C36   A    
C5    N7    S    
C19   O6    A    
C33   C36   A    
C47   H41   S    
C40   H15   S    
C44   H35   S    
C38   N3    S    
C7    C14   A    
C38   H8    S    
C52   H49   S    
C31   C33   A    
C19   C27   S    
C21   C27   S    
C52   H48   S    
C51   H51   S    
C36   C54   A    
C20   H23   S    
C5    N1    A    
Cu2   N2    S    
C14   C17   A    
C24   H53   S    
C26   C28   S    
C44   C46   S    
C38   H6    S    
H22   N7    S    
C2    C45   A    
C30   C53   A    
C54   C56   A    
C51   C52   S    
C32   C35   A    
C18   C28   S    
C24   C25   S    
C41   H20   S    
C5    C7    A    
C49   H47   S    
C46   H33   S    
C20   C28   S    
C1    C32   S    
C22   H45   S    
C29   C45   A    
C35   H2    S    
C1    O1    A    
C41   H21   S    
C3    C9    A    
C18   O5    A    
Cu1   O1    S    
C47   C48   S    
C12   O2    A    
C38   H7    S    
C23   C34   A    
C39   H11   S    
C42   H26   S    
H27   N8    S    
C16   C49   S    
C9    C11   A    
C43   N8    S    
C6    N2    A    
C3    N5    S    
C50   H43   S    
C20   C22   S    
Cu2   O4    S    
C51   H52   S    
C22   C27   S    
C12   C31   S    
C26   H12   S    
C18   O8    A    
C6    N8    S    
C4    C10   A    
C14   C44   S    
C53   C56   A    
C48   H38   S    
C43   H28   S    
Cu2   O2    S    
C4    N2    A    
C8    C15   A    
C42   H25   S    
C24   C28   S    
C10   C13   A    
Cu1   O5    S    
C6    C8    A    
C50   H44   S    
C46   H32   S    
C25   C27   S    
C39   N4    S    
C50   H42   S    
C12   O3    A    
C40   H17   S    
C43   H29   S    
C29   C31   A    
C3    N1    A    
Cu1   O3    S    
C30   C32   A    
C11   C13   A    
Cu1   Cu2   S    
Cu2   O8    S    
H14   N5    S    
C40   H16   S    
C41   N6    S    
H9    N4    S    
C44   H36   S    
C37   C55   A    
C40   N5    S    
C52   H50   S    
C34   C53   A    
C49   C50   S    
C22   C26   S    
C21   C24   S    
C39   H13   S    
C56   H3    S    
C4    N6    S    
C25   H1    S    
C54   N3    S    
C30   H55   S    
C2    H4    S    
C42   N7    S    
C21   H34   S    
