data_mof_unit_2335.cif
_audit_creation_date              2012-10-26T19:03:28-0400
_audit_creation_method            fapswitch 2.2
_symmetry_space_group_name_H-M    P1
_symmetry_Int_Tables_number       1
_space_group_crystal_system       triclinic
_cell_length_a                    10.764356
_cell_length_b                    13.030271
_cell_length_c                    11.670783
_cell_angle_alpha                 99.182361
_cell_angle_beta                  93.61396
_cell_angle_gamma                 90.537742
_cell_volume                      1612.46814421

loop_
_atom_site_label
_atom_site_type_symbol
_atom_type_description
_atom_site_fract_x
_atom_site_fract_y
_atom_site_fract_z
_atom_type_partial_charge
C1    C     C_R   0.505945 0.299758 0.478906 0.565172
C2    C     C_R   0.585391 0.134229 0.368982 0.025574
C3    C     C_R   0.500991 0.137199 0.558161 -0.158071
C4    C     C_R   0.262668 0.500905 0.500462 0.535600
C5    C     C_R   0.517280 0.030953 0.550487 0.021458
C6    C     C_R   0.565289 0.973080 0.450052 0.006867
C7    C     C_R   0.561497 0.862905 0.438080 0.068184
C8    C     C_R   0.486979 0.875333 0.633254 -0.115883
C9    C     C_R   0.483071 0.982291 0.642360 -0.094769
C10   C     C_R   0.365210 0.414577 0.025052 0.103320
C11   C     C_R   0.381932 0.422553 0.147913 0.089504
C12   C     C_R   0.065730 0.598660 0.499693 -0.011630
C13   C     C_R   0.560447 0.530877 0.153982 0.045181
C14   C     C_R   0.547830 0.527710 0.032274 -0.028899
C15   C     C_R   0.449710 0.468882 0.966576 0.021948
C16   C     C_R   0.507373 0.700876 0.520316 0.525963
C17   C     C_R   0.440950 0.465071 0.843767 0.056769
C18   C     C_R   0.616719 0.577642 0.853985 0.050671
C19   C     C_R   0.631218 0.582324 0.975092 -0.170097
C20   C     C_R   0.737434 0.498175 0.499684 0.587296
C21   C     C_R   0.129214 0.693426 0.495695 -0.104618
C22   C     C_R   0.064172 0.786658 0.497535 0.059786
C23   C     C_R   0.129315 0.504659 0.501234 -0.010959
C24   C     C_R   0.935164 0.785230 0.506514 -0.083960
C25   C     C_R   0.871396 0.692146 0.508821 -0.105485
C26   C     C_R   0.935062 0.597538 0.502772 -0.020834
C27   C     C_2   0.623901 0.188813 0.274119 0.624201
C28   C     C_3   0.194656 0.281882 0.013477 -0.299156
C29   C     C_2   0.130220 0.885523 0.489739 0.581968
C30   C     C_3   0.853462 0.289690 0.618559 -0.285313
C31   C     C_2   0.587073 0.799179 0.325712 0.603289
C32   C     C_2   0.700237 0.980660 0.279805 0.598323
C33   C     C_R   0.065607 0.411534 0.503379 -0.141823
C34   C     C_R   0.936738 0.409214 0.503662 0.118843
C35   C     C_R   0.871506 0.501831 0.501149 0.045641
C36   C     C_R   0.520410 0.814476 0.530355 -0.009835
C37   C     C_R   0.528867 0.188297 0.466656 -0.041569
C38   C     C_R   0.610678 0.027829 0.364007 0.042083
Cu1   Cu    Cu3+1 0.509250 0.507730 0.615930 0.931315
Cu2   Cu    Cu3+1 0.490750 0.492270 0.384070 1.017696
H1    H     H_    0.116473 0.340200 0.504723 0.110306
H2    H     H_    0.882733 0.856075 0.510659 0.197138
H3    H     H_    0.771868 0.695097 0.515891 0.138125
H4    H     H_    0.456515 0.839801 0.704784 0.146966
H5    H     H_    0.592926 0.211200 0.107795 0.336799
H6    H     H_    0.210418 0.395152 0.906255 0.247042
H7    H     H_    0.132228 0.233735 0.946013 0.157611
H8    H     H_    0.136413 0.323891 0.080383 0.145975
H9    H     H_    0.259049 0.229047 0.052808 0.181792
H10   H     H_    0.121597 0.041193 0.497602 0.339143
H11   H     H_    0.911189 0.251227 0.452345 0.282905
H12   H     H_    0.449903 0.027001 0.720591 0.126521
H13   H     H_    0.944311 0.278622 0.665356 0.133966
H14   H     H_    0.796677 0.216969 0.610425 0.160522
H15   H     H_    0.802950 0.353161 0.669981 0.179122
H16   H     H_    0.532604 0.755846 0.156242 0.336905
H17   H     H_    0.867257 0.914398 0.256475 0.356194
H18   H     H_    0.461639 0.179938 0.634570 0.133852
H19   H     H_    0.369592 0.417987 0.789988 0.135830
H20   H     H_    0.681424 0.620040 0.810820 0.134226
H21   H     H_    0.706990 0.628591 0.023709 0.121893
H22   H     H_    0.318427 0.383422 0.195350 0.137517
H23   H     H_    0.637202 0.573637 0.204216 0.177866
H24   H     H_    0.229314 0.695324 0.491304 0.154950
N1    N     N_R   0.523180 0.519350 0.790130 -0.238682
N2    N     N_R   0.476820 0.480650 0.209890 -0.250944
N3    N     N_2   0.264094 0.355198 0.960060 -0.547226
N4    N     N_2   0.872806 0.313081 0.503878 -0.478560
O1    O     O_R   0.506570 0.354460 0.582000 -0.515810
O2    O     O_R   0.559620 0.168378 0.164844 -0.657199
O3    O     O_2   0.239975 0.885320 0.468423 -0.518382
O4    O     O_R   0.066645 0.979374 0.505401 -0.689102
O5    O     O_2   0.681844 0.748457 0.317410 -0.549531
O6    O     O_R   0.503634 0.799585 0.229058 -0.646679
O7    O     O_2   0.675172 0.973480 0.175134 -0.460038
O8    O     O_R   0.813863 0.945199 0.321394 -0.679270
O9    O     O_R   0.490940 0.341410 0.386200 -0.478697
O10   O     O_R   0.327470 0.506530 0.597920 -0.507816
O11   O     O_R   0.311840 0.493480 0.402120 -0.510858
O12   O     O_R   0.509060 0.658590 0.613800 -0.517727
O13   O     O_R   0.493430 0.645540 0.418000 -0.472207
O14   O     O_R   0.688160 0.506520 0.597880 -0.530368
O15   O     O_R   0.672530 0.493470 0.402080 -0.468455
O16   O     O_2   0.710347 0.251970 0.292015 -0.499368

loop_
_geom_bond_atom_site_label_1
_geom_bond_atom_site_label_2
_ccdc_geom_bond_type
C28   H7    S    
C22   C29   S    
C20   O14   A    
C1    O9    A    
C7    C36   A    
C11   H22   S    
C25   H3    S    
C32   O7    D    
C10   N3    S    
C18   N1    A    
C4    O10   A    
C30   H14   S    
C12   C23   A    
H17   O8    S    
C27   O16   D    
C18   C19   A    
C10   C15   A    
C5    C6    A    
C31   O5    D    
C24   H2    S    
C34   C35   A    
C8    C36   A    
H10   O4    S    
C21   H24   S    
C20   C35   S    
C8    C9    A    
C23   C33   A    
C6    C38   A    
C2    C27   S    
C32   C38   S    
C11   N2    A    
C1    C37   S    
C29   O4    S    
Cu2   N2    S    
C21   C22   A    
Cu1   N1    S    
Cu2   O15   S    
C9    H12   S    
C14   C19   A    
C13   N2    A    
C30   H13   S    
C7    C31   S    
Cu1   O10   S    
C28   N3    S    
H16   O6    S    
C24   C25   A    
C4    O11   A    
C34   N4    S    
Cu1   Cu2   S    
C4    C23   S    
C31   O6    S    
C25   C26   A    
C12   C21   A    
C1    O1    A    
C12   C26   A    
C16   O12   A    
C5    C9    A    
C28   H9    S    
C2    C38   A    
C13   H23   S    
C33   C34   A    
Cu1   O1    S    
Cu2   O11   S    
C27   O2    S    
C17   H19   S    
C18   H20   S    
C22   C24   A    
C15   C17   A    
C28   H8    S    
H5    O2    S    
C14   C15   A    
Cu2   O13   S    
C8    H4    S    
Cu1   O14   S    
C3    C5    A    
C32   O8    S    
C6    C7    A    
C30   H15   S    
C17   N1    A    
C33   H1    S    
Cu1   O12   S    
H6    N3    S    
C16   C36   S    
C2    C37   A    
C19   H21   S    
C16   O13   A    
H11   N4    S    
C10   C11   A    
C3    H18   S    
C26   C35   A    
C3    C37   A    
C20   O15   A    
Cu2   O9    S    
C13   C14   A    
C30   N4    S    
C29   O3    D    
