data_mof_unit_3243.cif
_audit_creation_date              2012-10-26T21:24:51-0400
_audit_creation_method            fapswitch 2.2
_symmetry_space_group_name_H-M    P1
_symmetry_Int_Tables_number       1
_space_group_crystal_system       triclinic
_cell_length_a                    9.546081
_cell_length_b                    10.860788
_cell_length_c                    15.473478
_cell_angle_alpha                 89.858203
_cell_angle_beta                  74.532369
_cell_angle_gamma                 90.023745
_cell_volume                      1546.14876389

loop_
_atom_site_label
_atom_site_type_symbol
_atom_type_description
_atom_site_fract_x
_atom_site_fract_y
_atom_site_fract_z
_atom_type_partial_charge
C1    C     C_R   0.999955 0.262705 0.499707 0.552620
C2    C     C_R   0.231177 0.565547 0.046506 0.048665
C3    C     C_R   0.329017 0.520375 0.093774 0.034391
C4    C     C_R   0.918360 0.499540 0.672179 0.546117
C5    C     C_R   0.084379 0.584751 0.090997 -0.144206
C6    C     C_R   0.033177 0.560406 0.182320 -0.141533
C7    C     C_R   0.272297 0.489724 0.184754 -0.134454
C8    C     C_R   0.118960 0.062036 0.504001 0.021393
C9    C     C_R   0.999061 0.130097 0.497959 0.010013
C10   C     C_R   0.875322 0.064561 0.489984 -0.162604
C11   C     C_R   0.875482 0.935368 0.489767 -0.162577
C12   C     C_R   0.676162 0.510654 0.908721 0.032699
C13   C     C_R   0.999365 0.869907 0.497569 0.008992
C14   C     C_R   0.119212 0.938073 0.503689 0.020630
C15   C     C_3   0.268153 0.929330 0.516502 -0.265350
C16   C     C_R   0.000100 0.737293 0.499459 0.552320
C17   C     C_3   0.267763 0.071124 0.516917 -0.272075
C18   C     C_R   0.591416 0.593091 0.459245 0.156155
C19   C     C_R   0.553755 0.415140 0.547706 -0.015618
C20   C     C_R   0.404846 0.415198 0.547769 -0.018824
C21   C     C_R   0.443993 0.593193 0.459283 0.157839
C22   C     C_3   0.480460 0.627922 0.362538 -0.273000
C23   C     C_R   0.777198 0.479294 0.957733 0.049816
C24   C     C_3   0.639204 0.627277 0.362575 -0.283671
C25   C     C_R   0.081710 0.501547 0.327850 0.546003
C26   C     C_R   0.873438 0.497241 0.770636 -0.002294
C27   C     C_R   0.127391 0.513909 0.229832 -0.001075
C28   C     C_R   0.924460 0.461360 0.913418 -0.142699
C29   C     C_R   0.972637 0.471494 0.820465 -0.140689
C30   C     C_R   0.727018 0.516826 0.814808 -0.134876
C31   C     C_R   0.527400 0.530922 0.954792 0.032538
C32   C     C_R   0.479577 0.508161 0.048794 0.034359
C33   C     C_R   0.584486 0.477839 0.095089 -0.138249
C34   C     C_R   0.730314 0.464883 0.050319 -0.139485
C35   C     C_R   0.425587 0.575482 0.910351 -0.140767
C36   C     C_R   0.280818 0.592954 0.955658 -0.140549
Cu1   Cu    Cu3+1 0.140670 0.499980 0.500000 0.934361
Cu2   Cu    Cu3+1 0.859330 0.500020 0.500000 0.932083
H1    H     H_    0.806745 0.441710 0.088550 0.110089
H2    H     H_    0.454010 0.554387 0.319871 0.147695
H3    H     H_    0.338351 0.446377 0.222528 0.110411
H4    H     H_    0.439649 0.720888 0.351718 0.121944
H5    H     H_    0.701364 0.552404 0.320644 0.143603
H6    H     H_    0.690691 0.719862 0.351793 0.120728
H7    H     H_    0.921317 0.581157 0.215888 0.115730
H8    H     H_    0.207058 0.628530 0.919122 0.110519
H9    H     H_    0.002063 0.437456 0.950582 0.114532
H10   H     H_    0.086369 0.455708 0.787545 0.126073
H11   H     H_    0.558578 0.466578 0.166719 0.095032
H12   H     H_    0.009873 0.621626 0.055544 0.112043
H13   H     H_    0.454712 0.602190 0.840798 0.103721
H14   H     H_    0.268020 0.887921 0.582293 0.141628
H15   H     H_    0.653802 0.532849 0.773889 0.122602
H16   H     H_    0.778541 0.112328 0.484372 0.132395
H17   H     H_    0.778802 0.887535 0.483998 0.132618
H18   H     H_    0.347511 0.889251 0.457364 0.131828
H19   H     H_    0.267172 0.111192 0.583040 0.127711
H20   H     H_    0.346771 0.112890 0.458042 0.140286
H21   H     H_    0.593356 0.345003 0.584962 0.115846
H22   H     H_    0.332838 0.345299 0.585182 0.109283
N1    N     N_R   0.648210 0.500930 0.499430 -0.230620
N2    N     N_R   0.352300 0.500890 0.499430 -0.230840
O1    O     O_R   0.118810 0.319640 0.500000 -0.504303
O2    O     O_R   0.881230 0.319680 0.499990 -0.512499
O3    O     O_R   0.055580 0.499970 0.629840 -0.503615
O4    O     O_R   0.818000 0.500010 0.629830 -0.507183
O5    O     O_R   0.118770 0.680320 0.500010 -0.496793
O6    O     O_R   0.881190 0.680360 0.500000 -0.506273
O7    O     O_R   0.182000 0.499990 0.370170 -0.507823
O8    O     O_R   0.944420 0.500030 0.370160 -0.502764

loop_
_geom_bond_atom_site_label_1
_geom_bond_atom_site_label_2
_ccdc_geom_bond_type
Cu1   N2    S    
C4    C26   S    
Cu2   O8    S    
C18   N1    A    
C36   H8    S    
Cu1   Cu2   S    
C16   O6    A    
C6    H7    S    
Cu1   O7    S    
C25   C27   S    
C18   C21   A    
C9    C10   A    
C3    C7    A    
C8    C17   S    
C14   C15   S    
C6    C27   A    
C17   H20   S    
C23   C34   A    
C22   H2    S    
C15   H18   S    
Cu2   N1    S    
C33   C34   A    
C1    C9    S    
C3    C32   A    
C28   H9    S    
C16   O5    A    
C13   C14   A    
C32   C33   A    
C4    O4    A    
C11   C13   A    
C12   C23   A    
C21   N2    A    
C22   H4    S    
C35   C36   A    
C19   N1    A    
C18   C24   S    
Cu1   O5    S    
C22   C24   S    
C21   C22   S    
C28   C29   A    
Cu1   O1    S    
Cu2   O6    S    
C2    C3    A    
Cu2   O2    S    
C7    H3    S    
C12   C31   A    
C35   H13   S    
C5    C6    A    
C24   H6    S    
C30   H15   S    
C31   C35   A    
C5    H12   S    
C2    C5    A    
C25   O7    A    
C10   C11   A    
C10   H16   S    
C33   H11   S    
C34   H1    S    
C1    O2    A    
C1    O1    A    
C11   H17   S    
C7    C27   A    
C26   C29   A    
C13   C16   S    
C2    C36   A    
C15   C17   S    
C24   H5    S    
Cu2   O4    S    
C4    O3    A    
C8    C9    A    
C8    C14   A    
C25   O8    A    
C29   H10   S    
C19   H21   S    
C20   H22   S    
C15   H14   S    
C12   C30   A    
C31   C32   A    
C23   C28   A    
C19   C20   A    
C17   H19   S    
C20   N2    A    
C26   C30   A    
Cu1   O3    S    
