data_mof_unit_2578.cif
_audit_creation_date              2012-12-10T17:45:36-0500
_audit_creation_method            fapswitch 2.2
_symmetry_space_group_name_H-M    P1
_symmetry_Int_Tables_number       1
_space_group_crystal_system       triclinic
_cell_length_a                    11.520592
_cell_length_b                    10.698928
_cell_length_c                    9.996526
_cell_angle_alpha                 90.972888
_cell_angle_beta                  91.024231
_cell_angle_gamma                 93.513365
_cell_volume                      1229.43766038

loop_
_atom_site_label
_atom_site_type_symbol
_atom_type_description
_atom_site_fract_x
_atom_site_fract_y
_atom_site_fract_z
_atom_type_partial_charge
C1    C     C_R   0.500352 0.260299 0.498555 0.930938
C2    C     C_R   0.513189 0.871348 0.504602 -0.230068
C3    C     C_R   0.306863 0.391253 0.131502 0.531353
C4    C     C_R   0.282352 0.501045 0.498986 0.964684
C5    C     C_R   0.201348 0.373113 0.062995 0.532185
C6    C     C_R   0.199863 0.375002 0.925059 -0.402291
C7    C     C_R   0.306350 0.382995 0.858394 0.173487
C8    C     C_R   0.404808 0.445448 0.925364 0.014078
C9    C     C_R   0.405005 0.447133 0.069084 -0.075849
C10   C     C_R   0.590569 0.551695 0.073967 -0.075599
C11   C     C_R   0.590401 0.552022 0.931513 -0.066761
C12   C     C_R   0.791911 0.096516 0.680968 0.616016
C13   C     C_R   0.507407 0.739005 0.501547 1.045875
C14   C     C_R   0.717749 0.500296 0.500933 0.925238
C15   C     C_1   0.161824 0.502545 0.497144 -0.125926
C16   C     C_1   0.059538 0.502698 0.498320 0.048675
C17   C     C_1   0.940763 0.501929 0.501093 0.057984
C18   C     C_1   0.838421 0.501068 0.502413 -0.104024
C19   C     C_R   0.697942 0.150397 0.620324 -0.253015
C20   C     C_3   0.354809 0.078026 0.200514 -0.533942
C21   C     C_3   0.226221 0.224044 0.690599 -0.694242
C22   C     C_R   0.795690 0.967127 0.682972 -0.283189
C23   C     C_R   0.705527 0.890605 0.624858 0.549019
C24   C     C_R   0.607485 0.943751 0.564919 -0.109333
C25   C     C_R   0.604287 0.075098 0.562091 -0.095406
C26   C     C_R   0.509989 0.127670 0.495155 -0.161327
C27   C     C_R   0.423722 0.052251 0.425971 0.045745
C28   C     C_R   0.421966 0.924795 0.439296 0.512134
F1    F     F_    0.880981 0.170345 0.735479 -0.658950
F2    F     F_    0.717911 0.765583 0.625027 -0.687774
F3    F     F_    0.331272 0.851733 0.385505 -0.680112
F4    F     F_    0.316654 0.328521 0.245325 -0.624419
F5    F     F_    0.104811 0.330714 0.128157 -0.612891
H1    H     H_    0.119684 0.342813 0.874072 0.243705
H2    H     H_    0.385891 0.229918 0.789100 0.232307
H3    H     H_    0.257513 0.168473 0.605477 0.222191
H4    H     H_    0.164847 0.290609 0.650681 0.251249
H5    H     H_    0.180625 0.158548 0.760147 0.247490
H6    H     H_    0.664369 0.595144 0.880909 0.174802
H7    H     H_    0.701269 0.251286 0.616996 0.175101
H8    H     H_    0.869880 0.925587 0.728249 0.194502
H9    H     H_    0.664734 0.594558 0.129009 0.150339
H10   H     H_    0.254648 0.078276 0.370328 0.265642
H11   H     H_    0.283210 0.115769 0.140753 0.241432
H12   H     H_    0.353650 0.975878 0.178548 0.238321
H13   H     H_    0.438841 0.123327 0.168250 0.225238
N1    N     N_R   0.498930 0.498800 0.142780 -0.084496
N2    N     N_R   0.498900 0.498720 0.857170 -0.093232
N3    N     N_2   0.338443 0.103220 0.341989 -0.227072
N4    N     N_2   0.324695 0.290389 0.758189 -0.240029
O1    O     O_R   0.500000 0.316780 0.614690 -0.636028
O2    O     O_R   0.499990 0.316750 0.385360 -0.540621
O3    O     O_R   0.334450 0.500030 0.614670 -0.611889
O4    O     O_R   0.334440 0.500000 0.385330 -0.536958
O5    O     O_R   0.500010 0.683250 0.614640 -0.587823
O6    O     O_R   0.500000 0.683220 0.385310 -0.599576
O7    O     O_R   0.665560 0.500000 0.614670 -0.588140
O8    O     O_R   0.665550 0.499970 0.385330 -0.634637
Zn1   Zn    Zn3+2 0.500010 0.500020 0.653130 1.005114
Zn2   Zn    Zn3+2 0.499990 0.499980 0.346870 1.040778

loop_
_geom_bond_atom_site_label_1
_geom_bond_atom_site_label_2
_ccdc_geom_bond_type
C23   C24   A    
C8    N2    A    
C20   N3    S    
C3    C9    A    
O5    Zn1   S    
C12   F1    S    
C10   H9    S    
C1    C26   S    
C14   C18   S    
C20   H12   S    
C3    C5    A    
C13   O6    A    
H2    N4    S    
N1    Zn2   S    
C17   C18   T    
O3    Zn1   S    
C7    C8    A    
C21   H3    S    
O4    Zn2   S    
O6    Zn2   S    
C11   H6    S    
C1    O1    A    
C26   C27   A    
C6    C7    A    
C4    C15   S    
C27   N3    S    
C19   C25   A    
C5    C6    A    
C12   C19   A    
C21   N4    S    
C20   H11   S    
C9    N1    A    
C2    C24   A    
C3    F4    S    
C14   O8    A    
C1    O2    A    
O7    Zn1   S    
C22   H8    S    
O1    Zn1   S    
C10   C11   A    
O8    Zn2   S    
C15   C16   T    
C4    O3    A    
C23   F2    S    
C12   C22   A    
C27   C28   A    
C21   H4    S    
C24   C25   A    
N2    Zn1   S    
C16   C17   S    
C19   H7    S    
C10   N1    A    
C2    C13   S    
C14   O7    A    
C22   C23   A    
H10   N3    S    
C2    C28   A    
C11   N2    A    
O2    Zn2   S    
C4    O4    A    
C25   C26   A    
C28   F3    S    
C20   H13   S    
C21   H5    S    
C6    H1    S    
C7    N4    S    
C8    C9    A    
C13   O5    A    
C5    F5    S    
