data_mof_unit_3027.cif
_audit_creation_date              2012-12-11T14:44:22-0500
_audit_creation_method            fapswitch 2.2
_symmetry_space_group_name_H-M    P1
_symmetry_Int_Tables_number       1
_space_group_crystal_system       monoclinic
_cell_length_a                    24.889241
_cell_length_b                    16.719187
_cell_length_c                    15.57805
_cell_angle_alpha                 90.0
_cell_angle_beta                  49.776377
_cell_angle_gamma                 90.0
_cell_volume                      4949.55229871

loop_
_atom_site_label
_atom_site_type_symbol
_atom_type_description
_atom_site_fract_x
_atom_site_fract_y
_atom_site_fract_z
_atom_type_partial_charge
C1    C     C_R   0.352015 0.147051 0.757780 -0.128458
C2    C     C_3   0.697615 0.702334 0.607389 -0.243614
C3    C     C_3   0.588042 0.631308 0.639621 -0.427195
C4    C     C_3   0.565524 0.605205 0.572610 -0.270600
C5    C     C_3   0.489109 0.577063 0.650868 -0.869486
C6    C     C_3   0.645470 0.290247 0.637328 -0.416776
C7    C     C_3   0.626190 0.324989 0.569124 -0.274343
C8    C     C_3   0.554550 0.365954 0.645565 -0.867837
C9    C     C_3   0.411959 0.631309 0.360375 -0.427194
C10   C     C_3   0.434477 0.605205 0.427385 -0.270602
C11   C     C_3   0.510892 0.577064 0.349126 -0.869483
C12   C     C_3   0.854529 0.790248 0.362674 -0.416778
C13   C     C_3   0.751641 0.212069 0.606439 -0.241224
C14   C     C_3   0.873809 0.824988 0.430880 -0.274342
C15   C     C_3   0.945448 0.865956 0.354441 -0.867839
C16   C     C_3   0.088042 0.131309 0.639622 -0.427194
C17   C     C_3   0.065524 0.105205 0.572611 -0.270600
C18   C     C_3   0.989110 0.077063 0.650868 -0.869487
C19   C     C_3   0.145470 0.790247 0.637328 -0.416777
C20   C     C_3   0.126190 0.824989 0.569123 -0.274339
C21   C     C_3   0.054549 0.865953 0.645565 -0.867826
C22   C     C_3   0.911958 0.131310 0.360375 -0.427194
C23   C     C_3   0.934477 0.105206 0.427385 -0.270601
C24   C     C_3   0.302385 0.702336 0.392611 -0.243615
C25   C     C_3   0.010892 0.077064 0.349126 -0.869478
C26   C     C_3   0.748359 0.712070 0.393560 -0.241224
C27   C     C_3   0.197615 0.202335 0.607389 -0.243614
C28   C     C_3   0.251641 0.712069 0.606439 -0.241223
C29   C     C_3   0.802385 0.202336 0.392611 -0.243615
C30   C     C_2   0.641922 0.263183 0.143858 0.180212
C31   C     C_2   0.305834 0.841449 0.982671 0.188993
C32   C     C_2   0.358078 0.263183 0.856142 0.180212
C33   C     C_R   0.665858 0.886316 0.198145 -0.141709
C34   C     C_2   0.694166 0.841449 0.017329 0.188993
C35   C     C_2   0.141922 0.763183 0.143858 0.180211
C36   C     C_2   0.805834 0.341449 0.982671 0.188993
C37   C     C_2   0.858078 0.763183 0.856142 0.180211
C38   C     C_2   0.194166 0.341449 0.017329 0.188993
C39   C     C_2   0.685115 0.310014 0.145589 -0.161058
C40   C     C_2   0.237038 0.859753 0.048608 -0.150127
C41   C     C_2   0.314885 0.310014 0.854411 -0.161059
C42   C     C_2   0.762962 0.859753 0.951392 -0.150128
C43   C     C_2   0.185115 0.810014 0.145590 -0.161059
C44   C     C_R   0.647985 0.147051 0.242221 -0.128458
C45   C     C_2   0.737038 0.359753 0.048608 -0.150128
C46   C     C_2   0.814885 0.810014 0.854411 -0.161058
C47   C     C_2   0.262962 0.359753 0.951392 -0.150128
C48   C     C_R   0.614595 0.108949 0.592148 -0.152624
C49   C     C_R   0.414017 0.850012 0.407254 -0.131160
C50   C     C_R   0.385405 0.108949 0.407852 -0.152624
C51   C     C_R   0.585983 0.850012 0.592746 -0.131160
C52   C     C_R   0.114595 0.608949 0.592148 -0.152623
C53   C     C_R   0.914017 0.350012 0.407254 -0.131160
C54   C     C_R   0.885405 0.608949 0.407852 -0.152625
C55   C     C_R   0.334142 0.886316 0.801855 -0.141709
C56   C     C_R   0.085983 0.350012 0.592746 -0.131160
C57   C     C_R   0.689075 0.109525 0.405231 -0.159492
C58   C     C_R   0.337494 0.851991 0.594411 -0.121368
C59   C     C_R   0.310925 0.109524 0.594769 -0.159492
C60   C     C_R   0.662506 0.851991 0.405589 -0.121368
C61   C     C_R   0.189075 0.609525 0.405231 -0.159493
C62   C     C_R   0.837494 0.351991 0.594411 -0.121367
C63   C     C_R   0.810925 0.609524 0.594769 -0.159493
C64   C     C_R   0.162506 0.351991 0.405589 -0.121368
C65   C     C_R   0.558938 0.143041 0.240454 -0.093637
C66   C     C_R   0.852015 0.647051 0.757780 -0.128457
C67   C     C_R   0.422982 0.889771 0.802334 -0.106385
C68   C     C_R   0.441062 0.143041 0.759546 -0.093637
C69   C     C_R   0.577018 0.889771 0.197666 -0.106385
C70   C     C_R   0.058937 0.643041 0.240454 -0.093638
C71   C     C_R   0.922981 0.389771 0.802334 -0.106385
C72   C     C_R   0.941062 0.643041 0.759546 -0.093639
C73   C     C_R   0.077018 0.389771 0.197666 -0.106385
C74   C     C_R   0.384020 0.188571 0.791277 0.061247
C75   C     C_R   0.646555 0.867343 0.135061 0.077820
C76   C     C_R   0.615980 0.188571 0.208723 0.061247
C77   C     C_R   0.165858 0.386316 0.198145 -0.141709
C78   C     C_R   0.353445 0.867343 0.864939 0.077820
C79   C     C_R   0.884020 0.688571 0.791277 0.061246
C80   C     C_R   0.146555 0.367343 0.135061 0.077820
C81   C     C_R   0.115980 0.688571 0.208723 0.061247
C82   C     C_R   0.853445 0.367343 0.864939 0.077820
C83   C     C_R   0.681205 0.128855 0.498015 0.055584
C84   C     C_R   0.363363 0.806144 0.501538 0.032510
C85   C     C_R   0.318795 0.128855 0.501985 0.055584
C86   C     C_R   0.636637 0.806144 0.498461 0.032510
C87   C     C_R   0.181205 0.628855 0.498015 0.055584
C88   C     C_R   0.147985 0.647051 0.242221 -0.128458
C89   C     C_R   0.863363 0.306144 0.501538 0.032509
C90   C     C_R   0.818795 0.628854 0.501985 0.055584
C91   C     C_R   0.136637 0.306144 0.498461 0.032510
C92   C     C_3   0.284664 0.244502 0.437137 0.190519
C93   C     C_3   0.660661 0.670495 0.564281 0.191870
C94   C     C_3   0.715335 0.244502 0.562864 0.190518
C95   C     C_3   0.339339 0.670496 0.435718 0.191871
C96   C     C_3   0.784664 0.744502 0.437137 0.190519
C97   C     C_3   0.160661 0.170495 0.564281 0.191870
C98   C     C_3   0.215335 0.744502 0.562864 0.190518
C99   C     C_R   0.834142 0.386316 0.801855 -0.141709
C100  C     C_3   0.839339 0.170496 0.435717 0.191871
C101  C     C_3   0.715975 0.780528 0.541130 -0.185086
C102  C     C_3   0.230343 0.132905 0.459849 -0.200923
C103  C     C_3   0.284025 0.780528 0.458872 -0.185086
C104  C     C_3   0.769657 0.132905 0.540149 -0.200923
C105  C     C_3   0.215975 0.280528 0.541129 -0.185086
C106  C     C_3   0.730343 0.632905 0.459849 -0.200922
C107  C     C_3   0.784025 0.280529 0.458872 -0.185087
C108  C     C_3   0.269657 0.632905 0.540150 -0.200923
C109  C     C_3   0.679182 0.747838 0.498430 0.117764
C110  C     C_3   0.248359 0.212070 0.393560 -0.241224
C111  C     C_3   0.266884 0.166821 0.502301 0.119008
C112  C     C_3   0.320818 0.747838 0.501570 0.117764
C113  C     C_3   0.733116 0.166822 0.497699 0.119008
C114  C     C_3   0.179182 0.247838 0.498430 0.117764
C115  C     C_3   0.766884 0.666821 0.502301 0.119008
C116  C     C_3   0.820818 0.247838 0.501570 0.117764
C117  C     C_3   0.233116 0.666821 0.497699 0.119008
C118  C     C_3   0.354529 0.290247 0.362673 -0.416778
C119  C     C_3   0.373809 0.324989 0.430879 -0.274343
C120  C     C_3   0.445448 0.365956 0.354439 -0.867840
H1    H     H_    0.304959 0.163087 0.771539 0.129752
H2    H     H_    0.441247 0.834353 0.320658 0.114190
H3    H     H_    0.054579 0.914735 0.693939 0.267517
H4    H     H_    0.042621 0.891928 0.593903 0.246148
H5    H     H_    0.166441 0.869552 0.507826 0.194741
H6    H     H_    0.124556 0.776930 0.521697 0.213230
H7    H     H_    0.103247 0.749670 0.703861 0.201505
H8    H     H_    0.150515 0.839920 0.679140 0.199808
H9    H     H_    0.018586 0.027571 0.294628 0.270208
H10   H     H_    0.046503 0.127312 0.295314 0.274028
H11   H     H_    0.025083 0.055302 0.399530 0.241210
H12   H     H_    0.929220 0.155882 0.478527 0.209941
H13   H     H_    0.405812 0.107536 0.322010 0.106315
H14   H     H_    0.900026 0.055627 0.485189 0.200036
H15   H     H_    0.910596 0.078415 0.318622 0.194486
H16   H     H_    0.950439 0.175006 0.294448 0.208670
H17   H     H_    0.558753 0.834353 0.679342 0.114190
H18   H     H_    0.094188 0.607536 0.677990 0.106314
H19   H     H_    0.941247 0.334353 0.320658 0.114190
H20   H     H_    0.905812 0.607536 0.322010 0.106315
H21   H     H_    0.058753 0.334353 0.679342 0.114190
H22   H     H_    0.737143 0.108998 0.318489 0.119570
H23   H     H_    0.294108 0.838009 0.681261 0.115197
H24   H     H_    0.262857 0.108997 0.681511 0.119570
H25   H     H_    0.718691 0.887283 0.169217 0.122478
H26   H     H_    0.705892 0.838009 0.318739 0.115197
H27   H     H_    0.237143 0.608998 0.318489 0.119570
H28   H     H_    0.794108 0.338009 0.681261 0.115197
H29   H     H_    0.762857 0.608997 0.681511 0.119570
H30   H     H_    0.205892 0.338009 0.318739 0.115197
H31   H     H_    0.522735 0.157467 0.226658 0.126137
H32   H     H_    0.451364 0.893953 0.833059 0.124209
H33   H     H_    0.477264 0.157467 0.773343 0.126136
H34   H     H_    0.548636 0.893953 0.166941 0.124209
H35   H     H_    0.022735 0.657467 0.226658 0.126137
H36   H     H_    0.695041 0.163087 0.228462 0.129752
H37   H     H_    0.951364 0.393953 0.833059 0.124209
H38   H     H_    0.977264 0.657467 0.773342 0.126136
H39   H     H_    0.048636 0.393953 0.166941 0.124209
H40   H     H_    0.709624 0.841706 0.574445 0.128192
H41   H     H_    0.237202 0.071277 0.427610 0.125872
H42   H     H_    0.290374 0.841707 0.425558 0.128192
H43   H     H_    0.762799 0.071277 0.572388 0.125872
H44   H     H_    0.209625 0.341707 0.574444 0.128192
H45   H     H_    0.737202 0.571277 0.427609 0.125872
H46   H     H_    0.790374 0.341707 0.425558 0.128192
H47   H     H_    0.281309 0.887283 0.830783 0.122478
H48   H     H_    0.262799 0.571277 0.572388 0.125872
H49   H     H_    0.268530 0.216354 0.306029 0.153130
H50   H     H_    0.677236 0.698045 0.695037 0.155968
H51   H     H_    0.731471 0.216353 0.693970 0.153130
H52   H     H_    0.322763 0.698047 0.304963 0.155968
H53   H     H_    0.768530 0.716355 0.306029 0.153130
H54   H     H_    0.177236 0.198046 0.695037 0.155968
H55   H     H_    0.231471 0.716353 0.693970 0.153129
H56   H     H_    0.822763 0.198047 0.304963 0.155969
H57   H     H_    0.218096 0.900790 0.019371 0.153481
H58   H     H_    0.804959 0.663087 0.771538 0.129752
H59   H     H_    0.692793 0.298798 0.205672 0.145174
H60   H     H_    0.781904 0.900790 0.980629 0.153481
H61   H     H_    0.307208 0.298798 0.794328 0.145174
H62   H     H_    0.718096 0.400790 0.019371 0.153481
H63   H     H_    0.192793 0.798798 0.205672 0.145174
H64   H     H_    0.281904 0.400790 0.980629 0.153481
H65   H     H_    0.807207 0.798798 0.794328 0.145174
H66   H     H_    0.487108 0.321954 0.295178 0.277494
H67   H     H_    0.445415 0.414739 0.306070 0.267518
H68   H     H_    0.457377 0.391929 0.406101 0.246150
H69   H     H_    0.218691 0.387283 0.169217 0.122478
H70   H     H_    0.333558 0.369548 0.492180 0.194744
H71   H     H_    0.375447 0.276929 0.478300 0.213232
H72   H     H_    0.396752 0.249672 0.296140 0.201506
H73   H     H_    0.349484 0.339921 0.320863 0.199809
H74   H     H_    0.481415 0.527571 0.705367 0.270209
H75   H     H_    0.453499 0.627312 0.704679 0.274028
H76   H     H_    0.474919 0.555302 0.600463 0.241210
H77   H     H_    0.570782 0.655881 0.521468 0.209942
H78   H     H_    0.599976 0.555627 0.514806 0.200036
H79   H     H_    0.589404 0.578413 0.681374 0.194486
H80   H     H_    0.195041 0.663087 0.228462 0.129752
H81   H     H_    0.549561 0.675005 0.705549 0.208671
H82   H     H_    0.512891 0.321952 0.704824 0.277492
H83   H     H_    0.554582 0.414737 0.693935 0.267518
H84   H     H_    0.542621 0.391928 0.593903 0.246150
H85   H     H_    0.666441 0.369549 0.507823 0.194743
H86   H     H_    0.624553 0.276929 0.521701 0.213232
H87   H     H_    0.603248 0.249671 0.703861 0.201505
H88   H     H_    0.650516 0.339920 0.679139 0.199809
H89   H     H_    0.518586 0.527572 0.294627 0.270209
H90   H     H_    0.546503 0.627312 0.295315 0.274028
H91   H     H_    0.781309 0.387283 0.830783 0.122478
H92   H     H_    0.525083 0.555302 0.399530 0.241211
H93   H     H_    0.429220 0.655881 0.478527 0.209942
H94   H     H_    0.400026 0.555627 0.485189 0.200036
H95   H     H_    0.410596 0.578415 0.318622 0.194486
H96   H     H_    0.450439 0.675006 0.294448 0.208670
H97   H     H_    0.987108 0.821954 0.295180 0.277493
H98   H     H_    0.945415 0.914739 0.306073 0.267518
H99   H     H_    0.957376 0.891929 0.406103 0.246149
H100  H     H_    0.833557 0.869548 0.492182 0.194744
H101  H     H_    0.875446 0.776928 0.478301 0.213232
H102  H     H_    0.594188 0.107536 0.677990 0.106315
H103  H     H_    0.896752 0.749672 0.296141 0.201506
H104  H     H_    0.849484 0.839921 0.320864 0.199809
H105  H     H_    0.981415 0.027570 0.705367 0.270208
H106  H     H_    0.953499 0.127311 0.704679 0.274028
H107  H     H_    0.974920 0.055300 0.600464 0.241211
H108  H     H_    0.070782 0.155881 0.521468 0.209942
H109  H     H_    0.099976 0.055626 0.514807 0.200036
H110  H     H_    0.089404 0.078414 0.681376 0.194487
H111  H     H_    0.049561 0.175005 0.705549 0.208670
H112  H     H_    0.012890 0.821948 0.704821 0.277489
I1    I     I_    0.347469 0.763010 0.034984 -0.493332
I2    I     I_    0.623514 0.282334 0.029185 -0.493310
I3    I     I_    0.652530 0.763010 0.965016 -0.493331
I4    I     I_    0.376485 0.282333 0.970816 -0.493311
I5    I     I_    0.847469 0.263010 0.034984 -0.493332
I6    I     I_    0.123514 0.782334 0.029186 -0.493310
I7    I     I_    0.152530 0.263010 0.965016 -0.493331
I8    I     I_    0.876485 0.782333 0.970815 -0.493311
N1    N     N_R   0.389620 0.081040 0.705440 -0.043694
N2    N     N_R   0.417680 0.920160 0.443370 -0.041968
N3    N     N_R   0.417680 0.079840 0.443370 -0.041358
N4    N     N_R   0.582320 0.920160 0.556630 -0.041968
N5    N     N_R   0.082320 0.579840 0.556630 -0.041358
N6    N     N_R   0.917680 0.420160 0.443370 -0.041968
N7    N     N_R   0.917680 0.579840 0.443370 -0.041358
N8    N     N_R   0.082320 0.420160 0.556630 -0.041969
N9    N     N_R   0.627920 0.078930 0.443400 -0.039819
N10   N     N_R   0.372080 0.921070 0.556600 -0.039924
N11   N     N_R   0.372080 0.078930 0.556600 -0.039820
N12   N     N_R   0.610380 0.918960 0.294560 -0.041942
N13   N     N_R   0.627920 0.921070 0.443400 -0.039924
N14   N     N_R   0.127920 0.578930 0.443400 -0.039819
N15   N     N_R   0.872080 0.421070 0.556600 -0.039924
N16   N     N_R   0.872080 0.578930 0.556600 -0.039820
N17   N     N_R   0.127920 0.421070 0.443400 -0.039924
N18   N     N_R   0.555090 0.077730 0.294590 -0.047422
N19   N     N_R   0.444910 0.922270 0.705410 -0.045773
N20   N     N_R   0.444910 0.077730 0.705410 -0.047422
N21   N     N_R   0.555090 0.922270 0.294590 -0.045774
N22   N     N_R   0.055090 0.577730 0.294590 -0.047422
N23   N     N_R   0.610380 0.081040 0.294560 -0.043694
N24   N     N_R   0.944910 0.422270 0.705410 -0.045773
N25   N     N_R   0.944910 0.577730 0.705410 -0.047422
N26   N     N_R   0.055090 0.422270 0.294590 -0.045774
N27   N     N_R   0.389620 0.918960 0.705440 -0.041942
N28   N     N_R   0.889620 0.581040 0.705440 -0.043694
N29   N     N_R   0.110380 0.418960 0.294560 -0.041942
N30   N     N_R   0.110380 0.581040 0.294560 -0.043694
N31   N     N_R   0.889620 0.418960 0.705440 -0.041942
N32   N     N_R   0.582320 0.079840 0.556630 -0.041358
Ni1   Ni    Ni4+2 0.382970 1.000000 0.629840 0.222474
Ni2   Ni    Ni4+2 0.617030 1.000000 0.370160 0.222474
Ni3   Ni    Ni4+2 0.882970 0.500000 0.629840 0.222474
Ni4   Ni    Ni4+2 0.117030 0.500000 0.370160 0.222474
Ni5   Ni    Ni4+2 0.514540 1.000000 0.629840 0.214952
Ni6   Ni    Ni4+2 0.485460 1.000000 0.370160 0.214952
Ni7   Ni    Ni4+2 0.014540 0.500000 0.629840 0.214952
Ni8   Ni    Ni4+2 0.985460 0.500000 0.370160 0.214952

loop_
_geom_bond_atom_site_label_1
_geom_bond_atom_site_label_2
_ccdc_geom_bond_type
C65   H31   S    
C61   N14   A    
N20   Ni5   S    
N1    N20   A    
N12   Ni2   S    
C82   C99   A    
C83   C113  S    
C14   H101  S    
N18   N23   A    
C100  C116  S    
C119  H70   S    
C55   H47   S    
C13   C116  S    
C7    H85   S    
C25   H9    S    
C52   N5    A    
C26   C106  S    
C44   N23   A    
C49   N2    A    
C35   C81   S    
C106  C115  S    
C7    C8    S    
N26   N29   A    
C99   H91   S    
C28   C112  S    
N31   Ni3   S    
C66   C79   A    
C37   C79   S    
C24   C117  S    
C84   C112  S    
C65   C76   A    
C38   C80   S    
C57   H22   S    
C98   C117  S    
C21   H4    S    
C1    C74   A    
C49   C84   A    
C31   I1    S    
C40   H57   S    
C94   C113  S    
C119  H71   S    
C54   C90   A    
C72   C79   A    
C95   C112  S    
C11   H90   S    
C32   C74   S    
C11   H92   S    
C17   H108  S    
C16   C97   S    
C63   C90   A    
N6    N15   A    
C25   H10   S    
C101  C109  S    
C98   C103  S    
C52   C87   A    
C62   C89   A    
C19   H8    S    
C36   I5    S    
N24   Ni7   S    
C72   H38   S    
C31   C40   D    
C51   C86   A    
C42   C46   S    
N10   Ni1   S    
N1    Ni1   S    
N7    Ni8   S    
C44   C76   A    
C118  H73   S    
C92   C118  S    
C53   N6    A    
C12   H104  S    
N8    Ni7   S    
C120  H66   S    
C18   H106  S    
C50   C85   A    
C38   I7    S    
C118  C119  S    
C118  H72   S    
C58   H23   S    
C33   C75   A    
C40   C43   S    
C54   H20   S    
N21   Ni6   S    
C51   N4    A    
C101  H40   S    
C36   C82   S    
C16   C17   S    
C6    C94   S    
C34   C42   D    
N18   Ni6   S    
C52   H18   S    
C32   C41   D    
C57   C83   A    
C96   C115  S    
C10   H93   S    
N15   Ni3   S    
C15   H97   S    
C35   C43   D    
C9    C10   S    
C9    C95   S    
C6    H88   S    
C97   C102  S    
N29   Ni4   S    
C34   C75   S    
C39   C45   S    
C71   C82   A    
N7    N16   A    
C103  H42   S    
C4    H78   S    
C108  H48   S    
C89   C116  S    
C27   C111  S    
N3    Ni6   S    
C62   H28   S    
C96   C101  S    
N9    N32   A    
C41   H61   S    
C102  C111  S    
C67   C78   A    
C60   H26   S    
C104  H43   S    
C7    H86   S    
C24   H52   S    
C34   I3    S    
C120  H68   S    
C27   H54   S    
C19   C98   S    
C45   H62   S    
C12   C96   S    
C2    C93   S    
C9    H96   S    
C26   C96   S    
C62   N15   A    
C71   H37   S    
C94   C107  S    
C99   N31   A    
C22   C100  S    
C95   C108  S    
C93   C109  S    
C70   H35   S    
C44   H36   S    
C106  H45   S    
N30   Ni4   S    
C105  C114  S    
C8    H84   S    
C86   C109  S    
C55   N27   A    
N5    Ni7   S    
C68   H33   S    
C18   H107  S    
C24   C95   S    
C42   H60   S    
C68   N20   A    
C55   C78   A    
C60   C86   A    
C10   H94   S    
C37   I8    S    
C69   N21   A    
C26   H53   S    
N26   Ni8   S    
C54   N7    A    
C21   H112  S    
C73   N26   A    
C3    C93   S    
C9    H95   S    
C22   H15   S    
C104  C113  S    
C22   H16   S    
C103  C112  S    
C15   H98   S    
N2    N10   A    
C21   H3    S    
C33   N12   A    
C59   C85   A    
C12   H103  S    
C20   H6    S    
C18   H105  S    
C58   C84   A    
C93   C106  S    
N22   N30   A    
C56   N8    A    
C2    C115  S    
C3    H79   S    
C63   N16   A    
N23   Ni2   S    
N22   Ni8   S    
C16   H110  S    
C38   C47   D    
C17   C18   S    
C41   C47   S    
C105  H44   S    
C36   C45   D    
N16   Ni3   S    
N32   Ni5   S    
N9    Ni2   S    
C90   C115  S    
C30   I2    S    
C13   C104  S    
N6    Ni8   S    
C26   C109  S    
C48   N32   A    
C6    H87   S    
C33   H25   S    
N12   N21   A    
C2    H50   S    
C5    H76   S    
C56   H21   S    
C51   H17   S    
C88   N30   A    
C4    H77   S    
C12   C14   S    
C59   H24   S    
C50   N3    A    
N24   N31   A    
N4    N13   A    
C92   C111  S    
C53   C89   A    
C3    H81   S    
C77   N29   A    
N4    Ni5   S    
C58   N10   A    
C30   C76   S    
N2    Ni6   S    
C29   H56   S    
C15   H99   S    
C3    C4    S    
C25   H11   S    
C120  H67   S    
C110  C114  S    
C66   N28   A    
C64   N17   A    
C31   C78   S    
C61   C87   A    
C32   I4    S    
C77   C80   A    
C28   C98   S    
C71   N24   A    
C70   N22   A    
C29   C113  S    
C14   H100  S    
N27   Ni1   S    
N17   Ni4   S    
N14   Ni4   S    
C57   N9    A    
C29   C100  S    
C67   H32   S    
C14   C15   S    
C108  C117  S    
C8    H83   S    
N25   Ni7   S    
N11   Ni1   S    
C60   N13   A    
C4    C5    S    
C85   C111  S    
C50   H13   S    
C17   H109  S    
C100  C104  S    
C39   H59   S    
C119  C120  S    
C48   C83   A    
C28   H55   S    
C87   C117  S    
C6    C7    S    
C67   N19   A    
N5    N14   A    
C73   H39   S    
C16   H111  S    
C35   I6    S    
C69   H34   S    
C2    C101  S    
C91   C114  S    
C5    H75   S    
C13   C94   S    
N13   Ni2   S    
C24   C103  S    
C77   H69   S    
C88   H80   S    
N3    N11   A    
C8    H82   S    
C65   N18   A    
C61   H27   S    
C20   H5    S    
N19   Ni5   S    
C1    N1    A    
C11   H89   S    
C59   N11   A    
C27   C97   S    
C92   C110  S    
C48   H102  S    
C53   H19   S    
C102  H41   S    
C49   H2    S    
C47   H64   S    
N28   Ni3   S    
C43   H63   S    
C72   N25   A    
C37   C46   D    
C73   C80   A    
C23   H12   S    
C69   C75   A    
N19   N27   A    
C23   C25   S    
C46   H65   S    
C63   H29   S    
C23   H14   S    
C28   C108  S    
N25   N28   A    
C1    H1    S    
C107  C116  S    
C107  H46   S    
C81   C88   A    
C102  C110  S    
C10   C11   S    
N8    N17   A    
C110  H49   S    
C92   C105  S    
C13   H51   S    
C20   C21   S    
C19   C20   S    
C64   H30   S    
C27   C105  S    
C22   C23   S    
C29   C107  S    
C70   C81   A    
C64   C91   A    
C97   C114  S    
C68   C74   A    
C19   H7    S    
C56   C91   A    
C30   C39   D    
C5    H74   S    
C66   H58   S    
