data_mof_unit_2584.cif
_audit_creation_date              2012-10-26T20:21:33-0400
_audit_creation_method            fapswitch 2.2
_symmetry_space_group_name_H-M    P1
_symmetry_Int_Tables_number       1
_space_group_crystal_system       triclinic
_cell_length_a                    10.891919
_cell_length_b                    9.694906
_cell_length_c                    11.701358
_cell_angle_alpha                 90.019997
_cell_angle_beta                  100.689934
_cell_angle_gamma                 89.991089
_cell_volume                      1214.17439335

loop_
_atom_site_label
_atom_site_type_symbol
_atom_type_description
_atom_site_fract_x
_atom_site_fract_y
_atom_site_fract_z
_atom_type_partial_charge
C1    C     C_R   0.262978 0.500230 0.502786 0.608978
C2    C     C_R   0.936090 0.626813 0.498408 0.370005
C3    C     C_R   0.935892 0.376299 0.495014 0.365624
C4    C     C_R   0.063656 0.626826 0.500459 0.370105
C5    C     C_R   0.870859 0.501184 0.495836 -0.118794
C6    C     C_R   0.129139 0.501237 0.504104 -0.118979
C7    C     C_R   0.414643 0.075444 0.417986 0.294698
C8    C     C_R   0.583784 0.924580 0.584117 0.308511
C9    C     C_R   0.585295 0.075493 0.582055 0.295005
C10   C     C_R   0.416120 0.924517 0.415990 0.308228
C11   C     C_R   0.737020 0.500208 0.497195 0.608950
C12   C     C_R   0.501657 0.499985 0.284552 0.561127
C13   C     C_R   0.498357 0.500021 0.715448 0.560760
C14   C     C_1   0.501220 0.499969 0.162687 0.058088
C15   C     C_1   0.498793 0.500055 0.837316 0.058187
C16   C     C_1   0.500488 0.500033 0.060025 0.036553
C17   C     C_1   0.499526 0.500076 0.939975 0.036705
C18   C     C_R   0.064360 0.376366 0.505973 0.365543
Cu1   Cu    Cu3+1 0.500000 0.640660 0.500000 1.230430
Cu2   Cu    Cu3+1 0.500000 0.359340 0.500000 1.220883
F1    F     F_    0.124575 0.253472 0.520628 -0.489171
F2    F     F_    0.877301 0.750507 0.497591 -0.487701
F3    F     F_    0.875942 0.253227 0.481440 -0.488890
F4    F     F_    0.122182 0.750522 0.500154 -0.487190
H1    H     H_    0.205490 0.349458 0.235031 0.352231
H2    H     H_    0.756074 0.641880 0.783695 0.347475
H3    H     H_    0.794127 0.349460 0.765480 0.352276
H4    H     H_    0.243215 0.641960 0.216281 0.347669
N1    N     N_R   0.500000 0.852070 0.500000 -0.312781
N2    N     N_R   0.500000 0.147930 0.500000 -0.315464
O1    O     O_R   0.319640 0.618740 0.499990 -0.405974
O2    O     O_2   0.170881 0.121662 0.338985 -0.124425
O3    O     O_3   0.281794 0.334711 0.294601 -0.508144
O4    O     O_2   0.805249 0.898413 0.750120 -0.138247
O5    O     O_2   0.607378 0.846601 0.807505 -0.250582
O6    O     O_3   0.719663 0.668941 0.702853 -0.484776
O7    O     O_2   0.692370 0.113912 0.807698 -0.213647
O8    O     O_2   0.828905 0.120941 0.662294 -0.123834
O9    O     O_3   0.718301 0.334810 0.705314 -0.507892
O10   O     O_2   0.193482 0.897981 0.252157 -0.137046
O11   O     O_2   0.390433 0.847608 0.192142 -0.250190
O12   O     O_R   0.680360 0.381260 0.500010 -0.407707
O13   O     O_3   0.280371 0.668493 0.297081 -0.484835
O14   O     O_R   0.680360 0.618740 0.500010 -0.405884
O15   O     O_R   0.319640 0.381260 0.499990 -0.407598
O16   O     O_R   0.500010 0.618790 0.337200 -0.452374
O17   O     O_R   0.499990 0.381210 0.662800 -0.453517
O18   O     O_R   0.499990 0.618790 0.662800 -0.452277
O19   O     O_R   0.500010 0.381210 0.337200 -0.453695
O20   O     O_2   0.306007 0.113177 0.192505 -0.212767
S1    S     S_3+6 0.295019 0.163640 0.311666 0.155933
S2    S     S_3+6 0.679439 0.834847 0.710035 0.161809
S3    S     S_3+6 0.704549 0.163714 0.688671 0.156296
S4    S     S_3+6 0.319743 0.834738 0.290507 0.162312

loop_
_geom_bond_atom_site_label_1
_geom_bond_atom_site_label_2
_ccdc_geom_bond_type
C2    F2    S    
C7    C10   A    
C2    C4    A    
O7    S3    D    
O2    S1    D    
C5    C11   S    
Cu2   O19   S    
O3    S1    S    
C18   F1    S    
C8    S2    S    
H4    O13   S    
O4    S2    D    
Cu1   Cu2   S    
O6    S2    S    
Cu1   O1    S    
C12   O19   A    
Cu1   O16   S    
C7    S1    S    
C11   O14   A    
C7    N2    A    
Cu2   N2    S    
Cu2   O12   S    
C10   N1    A    
C1    O15   A    
O9    S3    S    
O8    S3    D    
C9    N2    A    
C3    C18   A    
C10   S4    S    
C8    N1    A    
C12   O16   A    
C12   C14   S    
O20   S1    D    
O10   S4    D    
C13   C15   S    
C4    F4    S    
C6    C18   A    
C14   C16   T    
O11   S4    D    
C2    C5    A    
C9    S3    S    
H3    O9    S    
C1    C6    S    
Cu2   O17   S    
C1    O1    A    
Cu1   O14   S    
C11   O12   A    
C4    C6    A    
H2    O6    S    
O5    S2    D    
C13   O17   A    
Cu1   O18   S    
C8    C9    A    
O13   S4    S    
C15   C17   T    
C3    F3    S    
Cu2   O15   S    
H1    O3    S    
C16   C17   S    
C3    C5    A    
C13   O18   A    
Cu1   N1    S    
