data_mof_unit_3558.cif
_audit_creation_date              2012-12-10T17:13:34-0500
_audit_creation_method            fapswitch 2.2
_symmetry_space_group_name_H-M    P1
_symmetry_Int_Tables_number       1
_space_group_crystal_system       triclinic
_cell_length_a                    10.971851
_cell_length_b                    13.026713
_cell_length_c                    11.753526
_cell_angle_alpha                 99.300232
_cell_angle_beta                  94.404885
_cell_angle_gamma                 92.271069
_cell_volume                      1650.60561211

loop_
_atom_site_label
_atom_site_type_symbol
_atom_type_description
_atom_site_fract_x
_atom_site_fract_y
_atom_site_fract_z
_atom_type_partial_charge
C1    C     C_R   0.509437 0.300332 0.479292 0.897139
C2    C     C_3   0.876687 0.499968 0.499089 -0.092453
C3    C     C_3   0.933092 0.617133 0.509394 0.037559
C4    C     C_3   0.911945 0.424121 0.383762 0.223089
C5    C     C_R   0.486624 0.815287 0.530430 -0.146824
C6    C     C_R   0.527554 0.188189 0.467490 -0.056485
C7    C     C_R   0.523053 0.020586 0.343422 -0.010678
C8    C     C_R   0.518336 0.128189 0.357107 -0.280700
C9    C     C_R   0.556551 0.139404 0.564118 -0.035838
C10   C     C_R   0.525510 0.032147 0.553599 0.029673
C11   C     C_R   0.511221 0.970728 0.441451 0.012650
C12   C     C_R   0.259615 0.497807 0.500137 0.904563
C13   C     C_R   0.479929 0.863411 0.430334 -0.091005
C14   C     C_R   0.482806 0.878072 0.639788 0.103756
C15   C     C_R   0.499151 0.986931 0.650816 0.083227
C16   C     C_R   0.392335 0.391116 0.022067 0.030880
C17   C     C_R   0.404761 0.401422 0.143998 0.354604
C18   C     C_R   0.543377 0.547744 0.157264 0.069206
C19   C     C_R   0.536147 0.539344 0.034992 -0.051711
C20   C     C_R   0.460915 0.459887 0.966051 0.040488
C21   C     C_R   0.459545 0.448985 0.843211 0.300398
C22   C     C_R   0.596988 0.596682 0.858240 0.393807
C23   C     C_R   0.494004 0.700800 0.520500 0.860339
C24   C     C_R   0.604431 0.607280 0.980313 -0.303281
C25   C     C_R   0.739482 0.498776 0.499790 0.795947
C26   C     C_3   0.075079 0.439771 0.604320 0.204696
C27   C     C_3   0.932581 0.451330 0.607203 -0.212490
C28   C     C_3   0.077308 0.612831 0.527652 -0.198040
C29   C     C_3   0.056673 0.437553 0.376801 -0.075490
C30   C     C_3   0.120696 0.496142 0.500719 -0.096324
Cu1   Cu    Cu3+1 0.509350 0.507730 0.615930 1.002191
Cu2   Cu    Cu3+1 0.490650 0.492270 0.384070 1.034205
H1    H     H_    0.515310 0.165516 0.281234 0.148927
H2    H     H_    0.664099 0.668587 0.031900 0.174841
H3    H     H_    0.603787 0.607308 0.210539 0.164791
H4    H     H_    0.887672 0.372652 0.600327 0.227289
H5    H     H_    0.102458 0.638239 0.620572 0.161261
N1    N     N_R   0.523430 0.519360 0.790130 -0.186303
N2    N     N_R   0.476570 0.480640 0.209880 -0.193397
O1    O     O_R   0.506640 0.354460 0.582000 -0.585327
O2    O     O_R   0.490840 0.341410 0.386200 -0.566591
O3    O     O_R   0.325590 0.506510 0.597900 -0.644920
O4    O     O_R   0.309790 0.493450 0.402100 -0.480246
O5    O     O_R   0.509160 0.658590 0.613800 -0.550738
O6    O     O_R   0.493360 0.645540 0.418000 -0.541757
O7    O     O_R   0.690210 0.506550 0.597900 -0.545465
O8    O     O_R   0.674410 0.493490 0.402100 -0.615528
N3    N     N_3   0.134732 0.484547 0.721249 -0.616959
H6    H     H_    0.171350 0.429651 0.767983 0.255017
H7    H     H_    0.191989 0.551484 0.731101 0.244150
N4    N     N_3   0.849753 0.444233 0.272540 -0.598216
H8    H     H_    0.831650 0.520758 0.267492 0.245864
H9    H     H_    0.768602 0.398669 0.246708 0.254834
C31   C     C_2   0.146106 0.698804 0.481031 0.272584
H10   H     H_    0.131949 0.779355 0.516200 0.123087
O9    O     O_2   0.217257 0.681245 0.406636 -0.568316
N5    N     N_3   0.896976 0.661091 0.404778 -0.630053
H11   H     H_    0.801663 0.664748 0.395441 0.211684
H12   H     H_    0.930076 0.738607 0.413259 0.238517
C32   C     C_2   0.401946 0.813959 0.325313 0.527617
H13   H     H_    0.311567 0.842243 0.309275 0.054867
O10   O     O_2   0.439249 0.747120 0.253362 -0.498072
N6    N     N_3   0.450842 0.831782 0.737061 -0.558691
H14   H     H_    0.513823 0.859051 0.807593 0.213233
H15   H     H_    0.364459 0.855413 0.758640 0.219677
C33   C     C_2   0.547952 0.966062 0.227467 0.369952
H16   H     H_    0.514073 0.995698 0.150473 0.045625
O11   O     O_2   0.613574 0.892153 0.217294 -0.518562
N7    N     N_3   0.477919 0.052366 0.757458 -0.633718
H17   H     H_    0.388081 0.037840 0.776741 0.232495
H18   H     H_    0.538148 0.034716 0.823996 0.210024
C34   C     C_2   0.643252 0.191126 0.662936 0.366849
H19   H     H_    0.663779 0.154559 0.737992 0.106191
O12   O     O_2   0.701808 0.271515 0.657812 -0.519370
N8    N     N_3   0.399572 0.357238 0.776702 -0.562073
H20   H     H_    0.463876 0.301692 0.757355 0.255443
H21   H     H_    0.350900 0.373883 0.704072 0.252931
N9    N     N_3   0.098209 0.328067 0.583025 -0.577101
H22   H     H_    0.192002 0.318030 0.588691 0.250297
H23   H     H_    0.063077 0.291583 0.647530 0.232478
N10   N     N_3   0.670683 0.665666 0.805904 -0.523075
H24   H     H_    0.649968 0.741668 0.838332 0.201822
H25   H     H_    0.761814 0.658798 0.834932 0.208839
N11   N     N_3   0.308225 0.312002 0.956504 -0.576579
H26   H     H_    0.332089 0.238876 0.973890 0.210298
H27   H     H_    0.219521 0.326211 0.979395 0.244050
N12   N     N_3   0.346799 0.324673 0.198736 -0.466980
H28   H     H_    0.386402 0.254018 0.172891 0.164871
H29   H     H_    0.254962 0.314148 0.167890 0.231582
C35   C     C_2   0.900253 0.503931 0.726189 0.451688
H30   H     H_    0.938578 0.580826 0.763592 0.106935
O13   O     O_2   0.837432 0.457295 0.784757 -0.500702
C36   C     C_2   0.883398 0.691172 0.608499 0.254218
H31   H     H_    0.785433 0.693789 0.614065 0.115239
O14   O     O_2   0.949967 0.753136 0.677492 -0.571866
C37   C     C_2   0.082270 0.503546 0.282288 0.477507
H32   H     H_    0.045428 0.579080 0.284047 0.153839
O15   O     O_2   0.139784 0.472278 0.199795 -0.564900
C38   C     C_2   0.105504 0.330262 0.333812 0.416513
H33   H     H_    0.060758 0.283483 0.255813 0.075221
O16   O     O_2   0.194838 0.296154 0.380286 -0.566615
N13   N     N_3   0.870571 0.315418 0.392645 -0.598675
H34   H     H_    0.860811 0.267994 0.311301 0.214482
H35   H     H_    0.931051 0.277814 0.442119 0.246068

loop_
_geom_bond_atom_site_label_1
_geom_bond_atom_site_label_2
_ccdc_geom_bond_type
C33   O11   D    
N12   H28   S    
N6    H15   S    
C36   H31   S    
C23   O6    A    
Cu1   O3    S    
Cu2   O6    S    
C19   C20   A    
C9    C34   S    
C18   N2    A    
C6    C9    A    
N10   H24   S    
N5    H11   S    
C7    C8    A    
C13   C32   S    
C7    C11   A    
C26   C27   S    
C26   N9    S    
C3    C28   S    
N11   H27   S    
C12   O4    A    
C10   C15   A    
N9    H23   S    
N5    H12   S    
C22   N1    A    
C16   N11   S    
Cu1   O1    S    
C27   C35   S    
C32   O10   D    
C18   C19   A    
C17   N2    A    
Cu2   N2    S    
N7    H18   S    
C12   O3    A    
C1    O1    A    
C21   N1    A    
Cu1   Cu2   S    
C16   C17   A    
Cu1   O7    S    
C4    N13   S    
Cu2   O2    S    
C2    C27   S    
C18   H3    S    
C25   O8    A    
C5    C13   A    
C4    C29   S    
C26   N3    S    
N3    H7    S    
C33   H16   S    
C36   O14   D    
N7    H17   S    
N10   H25   S    
C15   N7    S    
C31   O9    D    
Cu1   O5    S    
C29   C38   S    
C4    N4    S    
N4    H8    S    
C22   N10   S    
N11   H26   S    
C34   O12   D    
C28   C31   S    
N9    H22   S    
C6    C8    A    
C24   H2    S    
C23   O5    A    
C1    C6    S    
C37   O15   D    
C32   H13   S    
N4    H9    S    
C2    C4    S    
N8    H20   S    
C29   C30   S    
C35   O13   D    
C38   H33   S    
C5    C23   S    
C16   C20   A    
C37   H32   S    
C3    C36   S    
N13   H35   S    
N8    H21   S    
C5    C14   A    
C3    N5    S    
C1    O2    A    
N3    H6    S    
C38   O16   D    
C26   C30   S    
N12   H29   S    
Cu2   O8    S    
C22   C24   A    
C9    C10   A    
C31   H10   S    
C12   C30   S    
C17   N12   S    
C34   H19   S    
C29   C37   S    
C27   H4    S    
C21   N8    S    
Cu1   N1    S    
C28   C30   S    
C2    C3    S    
C7    C33   S    
C11   C13   A    
C35   H30   S    
C28   H5    S    
C14   N6    S    
Cu2   O4    S    
C19   C24   A    
C2    C25   S    
C8    H1    S    
N13   H34   S    
C10   C11   A    
N6    H14   S    
C20   C21   A    
C14   C15   A    
C25   O7    A    
