data_mof_unit_162.cif
_audit_creation_date              2012-12-10T20:31:07-0500
_audit_creation_method            fapswitch 2.2
_symmetry_space_group_name_H-M    P1
_symmetry_Int_Tables_number       1
_space_group_crystal_system       triclinic
_cell_length_a                    14.947851
_cell_length_b                    10.736672
_cell_length_c                    9.866945
_cell_angle_alpha                 90.618106
_cell_angle_beta                  90.046886
_cell_angle_gamma                 89.397686
_cell_volume                      1583.36768035

loop_
_atom_site_label
_atom_site_type_symbol
_atom_type_description
_atom_site_fract_x
_atom_site_fract_y
_atom_site_fract_z
_atom_type_partial_charge
C1    C     C_R   0.497322 0.260155 0.499010 0.880537
C2    C     C_R   0.188363 0.400399 0.541206 -0.263271
C3    C     C_R   0.232183 0.505537 0.498125 -0.092127
C4    C     C_R   0.327246 0.501849 0.499854 0.921291
C5    C     C_R   0.186911 0.609953 0.448085 0.088490
C6    C     C_R   0.528301 0.065295 0.611144 0.131733
C7    C     C_R   0.498971 0.127681 0.495530 -0.185885
C8    C     C_R   0.478358 0.060162 0.375634 -0.024275
C9    C     C_R   0.483556 0.932178 0.377491 -0.190836
C10   C     C_R   0.504107 0.871146 0.498217 -0.088542
C11   C     C_R   0.530099 0.937828 0.612610 0.089987
C12   C     C_R   0.905440 0.600669 0.433947 0.077371
C13   C     C_3   0.494467 0.932056 0.753614 -0.468275
C14   C     C_3   0.492458 0.073109 0.752944 0.000739
C15   C     C_R   0.431777 0.445943 0.070748 0.207923
C16   C     C_R   0.500282 0.739638 0.500359 0.947527
C17   C     C_R   0.571359 0.542405 0.072495 -0.084396
C18   C     C_R   0.571515 0.541927 0.928593 -0.076936
C19   C     C_R   0.430661 0.448973 0.928561 0.174274
C20   C     C_3   0.334047 0.488282 0.927577 -0.036474
C21   C     C_3   0.335213 0.479552 0.081149 -0.513035
C22   C     C_R   0.672905 0.500968 0.499847 0.932854
C23   C     C_R   0.958223 0.292114 0.588379 -0.207939
C24   C     C_R   0.812263 0.603784 0.444375 0.069136
C25   C     C_R   0.768604 0.500702 0.498178 -0.149952
C26   C     C_R   0.815343 0.394839 0.542529 -0.088608
C27   C     C_R   0.908899 0.394307 0.539634 0.039471
C28   C     C_R   0.954022 0.498017 0.485791 0.029058
C29   C     C_1   0.766653 0.285618 0.585404 0.199364
C30   C     C_1   0.081976 0.784874 0.270109 0.252503
C31   C     C_1   0.442673 0.116093 0.253942 0.275455
C32   C     C_R   0.050809 0.292426 0.588064 0.157167
C33   C     C_R   0.096004 0.396684 0.538558 0.080093
C34   C     C_R   0.047887 0.499425 0.484553 0.014403
C35   C     C_R   0.093545 0.603890 0.430714 0.042172
C36   C     C_R   0.043440 0.696719 0.362458 -0.018924
C37   C     C_R   0.950810 0.696194 0.368887 -0.203169
H1    H     H_    0.464959 0.880300 0.286898 0.189829
H2    H     H_    0.925356 0.211212 0.628732 0.186955
H3    H     H_    0.227762 0.322777 0.578334 0.170191
H4    H     H_    0.914728 0.769475 0.317268 0.188292
H5    H     H_    0.426627 0.891115 0.757711 0.230040
H6    H     H_    0.543868 0.890891 0.824937 0.231816
H7    H     H_    0.423586 0.113230 0.757851 0.157074
H8    H     H_    0.627971 0.579857 0.127045 0.171385
H9    H     H_    0.628334 0.578720 0.875016 0.157508
H10   H     H_    0.290636 0.417378 0.878613 0.162184
H11   H     H_    0.323708 0.569687 0.135183 0.247408
H12   H     H_    0.294972 0.401095 0.119916 0.203283
I1    I     I_    0.735857 0.766228 0.386839 -0.372920
I2    I     I_    0.585590 0.154136 0.892769 -0.314610
I3    I     I_    0.309721 0.676832 0.864907 -0.292511
I4    I     I_    0.115906 0.130689 0.666068 -0.325688
I5    I     I_    0.261377 0.779957 0.435115 -0.328757
N1    N     N_R   0.499390 0.499140 0.142800 -0.107473
N2    N     N_R   0.499390 0.499180 0.857150 -0.100451
N3    N     N_1   0.728182 0.198194 0.618674 -0.149304
N4    N     N_1   0.111579 0.855461 0.194886 -0.130302
N5    N     N_1   0.413601 0.159938 0.156540 -0.186805
O1    O     O_R   0.500010 0.316790 0.614690 -0.607905
O2    O     O_R   0.500000 0.316760 0.385350 -0.611978
O3    O     O_R   0.367850 0.499990 0.614680 -0.602568
O4    O     O_R   0.367840 0.499950 0.385340 -0.625091
O5    O     O_R   0.500000 0.683240 0.614650 -0.606216
O6    O     O_R   0.499990 0.683210 0.385310 -0.614456
O7    O     O_R   0.632160 0.500050 0.614660 -0.617598
O8    O     O_R   0.632150 0.500010 0.385320 -0.609507
Zn1   Zn    Zn3+2 0.500010 0.500020 0.653130 0.999501
Zn2   Zn    Zn3+2 0.499990 0.499980 0.346870 0.989772

loop_
_geom_bond_atom_site_label_1
_geom_bond_atom_site_label_2
_ccdc_geom_bond_type
C19   N2    A    
C36   C37   A    
O7    Zn1   S    
C24   C25   A    
C2    H3    S    
C6    C7    A    
C30   C36   S    
C6    C14   S    
C9    C10   A    
C17   N1    A    
C19   C20   S    
O3    Zn1   S    
C21   H11   S    
N2    Zn1   S    
C23   C32   A    
C21   H12   S    
C2    C3    A    
O4    Zn2   S    
C28   C34   A    
C7    C8    A    
C20   I3    S    
C15   N1    A    
C10   C16   S    
C13   C14   S    
C32   C33   A    
C15   C19   A    
C18   N2    A    
C11   C13   S    
C4    O4    A    
C26   C27   A    
N1    Zn2   S    
C15   C21   S    
C12   C28   A    
O6    Zn2   S    
C18   H9    S    
C2    C33   A    
C14   H7    S    
C13   H5    S    
C17   H8    S    
C33   C34   A    
C23   C27   A    
C6    C11   A    
C37   H4    S    
C23   H2    S    
C22   O8    A    
C20   H10   S    
C10   C11   A    
O8    Zn2   S    
O2    Zn2   S    
C3    C4    S    
O5    Zn1   S    
C4    O3    A    
C5    I5    S    
C13   H6    S    
C20   C21   S    
O1    Zn1   S    
C26   C29   S    
C17   C18   A    
C34   C35   A    
C12   C37   A    
C1    O1    A    
C31   N5    T    
C27   C28   A    
C24   I1    S    
C12   C24   A    
C9    H1    S    
C30   N4    T    
C16   O6    A    
C16   O5    A    
C32   I4    S    
C25   C26   A    
C1    C7    S    
C8    C31   S    
C5    C35   A    
C22   C25   S    
C22   O7    A    
C14   I2    S    
C29   N3    T    
C8    C9    A    
C3    C5    A    
C35   C36   A    
C1    O2    A    
