data_mof_unit_3611.cif
_audit_creation_date              2013-03-05T16:00:51-0500
_audit_creation_method            fapswitch 2.2
_symmetry_space_group_name_H-M    P1
_symmetry_Int_Tables_number       1
_space_group_crystal_system       triclinic
_cell_length_a                    8.171228
_cell_length_b                    12.643367
_cell_length_c                    18.749575
_cell_angle_alpha                 99.309609
_cell_angle_beta                  91.010096
_cell_angle_gamma                 98.576851
_cell_volume                      1888.43077987

loop_
_atom_site_label
_atom_site_type_symbol
_atom_site_description
_atom_site_fract_x
_atom_site_fract_y
_atom_site_fract_z
_atom_type_partial_charge
P1    P     P_3+3 0.041040 0.394770 0.336330 0.460706
O1    O     O_2   0.873090 0.425890 0.325140 -0.373313
O2    O     O_3   0.122420 0.434370 0.414380 -0.404301
O3    O     O_3   0.659500 0.627100 0.368810 -0.368605
O4    O     O_2   0.777657 0.547829 0.243916 -0.407353
O5    O     O_3   0.004333 0.253005 0.317883 -0.564152
O6    O     O_3   0.705290 0.742710 0.252146 -0.524339
H1    H     H_    0.726920 0.862197 0.341885 0.133831
C1    C     C_3   0.583973 0.903363 0.255254 -1.014234
H2    H     H_    0.534994 0.968618 0.291675 0.255744
H3    H     H_    0.692236 0.939456 0.227605 0.280146
P2    P     P_3+3 0.672880 0.754030 0.556100 0.449735
P3    P     P_3+3 0.126801 0.823886 0.402867 0.446144
O7    O     O_2   0.848200 0.768190 0.534530 -0.377003
O8    O     O_3   0.081160 0.685950 0.404810 -0.385957
O9    O     O_2   0.998543 0.879180 0.448804 -0.382045
O10   O     O_3   0.689203 0.791962 0.650354 -0.576509
O11   O     O_3   0.087822 0.846934 0.314980 -0.521121
C2    C     C_3   0.130832 0.760525 0.265527 0.482237
H4    H     H_    0.048528 0.683803 0.269649 0.151143
H5    H     H_    0.261299 0.750137 0.275013 0.006657
C3    C     C_3   0.110717 0.783861 0.189053 -0.947847
H6    H     H_    0.979327 0.789566 0.176608 0.289500
H7    H     H_    0.188766 0.861608 0.183477 0.260674
C4    C     C_3   0.235219 0.788062 0.619955 0.374298
H8    H     H_    0.358427 0.766965 0.606812 0.097004
H9    H     H_    0.146214 0.756615 0.573282 0.141824
C5    C     C_3   0.246286 0.910464 0.635427 -0.884977
H10   H     H_    0.331364 0.944033 0.682952 0.256694
H11   H     H_    0.293638 0.946178 0.588297 0.228998
H12   H     H_    0.121779 0.932404 0.647064 0.276908
Ba1   Ba    Ba6+2 0.852780 0.548340 0.465070 1.540946
C6    C     C_3   0.960923 0.211712 0.380745 0.372507
H13   H     H_    0.838883 0.232284 0.396044 0.094466
H14   H     H_    0.053030 0.243777 0.426080 0.144415
C7    C     C_3   0.951728 0.089390 0.364909 -0.878749
H15   H     H_    0.863611 0.055238 0.318517 0.258124
H16   H     H_    0.908923 0.053353 0.412534 0.232428
H17   H     H_    0.075974 0.068306 0.351440 0.274370
C8    C     C_3   0.727046 0.705538 0.682315 0.437381
H18   H     H_    0.846917 0.683995 0.663548 0.095967
H19   H     H_    0.628698 0.633836 0.669307 0.131096
C9    C     C_3   0.740170 0.740764 0.764015 -0.982066
H20   H     H_    0.842038 0.810087 0.778851 0.274448
H21   H     H_    0.765946 0.672940 0.791109 0.219035
H22   H     H_    0.621826 0.765768 0.783444 0.264538
P4    P     P_3+3 0.148670 0.605320 0.663680 0.457580
O12   O     O_2   0.316610 0.574140 0.674900 -0.373358
O13   O     O_3   0.067290 0.565720 0.585630 -0.405082
O14   O     O_3   0.530210 0.372990 0.631200 -0.363207
O15   O     O_3   0.184459 0.747073 0.682166 -0.567333
P5    P     P_3+3 0.065976 0.174493 0.596464 0.451912
O16   O     O_3   0.611340 0.366290 0.463630 -0.389205
O17   O     O_3   0.108550 0.314140 0.595200 -0.381328
O18   O     O_2   0.194994 0.120874 0.550025 -0.375673
O19   O     O_3   0.109419 0.149246 0.683292 -0.517198
Ba2   Ba    Ba6+2 0.337060 0.451750 0.534940 1.543969
P6    P     P_3+3 0.643986 0.614295 0.274990 0.441061
C10   C     C_3   0.633922 0.820636 0.298608 0.460982
H23   H     H_    0.521892 0.786462 0.324784 0.033160
H24   H     H_    0.486680 0.863143 0.213544 0.263798
O20   O     O_3   0.578370 0.633800 0.536380 -0.400351
C11   C     C_3   0.462307 0.276455 0.314007 0.408621
H25   H     H_    0.341906 0.297091 0.333493 0.101971
H26   H     H_    0.559302 0.349126 0.326388 0.126739
C12   C     C_3   0.446254 0.241597 0.232334 -0.935831
H27   H     H_    0.347368 0.170311 0.218109 0.273623
H28   H     H_    0.414147 0.308754 0.206039 0.219155
H29   H     H_    0.565437 0.219759 0.211640 0.265674
P7    P     P_3+3 0.522238 0.230362 0.439628 0.418177
O21   O     O_2   0.341510 0.231850 0.465510 -0.371709
O22   O     O_3   0.505282 0.190680 0.345616 -0.581849
H30   H     H_    0.149092 0.717638 0.149648 0.217715
C13   C     C_3   0.063021 0.232171 0.734463 0.442410
H31   H     H_    0.143358 0.310497 0.732371 0.153478
H32   H     H_    0.931811 0.241166 0.725243 0.008675
C14   C     C_3   0.083460 0.203666 0.809551 -0.855628
H33   H     H_    0.214675 0.196420 0.821153 0.291940
H34   H     H_    0.046591 0.267861 0.850831 0.220137
H35   H     H_    0.004374 0.125391 0.813148 0.257347
P8    P     P_3+3 0.546765 0.380436 0.724199 0.453432
C15   C     C_3   0.557723 0.174032 0.699705 0.444150
H36   H     H_    0.669636 0.210109 0.674246 0.029595
O23   O     O_2   0.419829 0.451468 0.757206 -0.389428
O24   O     O_3   0.473574 0.250175 0.741496 -0.514437
H37   H     H_    0.471865 0.126541 0.655537 0.131446
H38   H     H_    0.702953 0.143590 0.789902 0.269113
C16   C     C_3   0.611133 0.097767 0.747502 -0.996404
H39   H     H_    0.668205 0.033014 0.714342 0.244600
H40   H     H_    0.502819 0.060212 0.774432 0.285100
C17   C     C_R   0.000142 0.433167 0.045213 0.064627
C18   C     C_R   0.897462 0.391398 0.097115 -0.115787
C19   C     C_R   0.795154 0.359795 0.941091 0.305485
C20   C     C_R   0.944295 0.426447 0.971488 -0.108242
C21   C     C_R   0.728799 0.374108 0.874942 -0.280463
C22   C     C_R   0.820002 0.436270 0.829784 -0.071622
C23   C     C_R   0.979703 0.491479 0.854074 0.002740
C24   C     C_R   0.040691 0.488888 0.925817 0.016931
C25   C     C_R   0.760819 0.437830 0.758740 0.193842
C26   C     C_R   0.866545 0.484249 0.710559 -0.526896
C27   C     C_R   0.023305 0.541485 0.732995 0.245280
C28   C     C_R   0.078092 0.549262 0.806673 -0.027386
C29   C     C_R   0.161416 0.487008 0.068997 0.052071
C30   C     C_R   0.219112 0.490705 0.142221 -0.003070
C31   C     C_R   0.114014 0.443363 0.192131 -0.050800
C32   C     C_R   0.956342 0.389845 0.166817 -0.054920
H41   H     H_    0.823217 0.479833 0.655157 0.178838
H42   H     H_    0.611054 0.326434 0.856453 0.224361
H43   H     H_    0.872275 0.349390 0.201007 0.169645
C33   C     C_R   0.228026 0.612298 0.834533 -0.050073
C34   C     C_R   0.287667 0.610646 0.904404 -0.187959
C35   C     C_R   0.199676 0.546193 0.950495 0.075620
C36   C     C_R   0.264126 0.539458 0.020726 0.059184
C37   C     C_R   0.428842 0.583444 0.044542 -0.187664
C38   C     C_R   0.381856 0.541860 0.165448 -0.017710
C39   C     C_R   0.486149 0.584215 0.114994 -0.142038
C40   C     C_R   0.435086 0.549509 0.238580 0.177964
C41   C     C_R   0.326155 0.509153 0.287847 -0.537336
C42   C     C_R   0.167816 0.454482 0.266148 0.252541
H44   H     H_    0.302078 0.663777 0.802702 0.158490
H45   H     H_    0.613510 0.619529 0.129278 0.179567
H46   H     H_    0.367496 0.517113 0.343865 0.186158
H47   H     H_    0.767308 0.362319 0.086262 0.161357
H48   H     H_    0.403078 0.662825 0.921349 0.127089
H49   H     H_    0.518325 0.616529 0.009282 0.133483
C43   C     C_R   0.764529 0.182603 0.528193 -0.514831
C44   C     C_R   0.427750 0.807244 0.470098 -0.527104
C45   C     C_R   0.402034 0.984426 0.444295 -0.212916
C46   C     C_R   0.337237 0.875889 0.440628 0.206980
C47   C     C_R   0.577285 0.848090 0.509197 0.298027
C48   C     C_R   0.641975 0.960232 0.516575 -0.067853
C49   C     C_R   0.553688 0.028394 0.482287 -0.067076
C50   C     C_R   0.617572 0.139466 0.488329 0.275342
C51   C     C_R   0.856001 0.116209 0.559021 0.201041
C52   C     C_R   0.792897 0.006390 0.555681 -0.200011
H50   H     H_    0.329294 0.033553 0.418867 0.186750
H51   H     H_    0.865093 0.958670 0.582548 0.184576
H52   H     H_    0.813430 0.267737 0.531450 0.173612
H53   H     H_    0.376549 0.722405 0.466213 0.179788
N1    N     N_R   0.723761 0.264994 0.969324 0.223821
O25   O     O_R   0.818372 0.197595 0.985913 -0.385396
O26   O     O_R   0.563684 0.236858 0.967560 -0.394985

loop_
_geom_bond_atom_site_label_1
_geom_bond_atom_site_label_2
_geom_bond_distance
_ccdc_geom_bond_type
C12   H28   1.109140 S    
H38   C16   1.109448 S    
C11   H26   1.110659 S    
C19   C20   1.426150 A    
P4    C27   1.878692 S    
P5    C51   1.841940 S    
C21   C22   1.397440 A    
C45   C46   1.385521 A    
C4    O15   1.396322 S    
C23   C24   1.433308 A    
Ba2   O20   2.794808 S    
P4    O13   1.569632 S    
C14   H33   1.110321 S    
C4    C5    1.516382 S    
C27   C28   1.428135 A    
P2    C47   1.840927 S    
O4    P6    1.541579 D    
C1    H24   1.109527 S    
C5    H10   1.106907 S    
C29   C36   1.420632 A    
N1    O26   1.301714 A    
O11   C2    1.405383 S    
C48   C52   1.419166 A    
C45   H50   1.078110 S    
H1    C10   1.110498 S    
C41   H46   1.081909 S    
C12   H29   1.110894 S    
C20   C24   1.426188 A    
C38   C39   1.401476 A    
C22   C25   1.413223 A    
C6    C7    1.517111 S    
O13   Ba2   2.901214 S    
O1    Ba1   2.843526 S    
P1    O1    1.503267 D    
P1    C42   1.873721 S    
C41   C42   1.393199 A    
C30   C31   1.423978 A    
C33   C34   1.394119 A    
C8    C9    1.521727 S    
C34   C35   1.415207 A    
C43   C50   1.392559 A    
C49   C50   1.408988 A    
C38   C40   1.414992 A    
C13   C14   1.521084 S    
P2    O10   1.751934 S    
P7    C50   1.828345 S    
P7    O21   1.564385 D    
C1    H2    1.110418 S    
O6    P6    1.749402 S    
C23   C28   1.424790 A    
P5    O18   1.543921 D    
C8    H19   1.109678 S    
C12   H27   1.110748 S    
C11   C12   1.521089 S    
C10   H23   1.109975 S    
C19   C21   1.393975 A    
P2    Ba1   3.410254 S    
C44   H53   1.081997 S    
Ba1   Ba2   4.543453 S    
O16   P7    1.746758 S    
C45   C49   1.409733 A    
O6    C10   1.407580 S    
C35   C36   1.429619 A    
P5    O17   1.752013 S    
C14   H34   1.107458 S    
C11   O22   1.401737 S    
O19   C13   1.403360 S    
C13   H31   1.110296 S    
P1    O5    1.748616 S    
P4    O12   1.503602 D    
O12   Ba2   2.843868 S    
C2    C3    1.520860 S    
C24   C35   1.419961 A    
N1    O25   1.301665 A    
C39   H45   1.080290 S    
C18   H47   1.076654 S    
C33   H44   1.080235 S    
C17   C18   1.411656 A    
C37   H49   1.077941 S    
O16   Ba2   2.887677 S    
P4    O15   1.748390 S    
P8    C25   1.853304 S    
C4    H8    1.101371 S    
C15   H37   1.109748 S    
C7    H17   1.110651 S    
P6    C40   1.847080 S    
P1    O2    1.569633 S    
O10   C8    1.398137 S    
C9    H20   1.110759 S    
C44   C46   1.392044 A    
P4    Ba2   3.387084 S    
C30   C38   1.417148 A    
P2    O20   1.581702 S    
C25   C26   1.398104 A    
C22   C23   1.414938 A    
C6    H13   1.098945 S    
Ba2   O21   2.878669 S    
C9    H21   1.108519 S    
O3    Ba1   2.773696 S    
C13   H32   1.108385 S    
P3    O11   1.751074 S    
C18   C32   1.388792 A    
C8    H18   1.103691 S    
C16   H40   1.109826 S    
C1    H3    1.109896 S    
C3    H7    1.110204 S    
C28   C33   1.400191 A    
C48   C49   1.422941 A    
O2    Ba2   2.796167 S    
Ba1   O16   2.795429 S    
P8    O23   1.544680 D    
C7    H16   1.105625 S    
C36   C37   1.412588 A    
C14   H35   1.110841 S    
C52   H51   1.076946 S    
C43   H52   1.082395 S    
C26   H41   1.081603 S    
C2    H5    1.108168 S    
C34   H48   1.077752 S    
O14   Ba2   2.773048 S    
C5    H12   1.109959 S    
C17   C29   1.418575 A    
O8    Ba1   2.743729 S    
C37   C39   1.391732 A    
C51   C52   1.398171 A    
C4    H9    1.109754 S    
C15   O24   1.409239 S    
C31   C32   1.399115 A    
O5    C6    1.395054 S    
C2    H4    1.109382 S    
P3    O8    1.734616 S    
C47   C48   1.421015 A    
P2    O7    1.488371 D    
C44   C47   1.398156 A    
Ba1   O20   2.888570 S    
C19   N1    1.436943 S    
C40   C41   1.397128 A    
C17   C20   1.433333 A    
C15   C16   1.521395 S    
C5    H11   1.106126 S    
C26   C27   1.395495 A    
C6    H14   1.108272 S    
P1    Ba1   3.386497 S    
O2    Ba1   2.900322 S    
C9    H22   1.110901 S    
Ba1   O13   2.795529 S    
C21   H42   1.075558 S    
C11   H25   1.108095 S    
O7    Ba1   2.878444 S    
C16   H39   1.110723 S    
C43   C51   1.387908 A    
C7    H15   1.106866 S    
C15   H36   1.110675 S    
P3    O9    1.544183 D    
O3    P6    1.740842 S    
C29   C30   1.434993 A    
P3    C46   1.832907 S    
C3    H6    1.109961 S    
C31   C42   1.426864 A    
P7    O22   1.750003 S    
C3    H30   1.109761 S    
C1    C10   1.520551 S    
C32   H43   1.077608 S    
P8    O24   1.749607 S    
P5    O19   1.749246 S    
O14   P8    1.732742 S    
O17   Ba2   2.744361 S    
