data_mof_unit_525.cif
_audit_creation_date              2012-12-11T15:18:40-0500
_audit_creation_method            fapswitch 2.2
_symmetry_space_group_name_H-M    P1
_symmetry_Int_Tables_number       1
_space_group_crystal_system       triclinic
_cell_length_a                    6.936052
_cell_length_b                    19.934594
_cell_length_c                    23.800636
_cell_angle_alpha                 93.417821
_cell_angle_beta                  91.455148
_cell_angle_gamma                 88.748299
_cell_volume                      3283.25727608

loop_
_atom_site_label
_atom_site_type_symbol
_atom_type_description
_atom_site_fract_x
_atom_site_fract_y
_atom_site_fract_z
_atom_type_partial_charge
O1    O     O_R   0.620100 0.812200 0.810870 -0.547270
O2    O     O_R   0.379900 0.187800 0.189130 -0.547267
O3    O     O_R   0.296960 0.671650 0.794750 -0.539052
O4    O     O_R   0.703040 0.328350 0.205250 -0.539052
O5    O     O_R   0.120160 0.687800 0.689130 -0.541728
O6    O     O_R   0.879840 0.312200 0.310870 -0.541729
C1    C     C_R   0.468765 0.647132 0.804842 0.715089
C2    C     C_R   0.531235 0.352868 0.195158 0.715091
O7    O     O_R   0.290810 0.810670 0.817290 -0.543664
O8    O     O_R   0.709190 0.189330 0.182710 -0.543665
O9    O     O_R   0.113980 0.827820 0.711840 -0.534654
O10   O     O_R   0.886020 0.172180 0.288160 -0.534654
C3    C     C_R   0.460951 0.830246 0.835201 0.721159
C4    C     C_R   0.539049 0.169754 0.164799 0.721164
O11   O     O_R   0.626290 0.672180 0.788160 -0.533864
O12   O     O_R   0.373710 0.327820 0.211840 -0.533862
O13   O     O_3   0.451520 0.755460 0.715370 -0.371591
O14   O     O_3   0.548480 0.244540 0.284630 -0.371592
V1    V     V_3+5 0.179200 0.748980 0.756420 1.435413
V2    V     V_3+5 0.820800 0.251020 0.243580 1.435417
O15   O     O_R   0.783880 0.828350 0.705250 -0.539424
O16   O     O_R   0.216120 0.171650 0.294750 -0.539425
C5    C     C_R   0.949895 0.852733 0.694896 0.700344
C6    C     C_R   0.050105 0.147267 0.305104 0.700342
O17   O     O_R   0.790030 0.689320 0.682700 -0.545323
O18   O     O_R   0.209970 0.310680 0.317300 -0.545323
C7    C     C_R   0.958703 0.668158 0.665596 0.700815
C8    C     C_R   0.041297 0.331842 0.334404 0.700813
V3    V     V_3+5 0.678400 0.751010 0.743570 1.431780
V4    V     V_3+5 0.321600 0.248990 0.256430 1.431786
O19   O     O_3   0.955950 0.744540 0.784620 -0.368949
O20   O     O_3   0.044050 0.255460 0.215380 -0.368946
C9    C     C_R   0.181962 0.426068 0.396676 -0.221266
C10   C     C_R   0.818038 0.573932 0.603323 -0.221266
C11   C     C_R   0.031455 0.380835 0.384097 -0.081356
C12   C     C_R   0.968545 0.619165 0.615903 -0.081356
C13   C     C_R   0.868778 0.383604 0.418565 -0.220270
C14   C     C_R   0.131222 0.616396 0.581435 -0.220270
C15   C     C_R   0.856432 0.430268 0.465141 0.089592
C16   C     C_R   0.143568 0.569732 0.534859 0.089592
C17   C     C_R   0.006479 0.476071 0.476855 0.054112
C18   C     C_R   0.993521 0.523929 0.523145 0.054112
C19   C     C_R   0.169290 0.474179 0.442306 0.091121
C20   C     C_R   0.830710 0.525821 0.557694 0.091121
C21   C     C_R   0.696491 0.432020 0.500253 -0.189395
C22   C     C_R   0.303509 0.567980 0.499747 -0.189394
C23   C     C_R   0.683961 0.479224 0.546121 -0.180718
C24   C     C_R   0.316039 0.520776 0.453879 -0.180718
H1    H     H_    0.307117 0.424784 0.370216 0.120601
H2    H     H_    0.692882 0.575216 0.629784 0.120601
H3    H     H_    0.580139 0.397105 0.492032 0.134636
H4    H     H_    0.419861 0.602894 0.507968 0.134636
C25   C     C_R   0.948708 0.914154 0.663243 -0.055060
C26   C     C_R   0.051292 0.085846 0.336757 -0.055060
C27   C     C_R   0.871606 0.032689 0.659885 -0.141275
C28   C     C_R   0.128394 0.967311 0.340115 -0.141275
C29   C     C_R   0.887471 0.974891 0.689825 -0.140562
C30   C     C_R   0.112529 0.025109 0.310174 -0.140562
C31   C     C_R   0.993594 0.911480 0.605797 -0.213951
C32   C     C_R   0.006405 0.088520 0.394203 -0.213951
C33   C     C_R   0.974943 0.969684 0.573791 0.087893
C34   C     C_R   0.025057 0.030315 0.426209 0.087893
C35   C     C_R   0.913181 0.030609 0.602379 0.126358
C36   C     C_R   0.086819 0.969391 0.397621 0.126357
C37   C     C_R   0.012479 0.969586 0.514608 0.058821
C38   C     C_R   0.987521 0.030414 0.485392 0.058821
C39   C     C_R   0.926541 0.089285 0.516375 -0.185435
C40   C     C_R   0.073459 0.910715 0.483624 -0.185435
C41   C     C_R   0.890745 0.089189 0.573484 -0.189581
C42   C     C_R   0.109255 0.910811 0.426516 -0.189581
H5    H     H_    0.843530 0.135739 0.595302 0.132786
H6    H     H_    0.156470 0.864261 0.404698 0.132786
H7    H     H_    0.149415 0.022577 0.266113 0.145885
H8    H     H_    0.850585 0.977423 0.733887 0.145885
H9    H     H_    0.823745 0.079159 0.681657 0.136928
H10   H     H_    0.176255 0.920840 0.318342 0.136928
C43   C     C_R   0.489981 0.585354 0.835812 -0.045672
C44   C     C_R   0.510019 0.414646 0.164187 -0.045672
C45   C     C_R   0.607193 0.469705 0.837007 0.000516
C46   C     C_R   0.392807 0.530295 0.162993 0.000516
C47   C     C_R   0.566663 0.527649 0.808239 -0.244958
C48   C     C_R   0.433337 0.472351 0.191761 -0.244958
C49   C     C_R   0.451736 0.585560 0.893347 -0.190465
C50   C     C_R   0.548264 0.414440 0.106653 -0.190461
C51   C     C_R   0.497017 0.528618 0.925042 0.064614
C52   C     C_R   0.502983 0.471382 0.074958 0.064614
C53   C     C_R   0.581846 0.470942 0.896276 0.104751
C54   C     C_R   0.418154 0.529057 0.103724 0.104751
C55   C     C_R   0.467482 0.528123 0.984665 0.063923
C56   C     C_R   0.532518 0.471877 0.015334 0.063924
C57   C     C_R   0.627254 0.418226 0.985497 -0.183434
C58   C     C_R   0.372746 0.581774 0.014502 -0.183435
C59   C     C_R   0.649557 0.417588 0.927732 -0.136205
C60   C     C_R   0.350443 0.582412 0.072268 -0.136204
H11   H     H_    0.728749 0.375328 0.908585 0.185309
H12   H     H_    0.271251 0.624672 0.091415 0.185310
H13   H     H_    0.602451 0.367718 0.087459 0.116191
H14   H     H_    0.397549 0.632282 0.912541 0.116190
H15   H     H_    0.406378 0.472202 0.236473 0.098560
H16   H     H_    0.593622 0.527798 0.763527 0.098560
C61   C     C_R   0.677401 0.075772 0.104461 -0.187322
C62   C     C_R   0.322599 0.924228 0.895539 -0.187316
C63   C     C_R   0.524963 0.121708 0.114577 -0.154159
C64   C     C_R   0.475037 0.878291 0.885423 -0.154165
C65   C     C_R   0.361617 0.120408 0.077518 -0.033393
C66   C     C_R   0.638383 0.879591 0.922482 -0.033391
C67   C     C_R   0.352192 0.071774 0.031591 0.065156
C68   C     C_R   0.647807 0.928225 0.968410 0.065166
C69   C     C_R   0.505143 0.024320 0.023033 0.017095
C70   C     C_R   0.494857 0.975679 0.976968 0.017090
C71   C     C_R   0.667997 0.025442 0.060471 0.077581
C72   C     C_R   0.332003 0.974557 0.939529 0.077580
C73   C     C_R   0.191721 0.069529 0.994155 -0.249404
C74   C     C_R   0.808279 0.930470 0.005845 -0.249397
C75   C     C_R   0.181497 0.023200 0.947851 -0.022682
C76   C     C_R   0.818503 0.976800 0.052150 -0.022688
H17   H     H_    0.072335 0.104966 0.000052 0.149923
H18   H     H_    0.927666 0.895034 0.999948 0.149933
C77   C     C_2   0.674875 0.409653 0.802511 0.366979
H19   H     H_    0.756099 0.416154 0.764880 0.052151
O21   O     O_2   0.630507 0.352984 0.813256 -0.514925
C78   C     C_2   0.325125 0.590347 0.197489 0.366980
H20   H     H_    0.243901 0.583846 0.235120 0.052151
O22   O     O_2   0.369493 0.647016 0.186744 -0.514924
H21   H     H_    0.690207 0.375850 0.005774 0.142877
H22   H     H_    0.309793 0.624150 0.994226 0.142878
H23   H     H_    0.803374 0.079962 0.131859 0.169402
H24   H     H_    0.196626 0.920038 0.868141 0.169403
C79   C     C_2   0.205023 0.171667 0.085196 0.365088
H25   H     H_    0.102224 0.167914 0.118399 0.068781
O23   O     O_2   0.190453 0.218108 0.054075 -0.521542
C80   C     C_2   0.794976 0.828331 0.914805 0.365066
H26   H     H_    0.897761 0.832079 0.881597 0.068796
O24   O     O_2   0.809562 0.781897 0.945931 -0.521541
C81   C     C_2   0.010833 0.029714 0.909356 0.362562
H27   H     H_    0.873272 0.046623 0.926463 0.066337
O25   O     O_2   0.023834 0.021176 0.858378 -0.533922
C82   C     C_2   0.989167 0.970286 0.090644 0.362564
H28   H     H_    0.126728 0.953377 0.073537 0.066337
O26   O     O_2   0.976167 0.978824 0.141622 -0.533922
H29   H     H_    0.752361 0.348882 0.409470 0.125617
H30   H     H_    0.247639 0.651117 0.590530 0.125617
H31   H     H_    0.558470 0.479567 0.572351 0.136521
H32   H     H_    0.441530 0.520433 0.427649 0.136521
H33   H     H_    0.962517 0.136931 0.412641 0.094872
H34   H     H_    0.037483 0.863069 0.587359 0.094872
H35   H     H_    0.904229 0.136776 0.497696 0.124314
H36   H     H_    0.095771 0.863224 0.502304 0.124314

loop_
_geom_bond_atom_site_label_1
_geom_bond_atom_site_label_2
_ccdc_geom_bond_type
V4    O20   S    
C28   H10   S    
C23   H31   S    
C14   H30   S    
C17   C18   A    
C62   C72   A    
O4    C2    A    
V1    O19   S    
C75   C81   S    
C45   C53   A    
C25   C31   A    
C81   H27   S    
C15   C17   A    
C26   C32   A    
C16   C22   A    
C65   C67   A    
O9    V1    S    
C13   H29   S    
C50   H13   S    
C11   C13   A    
C50   C52   A    
O3    C1    A    
C69   C71   A    
V2    O20   S    
C52   C54   A    
C54   C60   A    
C21   H3    S    
C6    C26   S    
C22   H4    S    
O13   V3    S    
C24   H32   S    
C32   C34   A    
C48   H15   S    
C68   C74   A    
O9    C5    A    
C41   H5    S    
O7    C3    A    
C67   C73   A    
C34   C36   A    
C9    C11   A    
O5    C7    A    
O7    V1    S    
O6    C8    A    
C35   C41   A    
C8    C11   S    
O8    V2    S    
C80   H26   S    
C49   H14   S    
C27   C35   A    
C28   C36   A    
O3    V1    S    
C71   C76   A    
O14   V4    S    
C36   C42   A    
C28   C30   A    
O16   V4    S    
C19   C24   A    
C10   C12   A    
C40   H36   S    
C20   C23   A    
C1    C43   S    
C27   H9    S    
C21   C23   A    
C38   C39   A    
C2    O12   A    
C46   C54   A    
C2    C44   S    
C17   C19   A    
C18   C20   A    
C58   C60   A    
O11   V3    S    
C76   C82   S    
C51   C53   A    
O17   V3    S    
C22   C24   A    
C10   H2    S    
C31   C33   A    
C34   C38   A    
C9    C19   A    
C10   C20   A    
C46   C48   A    
C52   C56   A    
C45   C47   A    
C25   C29   A    
O13   V1    S    
C46   C78   S    
O15   V3    S    
C45   C77   S    
C39   C41   A    
C29   H8    S    
C60   H12   S    
C33   C37   A    
C57   C59   A    
C44   C48   A    
C74   C76   A    
C43   C47   A    
V3    O19   S    
C37   C40   A    
O10   V2    S    
O1    V3    S    
C63   C65   A    
C55   C58   A    
C62   C64   A    
C74   H18   S    
C77   O21   D    
C82   O26   D    
C73   H17   S    
C80   O24   D    
C49   C51   A    
O18   V4    S    
C27   C29   A    
C39   H35   S    
O16   C6    A    
O1    C3    A    
C32   H33   S    
O12   V4    S    
C78   O22   D    
C12   C14   A    
C79   H25   S    
C26   C30   A    
C81   O25   D    
C51   C55   A    
C57   H21   S    
C33   C35   A    
C16   C18   A    
C58   H22   S    
C65   C79   S    
C77   H19   S    
C64   C66   A    
O5    V1    S    
C47   H16   S    
C7    C12   S    
O17   C7    A    
O6    V2    S    
O10   C6    A    
O18   C8    A    
C61   C63   A    
C15   C21   A    
O2    V4    S    
O15   C5    A    
C55   C56   A    
C13   C15   A    
C69   C70   A    
C14   C16   A    
C4    C63   S    
C67   C69   A    
C66   C68   A    
C61   C71   A    
C53   C59   A    
C5    C25   S    
C1    O11   A    
C61   H23   S    
C68   C70   A    
O14   V2    S    
O2    C4    A    
C70   C72   A    
C82   H28   S    
C66   C80   S    
O4    V2    S    
C31   H34   S    
C44   C50   A    
C59   H11   S    
C37   C38   A    
C3    C64   S    
C40   C42   A    
C43   C49   A    
C42   H6    S    
C79   O23   D    
C78   H20   S    
C62   H24   S    
C9    H1    S    
C72   C75   A    
C56   C57   A    
C30   H7    S    
O8    C4    A    
C73   C75   A    
