data_mof_unit_3465.cif
_audit_creation_date              2012-12-10T19:52:22-0500
_audit_creation_method            fapswitch 2.2
_symmetry_space_group_name_H-M    P1
_symmetry_Int_Tables_number       1
_space_group_crystal_system       triclinic
_cell_length_a                    14.899609
_cell_length_b                    14.245654
_cell_length_c                    10.692862
_cell_angle_alpha                 89.313375
_cell_angle_beta                  93.363065
_cell_angle_gamma                 90.21229
_cell_volume                      2265.52840213

loop_
_atom_site_label
_atom_site_type_symbol
_atom_type_description
_atom_site_fract_x
_atom_site_fract_y
_atom_site_fract_z
_atom_type_partial_charge
C1    C     C_R   0.327897 0.500010 0.504037 0.886643
C2    C     C_R   0.906178 0.583884 0.578869 -0.153734
C3    C     C_R   0.817650 0.416919 0.511126 -0.178336
C4    C     C_R   0.814052 0.583817 0.555993 -0.088192
C5    C     C_R   0.769573 0.500565 0.520694 -0.000695
C6    C     C_R   0.954541 0.501263 0.563935 0.106028
C7    C     C_R   0.432231 0.098763 0.476172 -0.301940
C8    C     C_R   0.465565 0.902407 0.416243 -0.286480
C9    C     C_R   0.497904 0.500398 0.257518 0.913500
C10   C     C_R   0.428486 0.196456 0.458847 0.556937
C11   C     C_R   0.454463 0.804810 0.412371 0.566148
C12   C     C_3   0.603301 0.471337 0.943130 0.727434
C13   C     C_R   0.576357 0.209477 0.550436 -0.013352
C14   C     C_R   0.553017 0.789003 0.593242 -0.073401
C15   C     C_R   0.583847 0.110375 0.559862 -0.237337
C16   C     C_R   0.560304 0.888126 0.603181 -0.242626
C17   C     C_R   0.510974 0.052999 0.520584 0.084113
C18   C     C_R   0.514604 0.946779 0.514119 0.077202
C19   C     C_R   0.672703 0.500150 0.502376 0.925940
C20   C     C_R   0.504479 0.499681 0.742663 0.934958
C21   C     C_3   0.481229 0.599943 0.066644 -0.286041
C22   C     C_3   0.428871 0.431763 0.064661 -0.347197
C23   C     C_R   0.089596 0.575744 0.488411 -0.157128
C24   C     C_3   0.481661 0.599300 0.924627 -0.412978
C25   C     C_3   0.430625 0.433492 0.921871 -0.457528
C26   C     C_3   0.594475 0.467221 0.087300 -0.465429
C27   C     C_3   0.500431 0.500423 0.121416 -0.030127
C28   C     C_3   0.507134 0.499626 0.879718 -0.063196
C29   C     C_R   0.104888 0.435375 0.619548 -0.145450
C30   C     C_R   0.180354 0.573882 0.470141 -0.170568
C31   C     C_R   0.196079 0.433554 0.600898 -0.121942
C32   C     C_R   0.233112 0.501120 0.522842 -0.049947
C33   C     C_R   0.051391 0.505646 0.561348 0.095419
C34   C     C_R   0.910105 0.417335 0.532455 -0.137888
H1    H     H_    0.531569 0.651424 0.105102 0.257496
H2    H     H_    0.600107 0.918179 0.680719 0.169796
H3    H     H_    0.413680 0.622604 0.091387 0.232323
H4    H     H_    0.360809 0.451962 0.092465 0.185086
H5    H     H_    0.413589 0.619189 0.884198 0.189767
H6    H     H_    0.364431 0.459164 0.881437 0.170482
H7    H     H_    0.527806 0.654678 0.892282 0.253798
H8    H     H_    0.436151 0.361129 0.886857 0.252465
H9    H     H_    0.647121 0.510193 0.138007 0.202473
H10   H     H_    0.604809 0.394528 0.124523 0.208487
H11   H     H_    0.048726 0.629862 0.441620 0.152549
H12   H     H_    0.442593 0.358872 0.098973 0.253104
H13   H     H_    0.075863 0.381665 0.677470 0.152919
H14   H     H_    0.208580 0.628313 0.413159 0.203943
H15   H     H_    0.237687 0.380222 0.647994 0.176331
H16   H     H_    0.947182 0.353382 0.518593 0.153886
H17   H     H_    0.940149 0.648969 0.603925 0.144270
H18   H     H_    0.283371 0.355181 0.262963 0.366611
H19   H     H_    0.294237 0.651923 0.226001 0.352424
H20   H     H_    0.727165 0.698208 0.967247 0.391054
H21   H     H_    0.735975 0.327049 0.748432 0.372754
H22   H     H_    0.784152 0.351794 0.485130 0.155942
H23   H     H_    0.777851 0.648821 0.566231 0.169301
H24   H     H_    0.372782 0.057588 0.451447 0.205272
H25   H     H_    0.433172 0.944523 0.341725 0.207530
H26   H     H_    0.633222 0.251697 0.581952 0.182480
H27   H     H_    0.589449 0.745163 0.661964 0.189821
H28   H     H_    0.646577 0.079298 0.595418 0.160691
N1    N     N_R   0.499980 0.252470 0.500000 -0.153537
N2    N     N_R   0.499980 0.747530 0.500000 -0.155682
O1    O     O_R   0.369070 0.579480 0.500010 -0.569735
O2    O     O_2   0.261872 0.260206 0.475586 -0.322176
O3    O     O_3   0.344528 0.332937 0.289621 -0.560749
O4    O     O_2   0.293634 0.826616 0.297514 -0.299855
O5    O     O_2   0.417538 0.791305 0.167934 -0.330580
O6    O     O_3   0.345169 0.655552 0.289654 -0.576715
O7    O     O_2   0.781750 0.515981 0.940853 -0.227715
O8    O     O_2   0.683704 0.585567 0.774242 -0.352400
O9    O     O_3   0.681279 0.654181 0.997185 -0.618845
O10   O     O_2   0.721544 0.328110 0.982429 -0.279623
O11   O     O_2   0.574607 0.283135 0.890301 -0.323020
O12   O     O_R   0.369070 0.420520 0.500010 -0.555607
O13   O     O_3   0.684524 0.370783 0.749649 -0.541691
O14   O     O_R   0.499990 0.579480 0.314790 -0.571713
O15   O     O_R   0.499990 0.420520 0.314790 -0.586201
O16   O     O_R   0.630940 0.579480 0.499990 -0.623418
O17   O     O_R   0.630940 0.420520 0.499990 -0.622936
O18   O     O_R   0.500020 0.579480 0.685200 -0.631352
O19   O     O_R   0.500020 0.420520 0.685200 -0.579052
O20   O     O_2   0.288767 0.162458 0.296622 -0.280584
S1    S     S_3+6 0.328246 0.238270 0.379886 0.043365
S2    S     S_3+6 0.376945 0.768152 0.289932 0.011308
S3    S     S_3+6 0.690340 0.557463 0.910109 0.011745
S4    S     S_3+6 0.645183 0.358646 0.892959 0.043532
Zn1   Zn    Zn3+2 0.500010 0.606140 0.500000 1.032177
Zn2   Zn    Zn3+2 0.500010 0.393860 0.500000 1.055193

loop_
_geom_bond_atom_site_label_1
_geom_bond_atom_site_label_2
_ccdc_geom_bond_type
C7    C10   A    
C10   S1    S    
C23   H11   S    
C20   O18   A    
O4    S2    D    
C10   N1    A    
O2    S1    D    
C26   H10   S    
C13   H26   S    
C25   C28   S    
O1    Zn1   S    
C26   C27   S    
O18   Zn1   S    
C29   H13   S    
C30   H14   S    
C25   H6    S    
H21   O13   S    
C11   S2    S    
C22   H4    S    
C29   C33   A    
C24   H5    S    
C9    O15   A    
O16   Zn1   S    
O9    S3    S    
O15   Zn2   S    
O13   S4    S    
C7    C17   A    
C22   C25   S    
C4    H23   S    
C1    O1    A    
C7    H24   S    
C21   C27   S    
C24   H7    S    
C2    C6    A    
N2    Zn1   S    
C31   H15   S    
H19   O6    S    
C26   H9    S    
O14   Zn1   S    
C34   H16   S    
O3    S1    S    
C12   S4    S    
C23   C30   A    
O20   S1    D    
C11   N2    A    
C20   C28   S    
C3    C34   A    
C23   C33   A    
C14   H27   S    
C1    C32   S    
C8    C18   A    
C6    C34   A    
C12   C26   S    
C2    C4    A    
H20   O9    S    
C3    H22   S    
C31   C32   A    
C13   N1    A    
C14   N2    A    
C17   C18   S    
H18   O3    S    
O7    S3    D    
O17   Zn2   S    
C16   C18   A    
C22   H12   S    
C12   C28   S    
C22   C27   S    
C13   C15   A    
C14   C16   A    
C20   O19   A    
O6    S2    S    
O8    S3    D    
C9    C27   S    
C15   C17   A    
O19   Zn2   S    
C12   S3    S    
C1    O12   A    
C24   C28   S    
C4    C5    A    
C3    C5    A    
C25   H8    S    
C5    C19   S    
C6    C33   S    
C21   H1    S    
C8    H25   S    
C16   H2    S    
C30   C32   A    
C8    C11   A    
N1    Zn2   S    
C15   H28   S    
C9    O14   A    
C19   O16   A    
C2    H17   S    
O11   S4    D    
C21   H3    S    
C29   C31   A    
C21   C24   S    
O10   S4    D    
C19   O17   A    
O5    S2    D    
O12   Zn2   S    
