data_mof_unit_2403.cif
_audit_creation_date              2013-03-05T16:27:58-0500
_audit_creation_method            fapswitch 2.2
_symmetry_space_group_name_H-M    P1
_symmetry_Int_Tables_number       1
_space_group_crystal_system       triclinic
_cell_length_a                    28.548864
_cell_length_b                    18.216292
_cell_length_c                    21.804664
_cell_angle_alpha                 89.68059
_cell_angle_beta                  140.450939
_cell_angle_gamma                 90.378283
_cell_volume                      7220.21071849

loop_
_atom_site_label
_atom_site_type_symbol
_atom_site_description
_atom_site_fract_x
_atom_site_fract_y
_atom_site_fract_z
_atom_type_partial_charge
O1    O     O_R   0.892660 0.939370 0.892650 -0.620078
O2    O     O_R   0.107340 0.060630 0.107350 -0.618951
O3    O     O_R   0.107340 0.939370 0.107350 -0.596860
O4    O     O_R   0.892660 0.060630 0.892650 -0.596090
O5    O     O_R   0.392660 0.439370 0.892650 -0.610881
O6    O     O_R   0.607340 0.560630 0.107350 -0.609790
O7    O     O_R   0.607340 0.439370 0.107350 -0.600991
O8    O     O_R   0.392660 0.560630 0.892650 -0.601521
C1    C     C_R   0.858666 0.999865 0.857827 1.014560
C2    C     C_R   0.141307 0.000112 0.140688 0.942669
C3    C     C_R   0.358680 0.499890 0.858855 0.943860
C4    C     C_R   0.641318 0.500109 0.141076 0.944930
O9    O     O_R   0.999980 0.939370 0.907380 -0.660372
O10   O     O_R   0.000020 0.060630 0.092620 -0.564137
O11   O     O_R   0.000020 0.939370 0.092620 -0.643797
O12   O     O_R   0.999980 0.060630 0.907380 -0.610105
O13   O     O_R   0.499980 0.439370 0.907380 -0.657116
O14   O     O_R   0.500020 0.560630 0.092620 -0.656941
O15   O     O_R   0.500020 0.439370 0.092620 -0.606564
O16   O     O_R   0.499980 0.560630 0.907380 -0.603082
C5    C     C_R   0.001512 0.000254 0.880099 0.869447
C6    C     C_R   0.997290 0.000264 0.118625 0.996617
C7    C     C_R   0.501595 0.500248 0.880189 0.879195
C8    C     C_R   0.498389 0.499755 0.119754 0.879674
Zn1   Zn    Zn3+2 0.000000 0.919050 0.000000 1.071817
Zn2   Zn    Zn3+2 0.000000 0.080950 0.000000 1.110715
Zn3   Zn    Zn3+2 0.500000 0.419050 0.000000 1.080583
Zn4   Zn    Zn3+2 0.500000 0.580950 0.000000 1.084838
C9    C     C_3   0.928456 0.971103 0.714020 -0.410713
C10   C     C_3   0.075975 0.008748 0.290415 -0.403533
C11   C     C_3   0.964793 0.922461 0.176908 -0.411172
C12   C     C_3   0.013824 0.083188 0.799976 -0.361680
C13   C     C_3   0.428279 0.471826 0.713864 -0.408018
C14   C     C_3   0.572226 0.526490 0.286546 -0.418323
C15   C     C_3   0.483773 0.416852 0.197197 -0.369145
C16   C     C_3   0.514581 0.583136 0.800830 -0.362836
H1    H     H_    0.893687 0.019490 0.684998 0.245766
H2    H     H_    0.096607 0.952957 0.305486 0.235549
H3    H     H_    0.004422 0.885478 0.194006 0.217130
H4    H     H_    0.964724 0.108462 0.771874 0.241689
H5    H     H_    0.393900 0.520492 0.685206 0.246309
H6    H     H_    0.605665 0.477196 0.314197 0.251097
H7    H     H_    0.532157 0.390485 0.224382 0.238702
H8    H     H_    0.465702 0.608835 0.772951 0.243252
C17   C     C_3   0.926937 0.956420 0.641718 0.501614
C18   C     C_3   0.080427 0.022557 0.365815 0.519764
C19   C     C_3   0.975340 0.909169 0.258922 0.522416
C20   C     C_3   0.003415 0.090300 0.717422 0.509871
C21   C     C_3   0.426696 0.457135 0.641512 0.500465
C22   C     C_3   0.573911 0.540932 0.359020 0.525634
C23   C     C_3   0.494292 0.408774 0.279734 0.509736
C24   C     C_3   0.504229 0.590448 0.718352 0.507219
C25   C     C_3   0.074845 0.950697 0.863955 -0.322101
C26   C     C_3   0.942415 0.068778 0.156023 -0.266938
C27   C     C_3   0.574464 0.450084 0.863481 -0.326058
C28   C     C_3   0.426757 0.551324 0.137830 -0.318743
C29   C     C_3   0.006376 0.000003 0.816689 -0.378222
C30   C     C_3   0.993407 0.001948 0.182786 -0.232218
C31   C     C_3   0.506439 0.499987 0.816764 -0.380117
C32   C     C_3   0.493559 0.499970 0.183114 -0.379829
C33   C     C_3   0.002969 0.002228 0.692368 -0.494010
C34   C     C_3   0.996522 0.994403 0.306943 -0.500647
C35   C     C_3   0.503015 0.502420 0.692409 -0.496341
C36   C     C_3   0.496979 0.496726 0.307448 -0.506593
C37   C     C_3   0.082567 0.959653 0.796918 0.534749
C38   C     C_3   0.929392 0.054148 0.216188 0.498050
C39   C     C_3   0.582216 0.459234 0.796441 0.545036
C40   C     C_3   0.418575 0.541199 0.204243 0.542434
C41   C     C_1   0.782096 0.999630 0.782123 -0.069023
C42   C     C_1   0.217882 0.000299 0.216841 -0.078988
C43   C     C_1   0.282116 0.499701 0.782812 -0.094815
C44   C     C_1   0.717882 0.500297 0.217144 -0.090056
C45   C     C_1   0.717167 0.999691 0.717762 -0.108810
C46   C     C_1   0.282824 0.000244 0.281865 -0.091234
C47   C     C_1   0.217176 0.499753 0.718005 -0.096751
C48   C     C_1   0.782823 0.500246 0.281981 -0.090348
O17   O     O_R   0.939350 0.892680 0.439340 -0.594421
O18   O     O_R   0.060650 0.107320 0.560660 -0.572900
O19   O     O_R   0.060650 0.892680 0.560660 -0.587664
O20   O     O_R   0.939350 0.107320 0.439340 -0.599507
O21   O     O_R   0.439350 0.392680 0.439340 -0.591898
O22   O     O_R   0.560650 0.607320 0.560660 -0.575643
O23   O     O_R   0.560650 0.392680 0.560660 -0.599856
O24   O     O_R   0.439350 0.607320 0.439340 -0.600494
C49   C     C_R   0.999839 0.858671 0.498487 1.025131
C50   C     C_R   0.000135 0.141300 0.502029 1.014460
C51   C     C_R   0.499850 0.358678 0.498356 1.025756
C52   C     C_R   0.500148 0.641320 0.501668 1.013944
O25   O     O_R   0.939380 1.000000 0.531980 -0.592872
O26   O     O_R   0.060620 1.000000 0.468020 -0.553259
O27   O     O_R   0.439380 0.500000 0.531980 -0.593379
O28   O     O_R   0.560620 0.500000 0.468020 -0.551720
O29   O     O_R   0.060570 1.000000 0.653170 -0.525937
O30   O     O_R   0.939430 1.000000 0.346830 -0.523629
O31   O     O_R   0.560570 0.500000 0.653170 -0.521248
O32   O     O_R   0.439430 0.500000 0.346830 -0.538045
C53   C     C_R   0.000562 0.002298 0.622209 0.991460
C54   C     C_R   0.999324 0.994343 0.377769 1.000445
C55   C     C_R   0.500565 0.502497 0.622205 0.994402
C56   C     C_R   0.499436 0.496806 0.377775 1.000651
Zn5   Zn    Zn3+2 0.919050 1.000000 0.419040 1.206998
Zn6   Zn    Zn3+2 0.080950 1.000000 0.580960 1.249680
Zn7   Zn    Zn3+2 0.419050 0.500000 0.419040 1.205267
Zn8   Zn    Zn3+2 0.580950 0.500000 0.580960 1.234124
O33   O     O_R   0.499910 0.107290 0.447610 -0.586544
O34   O     O_R   0.500090 0.892710 0.552390 -0.587846
O35   O     O_R   0.500090 0.107290 0.552390 -0.605017
O36   O     O_R   0.499910 0.892710 0.447610 -0.597903
O37   O     O_R   0.999910 0.607290 0.447610 -0.596747
O38   O     O_R   0.000090 0.392710 0.552390 -0.589844
O39   O     O_R   0.000090 0.607290 0.552390 -0.604289
O40   O     O_R   0.999910 0.392710 0.447610 -0.594860
C57   C     C_R   0.499928 0.140591 0.499761 0.882584
C58   C     C_R   0.500068 0.859410 0.500224 0.889464
C59   C     C_R   0.999888 0.640588 0.499724 0.888435
C60   C     C_R   0.000044 0.359409 0.500215 0.887546
O41   O     O_R   0.607280 1.000000 0.555010 -0.590251
O42   O     O_R   0.392720 1.000000 0.444990 -0.592369
O43   O     O_R   0.107280 0.500000 0.555010 -0.590948
O44   O     O_R   0.892720 0.500000 0.444990 -0.593441
O45   O     O_R   0.607300 1.000000 0.659580 -0.604594
O46   O     O_R   0.392700 1.000000 0.340420 -0.595506
O47   O     O_R   0.107300 0.500000 0.659580 -0.605292
O48   O     O_R   0.892700 0.500000 0.340420 -0.593214
C61   C     C_R   0.640576 0.999905 0.640846 0.888092
C62   C     C_R   0.359421 0.000070 0.359108 0.893128
C63   C     C_R   0.140579 0.499928 0.640877 0.891930
C64   C     C_R   0.859421 0.500072 0.359122 0.896105
Zn9   Zn    Zn3+2 0.499950 1.000000 0.430140 1.130992
Zn10  Zn    Zn3+2 0.500050 1.000000 0.569860 1.101100
Zn11  Zn    Zn3+2 0.999950 0.500000 0.430140 1.128224
Zn12  Zn    Zn3+2 0.000050 0.500000 0.569860 1.097471
C65   C     C_1   0.999565 0.782078 0.498540 -0.009743
C66   C     C_1   0.000288 0.217909 0.501637 -0.021222
C67   C     C_1   0.499649 0.282088 0.498515 -0.020972
C68   C     C_1   0.500333 0.717912 0.501382 -0.010668
C69   C     C_1   0.499729 0.217189 0.499093 -0.103446
C70   C     C_1   0.500255 0.782813 0.500824 -0.087560
C71   C     C_1   0.999633 0.717181 0.499033 -0.116490
C72   C     C_1   0.000206 0.282811 0.500888 -0.087489
C73   C     C_2   0.884794 0.917236 0.710563 0.589860
H9    H     H_    0.897064 0.859421 0.725717 0.110688
O49   O     O_2   0.833378 0.938951 0.689728 -0.539802
C74   C     C_2   0.132797 0.048406 0.307470 0.609774
H10   H     H_    0.140459 0.107023 0.315525 0.187958
O50   O     O_2   0.173255 0.013417 0.314674 -0.567920
C75   C     C_2   0.896345 0.890381 0.078303 0.664182
H11   H     H_    0.856830 0.923547 0.014647 0.137472
O51   O     O_2   0.886919 0.823932 0.067915 -0.470980
C76   C     C_2   0.071771 0.132348 0.887807 0.641218
H12   H     H_    0.129234 0.119755 0.945887 0.112324
O52   O     O_2   0.053850 0.189631 0.894522 -0.482436
C77   C     C_2   0.384178 0.418348 0.709987 0.590149
H13   H     H_    0.395837 0.360398 0.724389 0.110699
O53   O     O_2   0.333107 0.440548 0.689651 -0.534682
C78   C     C_2   0.617404 0.579167 0.291590 0.589514
H14   H     H_    0.607085 0.637375 0.278696 0.113002
O54   O     O_2   0.667921 0.555966 0.311259 -0.533586
C79   C     C_2   0.424844 0.369016 0.108248 0.635072
H15   H     H_    0.368467 0.385073 0.047423 0.107752
O55   O     O_2   0.440784 0.308839 0.103702 -0.479875
C80   C     C_2   0.572960 0.631726 0.889161 0.639081
H16   H     H_    0.630259 0.618418 0.947354 0.114302
O56   O     O_2   0.555599 0.689338 0.896189 -0.482489
S1    S     S_3+6 0.831337 0.983268 0.516309 0.172306
O57   O     O_2   0.781213 0.997990 0.519088 -0.176161
O58   O     O_2   0.826686 0.047785 0.469240 -0.208868
O59   O     O_3   0.788021 0.916300 0.433087 -0.412733
H17   H     H_    0.797130 0.926970 0.398302 0.373881
S2    S     S_3+6 0.165198 0.973560 0.481913 0.147121
O60   O     O_2   0.149533 0.910592 0.508512 -0.216047
O61   O     O_2   0.212226 0.947271 0.477172 -0.227897
O62   O     O_3   0.221387 0.027566 0.580476 -0.438698
H18   H     H_    0.265843 0.997675 0.633299 0.382828
S3    S     S_3+6 0.044260 0.832965 0.332565 0.105342
O63   O     O_2   0.012810 0.768220 0.266907 -0.197719
O64   O     O_2   0.116773 0.844751 0.374984 -0.229158
O65   O     O_3   0.056799 0.806610 0.418662 -0.522752
H19   H     H_    0.077425 0.756437 0.437289 0.397280
S4    S     S_3+6 0.919548 0.148027 0.625321 0.105049
O66   O     O_2   0.899835 0.161042 0.539198 -0.235633
O67   O     O_2   0.853293 0.123677 0.594068 -0.251029
O68   O     O_3   0.940687 0.230385 0.677074 -0.453287
H20   H     H_    0.899580 0.263099 0.623749 0.403456
S5    S     S_3+6 0.331370 0.484597 0.516256 0.171102
O69   O     O_2   0.281211 0.499509 0.518940 -0.177679
O70   O     O_2   0.327265 0.549249 0.469824 -0.209175
O71   O     O_3   0.287840 0.417934 0.432626 -0.413123
H21   H     H_    0.297314 0.428543 0.398255 0.374262
S6    S     S_3+6 0.668494 0.511710 0.483671 0.154820
O72   O     O_2   0.670534 0.446892 0.527927 -0.204050
O73   O     O_2   0.718748 0.496619 0.481118 -0.232070
O74   O     O_3   0.711998 0.577129 0.568520 -0.434824
H22   H     H_    0.763336 0.559837 0.624882 0.381779
S7    S     S_3+6 0.576935 0.348854 0.370066 0.108968
O75   O     O_2   0.557417 0.276247 0.321741 -0.191518
O76   O     O_2   0.644234 0.373051 0.403796 -0.243682
O77   O     O_3   0.596963 0.332175 0.464562 -0.506794
H23   H     H_    0.628470 0.287925 0.496148 0.395387
S8    S     S_3+6 0.420785 0.648781 0.626685 0.106453
O78   O     O_2   0.401406 0.662115 0.540874 -0.236613
O79   O     O_2   0.354250 0.624769 0.594938 -0.247492
O80   O     O_3   0.442319 0.730885 0.679127 -0.452224
H24   H     H_    0.401511 0.763925 0.626018 0.404697
S9    S     S_3+6 0.917408 0.855856 0.616362 0.058208
O81   O     O_2   0.846614 0.828850 0.573112 -0.224648
O82   O     O_2   0.909377 0.844914 0.540253 -0.255562
O83   O     O_3   0.980387 0.796353 0.705238 -0.560142
H25   H     H_    0.964154 0.747814 0.673543 0.406025
S10   S     S_3+6 0.112904 0.118315 0.415814 0.106714
O84   O     O_2   0.122922 0.126036 0.494083 -0.193718
O85   O     O_2   0.188276 0.128336 0.464385 -0.249456
O86   O     O_3   0.065814 0.192155 0.344910 -0.503917
H26   H     H_    0.095201 0.234984 0.388188 0.410662
S11   S     S_3+6 0.896481 0.857078 0.218703 0.143244
O87   O     O_2   0.910787 0.775971 0.237792 -0.189493
O88   O     O_2   0.886352 0.879397 0.273636 -0.283836
O89   O     O_3   0.813875 0.858905 0.101161 -0.442402
H27   H     H_    0.779508 0.835423 0.095960 0.401786
S12   S     S_3+6 0.069121 0.156739 0.743195 0.104081
O90   O     O_2   0.110541 0.123297 0.733537 -0.265992
O91   O     O_2   0.029443 0.219608 0.672913 -0.245214
O92   O     O_3   0.130230 0.199117 0.850734 -0.486841
H28   H     H_    0.162293 0.228081 0.855223 0.402639
S13   S     S_3+6 0.416573 0.356602 0.615774 0.059475
O93   O     O_2   0.345489 0.330148 0.572082 -0.231476
O94   O     O_2   0.408705 0.345336 0.539856 -0.253591
O95   O     O_3   0.479161 0.297012 0.704816 -0.549536
H29   H     H_    0.462787 0.248429 0.673180 0.410705
S14   S     S_3+6 0.585613 0.641216 0.386756 0.072955
O96   O     O_2   0.594130 0.651733 0.463385 -0.209943
O97   O     O_2   0.656942 0.666777 0.430567 -0.236404
O98   O     O_3   0.523522 0.701952 0.299048 -0.550836
H30   H     H_    0.540972 0.750224 0.331636 0.414617
S15   S     S_3+6 0.426592 0.343848 0.251598 0.111517
O99   O     O_2   0.463464 0.275878 0.313256 -0.230566
O100  O     O_2   0.392190 0.375663 0.272557 -0.268129
O101  O     O_3   0.359122 0.309622 0.139171 -0.484086
H31   H     H_    0.326510 0.281863 0.134530 0.405580
S16   S     S_3+6 0.570554 0.656450 0.744931 0.105871
O102  O     O_2   0.610721 0.623078 0.733302 -0.266033
O103  O     O_2   0.531559 0.720383 0.676281 -0.241912
O104  O     O_3   0.632944 0.697201 0.853592 -0.484539
H32   H     H_    0.665146 0.725979 0.858200 0.407686
C81   C     C_2   0.062453 0.871395 0.873132 0.679361
H33   H     H_    0.008698 0.849784 0.824277 0.074829
O105  O     O_2   0.112323 0.831581 0.941151 -0.450153
C82   C     C_2   0.972304 0.145510 0.170898 0.564533
H34   H     H_    0.940035 0.193679 0.147658 0.137712
O106  O     O_2   0.027009 0.157274 0.195660 -0.554375
C83   C     C_2   0.870224 0.078084 0.046720 0.446715
H35   H     H_    0.831064 0.119419 0.021558 0.153263
O107  O     O_2   0.855880 0.045095 0.985359 -0.627400
C84   C     C_2   0.142679 0.974804 0.971152 0.608557
H36   H     H_    0.138756 0.017628 0.000938 -0.056817
O108  O     O_2   0.200589 0.941008 0.029646 -0.434451
C85   C     C_2   0.561658 0.370814 0.872272 0.658708
H37   H     H_    0.507811 0.350093 0.825369 0.075875
O109  O     O_2   0.611767 0.329693 0.937719 -0.454870
C86   C     C_2   0.441346 0.630561 0.131577 0.655981
H38   H     H_    0.495594 0.649979 0.178533 0.074334
O110  O     O_2   0.392155 0.673123 0.067787 -0.442667
C87   C     C_2   0.358271 0.530385 0.029661 0.623898
H39   H     H_    0.361062 0.489088 0.997313 -0.061028
O111  O     O_2   0.300893 0.564925 0.973697 -0.447073
C88   C     C_2   0.642508 0.473436 0.970903 0.607691
H40   H     H_    0.638917 0.515982 0.001309 -0.054592
O112  O     O_2   0.700245 0.439357 0.028830 -0.436466
S17   S     S_3+6 0.103672 0.871738 0.774791 0.138266
O113  O     O_2   0.044374 0.850926 0.671322 -0.314829
O114  O     O_2   0.170111 0.878898 0.801051 -0.181508
O115  O     O_3   0.122903 0.798571 0.838526 -0.438379
H41   H     H_    0.128259 0.756964 0.815217 0.398342
S18   S     S_3+6 0.922496 0.138353 0.259021 0.087708
O116  O     O_2   0.990325 0.158854 0.361388 -0.298304
O117  O     O_2   0.895708 0.204614 0.197571 -0.279698
O118  O     O_3   0.860167 0.124865 0.252435 -0.442142
H42   H     H_    0.850525 0.174157 0.259865 0.384999
S19   S     S_3+6 0.830136 0.025947 0.125487 0.092550
O119  O     O_2   0.800617 0.979542 0.044991 -0.312539
O120  O     O_2   0.812274 0.990804 0.167956 -0.175154
O121  O     O_3   0.777409 0.101992 0.068999 -0.491988
H43   H     H_    0.726333 0.084539 0.024097 0.401660
S20   S     S_3+6 0.174172 0.005131 0.873400 0.131515
O122  O     O_2   0.187994 0.074421 0.921433 -0.315010
O123  O     O_2   0.233892 0.953192 0.953562 -0.161760
O124  O     O_3   0.193473 0.019196 0.818156 -0.440195
H44   H     H_    0.244444 0.038635 0.868752 0.390319
S21   S     S_3+6 0.602922 0.371736 0.773623 0.134448
O125  O     O_2   0.620161 0.307074 0.831287 -0.199257
O126  O     O_2   0.543438 0.350599 0.670256 -0.312760
O127  O     O_3   0.676643 0.378919 0.801358 -0.445457
H45   H     H_    0.680819 0.330639 0.785170 0.373462
S22   S     S_3+6 0.398667 0.627991 0.228877 0.143748
O128  O     O_2   0.459166 0.649792 0.332017 -0.318336
O129  O     O_2   0.379401 0.692556 0.169706 -0.166744
O130  O     O_3   0.326870 0.619057 0.204985 -0.439667
H46   H     H_    0.321415 0.667666 0.219110 0.384777
S23   S     S_3+6 0.326006 0.497896 0.125634 0.129168
O131  O     O_2   0.308193 0.433214 0.068858 -0.325327
O132  O     O_2   0.310913 0.478732 0.176195 -0.175885
O133  O     O_3   0.260745 0.560478 0.042903 -0.414310
H47   H     H_    0.213198 0.535202 0.002364 0.393761
S24   S     S_3+6 0.674128 0.503609 0.873167 0.136378
O134  O     O_2   0.688867 0.572121 0.922946 -0.309883
O135  O     O_2   0.733241 0.450618 0.952041 -0.163945
O136  O     O_3   0.693411 0.519072 0.818113 -0.428702
H48   H     H_    0.744626 0.537863 0.869155 0.389328

loop_
_geom_bond_atom_site_label_1
_geom_bond_atom_site_label_2
_geom_bond_distance
_ccdc_geom_bond_type
O23   C51   1.265209 A    
O80   H24   0.990703 S    
O4    C1    1.265864 A    
C81   O105  1.223910 D    
O12   C5    1.270192 A    
C21   C35   1.707866 S    
C27   C31   1.611746 S    
O47   Zn12  1.991155 S    
O18   Zn6   1.990834 S    
S18   O118  1.687577 S    
C22   C36   1.707264 S    
O130  H46   0.990951 S    
O20   Zn5   1.988164 S    
O17   Zn5   1.990836 S    
O92   H28   0.990868 S    
C14   H6    1.094906 S    
C20   S4    1.861718 S    
O45   Zn10  1.991155 S    
C44   C48   1.180611 T    
C16   C31   1.607163 S    
C15   H7    1.110381 S    
S13   O95   1.671144 S    
C19   C34   1.703525 S    
S12   O91   1.504559 D    
O65   H19   0.990537 S    
S5    O69   1.504102 D    
S15   O99   1.504919 D    
O7    Zn3   1.984827 S    
C87   H39   1.078496 S    
S3    O64   1.493532 D    
C43   C47   1.180609 T    
O62   H18   0.990798 S    
S4    O66   1.505439 D    
C7    C31   1.492263 S    
O74   H22   0.990806 S    
O121  H43   0.990751 S    
S1    O57   1.504099 D    
C18   C34   1.702322 S    
O14   C8    1.271369 A    
C36   C40   1.722281 S    
C11   C30   1.614105 S    
O33   C57   1.291439 A    
O127  H45   0.990974 S    
C75   O51   1.222160 D    
C1    C41   1.392332 S    
S18   O116  1.485100 D    
O38   C60   1.291385 A    
C73   O49   1.222608 D    
C79   H15   1.070036 S    
C66   C72   1.182285 T    
S22   O128  1.486349 D    
S10   O86   1.673987 S    
O31   C55   1.268667 A    
C83   O107  1.216427 D    
O40   C60   1.291958 A    
C9    H1    1.095120 S    
S2    O60   1.495960 D    
O30   C54   1.269713 A    
C13   C21   1.567505 S    
O104  H32   0.990876 S    
S7    O76   1.496628 D    
C10   C30   1.596124 S    
S21   O127  1.687257 S    
C10   C74   1.532607 S    
C27   C39   1.645957 S    
C10   H2    1.092472 S    
S14   O98   1.672740 S    
C23   S15   1.913125 S    
C85   H37   1.060047 S    
S19   O121  1.688553 S    
O36   C58   1.291685 A    
O35   C57   1.291907 A    
C84   O108  1.221414 D    
S18   O117  1.500342 D    
S6    O74   1.687298 S    
S13   O94   1.504175 D    
O45   C61   1.291430 A    
O5    Zn3   1.987506 S    
O59   H17   0.991226 S    
O47   C63   1.290928 A    
C50   C66   1.395511 S    
S24   O136  1.684261 S    
O26   Zn6   2.048693 S    
C75   H11   1.071959 S    
O30   Zn5   2.056786 S    
C82   O106  1.213678 D    
S8    O78   1.505438 D    
C19   S11   1.916859 S    
C42   C46   1.180600 T    
O20   C50   1.264977 A    
C26   C83   1.543255 S    
C79   O55   1.223093 D    
O19   Zn6   1.988166 S    
O38   Zn12  1.993463 S    
O77   H23   0.990550 S    
C24   S8    1.861693 S    
C26   C82   1.532814 S    
C77   O53   1.222612 D    
O41   Zn9   1.984004 S    
O98   H30   0.990760 S    
O46   Zn9   1.991155 S    
C47   C63   1.392430 S    
S11   O88   1.491585 D    
C16   C24   1.586692 S    
S4    O68   1.686743 S    
O48   C64   1.290902 A    
S7    O77   1.686154 S    
C11   C75   1.517367 S    
O1    Zn1   1.987506 S    
O18   C50   1.265483 A    
S9    O82   1.504223 D    
C4    C44   1.392052 S    
C24   S16   1.911056 S    
O17   C49   1.264855 A    
S8    O80   1.686776 S    
C13   C31   1.597878 S    
C11   C19   1.585242 S    
S17   O113  1.486830 D    
C14   C32   1.596968 S    
C12   C20   1.586897 S    
O9    Zn1   2.050729 S    
C28   C86   1.533923 S    
C27   C88   1.556972 S    
C12   C29   1.607265 S    
C23   S7    1.865745 S    
O35   Zn10  1.989278 S    
C20   C33   1.694492 S    
O6    C4    1.265766 A    
O95   H29   0.990783 S    
S4    O67   1.497789 D    
S21   O125  1.499144 D    
S3    O65   1.684858 S    
C80   O56   1.223221 D    
O11   C6    1.278424 A    
O12   Zn2   2.054787 S    
O7    C4    1.265223 A    
C40   S23   1.883127 S    
C35   C39   1.723609 S    
C14   C22   1.567171 S    
C9    C17   1.567766 S    
O23   Zn8   1.988166 S    
C34   C38   1.711218 S    
O9    C5    1.271986 A    
O136  H48   0.990849 S    
O13   Zn3   2.050729 S    
C51   C67   1.395161 S    
O3    Zn1   1.984827 S    
C28   C87   1.555548 S    
O14   Zn4   2.050726 S    
C87   O111  1.220928 D    
C52   C68   1.395200 S    
S22   O130  1.687920 S    
C86   O110  1.223919 D    
O101  H31   0.990870 S    
S11   O89   1.676420 S    
O27   Zn7   2.048694 S    
S23   O131  1.488942 D    
C25   C29   1.611182 S    
O83   H25   0.990801 S    
S5    O71   1.689449 S    
O33   Zn9   1.993462 S    
O16   Zn4   2.054787 S    
O86   H26   0.990814 S    
S16   O104  1.682640 S    
C17   C33   1.707931 S    
C18   S2    1.901927 S    
O48   Zn11  1.991155 S    
O25   C53   1.274272 A    
O71   H21   0.991213 S    
C27   C85   1.534152 S    
C78   H14   1.078522 S    
O46   C62   1.290625 A    
O68   H20   0.990697 S    
S6    O72   1.493414 D    
C5    C29   1.492382 S    
O37   Zn11  1.993462 S    
O42   Zn10  1.984006 S    
C33   C37   1.725372 S    
O34   Zn10  1.993463 S    
C20   S12   1.910828 S    
C41   C45   1.180580 T    
O39   Zn12  1.989278 S    
O28   Zn8   2.048693 S    
O43   Zn11  1.984004 S    
O124  H44   0.990850 S    
C45   C61   1.392340 S    
O16   C7    1.270262 A    
C36   C56   1.480046 S    
S19   O120  1.498216 D    
C8    C32   1.490473 S    
C9    C73   1.536920 S    
O32   Zn7   2.056786 S    
S16   O103  1.504709 D    
S13   O93   1.506274 D    
C83   H35   1.085552 S    
C15   C23   1.585841 S    
O1    C1    1.265375 A    
C38   S19   1.885313 S    
O2    Zn2   1.987504 S    
O13   C7    1.271848 A    
O10   Zn2   2.050726 S    
S14   O97   1.506201 D    
S23   O132  1.499762 D    
S2    O62   1.687024 S    
O36   Zn9   1.989280 S    
O21   C51   1.265080 A    
C88   O112  1.221389 D    
C12   C76   1.523181 S    
S6    O73   1.505157 D    
C2    C42   1.392201 S    
C74   O50   1.222207 D    
C37   S17   1.905300 S    
C59   C71   1.395242 S    
C65   C71   1.182171 T    
S1    O59   1.689520 S    
S10   O85   1.505880 D    
S17   O114  1.505069 D    
O5    C3    1.265756 A    
S15   O100  1.487269 D    
O8    Zn4   1.984829 S    
S15   O101  1.681560 S    
C76   O52   1.223244 D    
C16   H8    1.110497 S    
S5    O70   1.493769 D    
C25   C84   1.557605 S    
O115  H41   0.990872 S    
C21   S13   1.872598 S    
O2    C2    1.265771 A    
O29   C53   1.268662 A    
O19   C49   1.265402 A    
C12   H4    1.110471 S    
C25   C37   1.644891 S    
C82   H34   1.077580 S    
O28   C56   1.275081 A    
C68   C70   1.182251 T    
O41   C61   1.289542 A    
C80   H16   1.070304 S    
O21   Zn7   1.990836 S    
S9    O83   1.670932 S    
C67   C69   1.182209 T    
S9    O81   1.506266 D    
O133  H47   0.990844 S    
S20   O122  1.488823 D    
C17   S9    1.873057 S    
O25   Zn5   2.048694 S    
S12   O92   1.682725 S    
O44   Zn12  1.984006 S    
O34   C58   1.291643 A    
C10   C18   1.569820 S    
S20   O124  1.684823 S    
C33   C53   1.477453 S    
C23   C36   1.695759 S    
O24   C52   1.265175 A    
C9    C29   1.598452 S    
C74   H10   1.076395 S    
C24   C35   1.694618 S    
O29   Zn6   2.056788 S    
C6    C30   1.486657 S    
O4    Zn2   1.984829 S    
O44   C64   1.290120 A    
S24   O134  1.488817 D    
O40   Zn11  1.989280 S    
C26   C38   1.636248 S    
C14   C78   1.537019 S    
C28   C40   1.644301 S    
C35   C55   1.477519 S    
O42   C62   1.290394 A    
C39   S21   1.900600 S    
C26   C30   1.627026 S    
O118  H42   0.990921 S    
C39   S24   1.885416 S    
C57   C69   1.395333 S    
C13   H5    1.095071 S    
O10   C6    1.263678 A    
C84   H36   1.077920 S    
C78   O54   1.222592 D    
O15   C8    1.269890 A    
C13   C77   1.536858 S    
S19   O119  1.493834 D    
S3    O63   1.506425 D    
C18   S10   1.879364 S    
C73   H9    1.078669 S    
C86   H38   1.059901 S    
O31   Zn8   2.056788 S    
S22   O129  1.499218 D    
O89   H27   0.990904 S    
C46   C62   1.392406 S    
S2    O61   1.505196 D    
C16   C80   1.523131 S    
O8    C3    1.265234 A    
O22   C52   1.265108 A    
O32   C56   1.269528 A    
S20   O123  1.504753 D    
S16   O102  1.485979 D    
S21   O126  1.486776 D    
C11   H3    1.108895 S    
S12   O90   1.486168 D    
C22   S14   1.872776 S    
C37   S20   1.888828 S    
C3    C43   1.392049 S    
C58   C70   1.395310 S    
S11   O87   1.503974 D    
S14   O96   1.504672 D    
C22   S6    1.909639 S    
S23   O133  1.687311 S    
C25   C81   1.533374 S    
C15   C79   1.522787 S    
C38   S18   1.888772 S    
C88   H40   1.078106 S    
O37   C59   1.291493 A    
S7    O75   1.506814 D    
C28   C32   1.611345 S    
O6    Zn4   1.987504 S    
C21   S5    1.912098 S    
C34   C54   1.483507 S    
O11   Zn1   2.054785 S    
S1    O58   1.493549 D    
S10   O84   1.504529 D    
S17   O115  1.679742 S    
C85   O109  1.223939 D    
S24   O135  1.504880 D    
O3    C2    1.265248 A    
O24   Zn7   1.988164 S    
O22   Zn8   1.990834 S    
C76   H12   1.070273 S    
C15   C32   1.608218 S    
O39   C59   1.291806 A    
C40   S22   1.898241 S    
O27   C55   1.274364 A    
C77   H13   1.078665 S    
C81   H33   1.058533 S    
C17   S1    1.912816 S    
O26   C54   1.278539 A    
S8    O79   1.497736 D    
C19   S3    1.875000 S    
C49   C65   1.395206 S    
O15   Zn3   2.054785 S    
C60   C72   1.395328 S    
C48   C64   1.392431 S    
O43   C63   1.290091 A    
