data_mof_unit_867.cif
_audit_creation_date              2012-12-11T17:07:59-0500
_audit_creation_method            fapswitch 2.2
_symmetry_space_group_name_H-M    P1
_symmetry_Int_Tables_number       1
_space_group_crystal_system       triclinic
_cell_length_a                    17.396137
_cell_length_b                    17.394665
_cell_length_c                    17.537752
_cell_angle_alpha                 89.738426
_cell_angle_beta                  90.2368
_cell_angle_gamma                 90.033646
_cell_volume                      5306.82183907

loop_
_atom_site_label
_atom_site_type_symbol
_atom_type_description
_atom_site_fract_x
_atom_site_fract_y
_atom_site_fract_z
_atom_type_partial_charge
C1    C     C_R   0.394824 0.308445 0.883858 0.221024
C2    C     C_R   0.681100 0.407477 0.866336 0.157470
C3    C     C_R   0.590720 0.680034 0.864493 0.167819
C4    C     C_R   0.302745 0.607016 0.896703 0.256112
C5    C     C_R   0.405491 0.684470 0.129405 0.216069
C6    C     C_R   0.682185 0.591311 0.132563 0.164350
C7    C     C_R   0.602190 0.310600 0.121459 0.171105
C8    C     C_R   0.302945 0.394908 0.105023 0.228887
C9    C     C_R   0.889967 0.802406 0.402453 0.285214
C10   C     C_R   0.187560 0.899440 0.375989 0.170499
C11   C     C_R   0.108891 0.196220 0.396466 0.150857
C12   C     C_R   0.828324 0.085684 0.356879 0.173347
C13   C     C_R   0.891819 0.198303 0.597387 0.159685
C14   C     C_R   0.173206 0.087265 0.641811 0.167490
C15   C     C_R   0.106557 0.804243 0.606585 0.167826
C16   C     C_R   0.804629 0.891140 0.606228 0.178235
C17   C     C_3   0.713021 0.128116 0.751937 -0.503799
C18   C     C_3   0.877815 0.705525 0.748678 -0.504448
C19   C     C_3   0.136477 0.833349 0.796615 -0.484607
C20   C     C_3   0.151160 0.153334 0.866704 -0.500116
C21   C     C_3   0.735091 0.633911 0.415240 -0.521764
C22   C     C_3   0.835517 0.143176 0.133027 -0.500185
C23   C     C_3   0.173591 0.133949 0.203517 -0.472122
C24   C     C_3   0.137523 0.765317 0.179198 -0.499422
C25   C     C_3   0.185835 0.709620 0.133516 -0.520929
C26   C     C_3   0.207595 0.173548 0.134115 -0.512895
C27   C     C_3   0.780673 0.193818 0.087569 -0.511696
C28   C     C_3   0.693571 0.588394 0.352230 -0.509691
C29   C     C_3   0.201782 0.205674 0.914673 -0.513946
C30   C     C_3   0.172257 0.796016 0.866739 -0.518077
C31   C     C_3   0.831234 0.662492 0.807570 -0.506755
C32   C     C_3   0.668515 0.174156 0.809619 -0.509955
C33   C     C_R   0.395211 0.695660 0.894776 -0.233156
C34   C     C_R   0.310512 0.406235 0.878550 -0.244776
C35   C     C_R   0.579857 0.328671 0.858941 -0.215704
C36   C     C_R   0.677074 0.584700 0.863841 -0.193054
C37   C     C_R   0.395016 0.305578 0.108001 -0.214197
C38   C     C_R   0.330105 0.578710 0.141374 -0.215800
C39   C     C_R   0.582989 0.672503 0.140143 -0.235276
C40   C     C_R   0.690010 0.403878 0.120980 -0.214931
C41   C     C_R   0.927223 0.167046 0.355665 -0.216360
C42   C     C_R   0.801396 0.892146 0.408204 -0.235234
C43   C     C_R   0.094903 0.810959 0.378225 -0.198509
C44   C     C_R   0.196587 0.104633 0.397639 -0.223275
C45   C     C_R   0.895458 0.802574 0.600536 -0.210781
C46   C     C_R   0.803594 0.106866 0.600795 -0.225697
C47   C     C_R   0.075382 0.170134 0.642141 -0.207207
C48   C     C_R   0.197050 0.892833 0.599146 -0.214581
C49   C     C_R   0.324467 0.333780 0.855193 0.041651
C50   C     C_R   0.644765 0.351912 0.822745 0.017373
C51   C     C_R   0.651722 0.647639 0.824802 0.006162
C52   C     C_R   0.320772 0.681643 0.875974 -0.010847
C53   C     C_R   0.351192 0.646212 0.174714 0.010274
C54   C     C_R   0.648027 0.647637 0.176461 0.041899
C55   C     C_R   0.672570 0.333775 0.149155 0.022053
C56   C     C_R   0.321334 0.321569 0.128020 -0.008955
C57   C     C_R   0.812382 0.816438 0.394709 -0.001564
C58   C     C_R   0.163710 0.829339 0.347974 0.010996
C59   C     C_R   0.183560 0.178356 0.377583 0.022862
C60   C     C_R   0.865853 0.142322 0.314636 0.015269
C61   C     C_R   0.816448 0.182563 0.617335 0.025468
C62   C     C_R   0.137019 0.145279 0.682726 0.018679
C63   C     C_R   0.183134 0.819253 0.621245 0.026093
C64   C     C_R   0.820925 0.814173 0.619043 0.018907
C65   C     C_R   0.661763 0.235058 0.749609 0.146045
C66   C     C_R   0.768126 0.659444 0.749445 0.144330
C67   C     C_R   0.242967 0.784123 0.820140 0.129977
C68   C     C_R   0.206716 0.257493 0.846617 0.135958
C69   C     C_R   0.700102 0.659548 0.305747 0.160821
C70   C     C_R   0.784880 0.249972 0.151783 0.156752
C71   C     C_R   0.264923 0.209011 0.186911 0.124735
C72   C     C_R   0.223086 0.687345 0.207420 0.151836
C73   C     C_R   0.177669 0.735112 0.248690 0.161698
C74   C     C_R   0.233918 0.173778 0.249572 0.150664
C75   C     C_R   0.834521 0.204063 0.192480 0.146352
C76   C     C_R   0.736786 0.699994 0.360241 0.165103
C77   C     C_R   0.160290 0.210540 0.803872 0.150694
C78   C     C_R   0.210504 0.817619 0.756946 0.157075
C79   C     C_R   0.809925 0.698359 0.696224 0.155417
C80   C     C_R   0.702857 0.194088 0.697260 0.147598
C81   C     C_R   0.673179 0.313738 0.756712 0.052037
C82   C     C_R   0.689864 0.674282 0.757274 0.046748
C83   C     C_R   0.288960 0.719744 0.811286 0.073829
C84   C     C_R   0.269276 0.293520 0.811939 0.057924
C85   C     C_R   0.682968 0.691136 0.235269 0.033094
C86   C     C_R   0.726979 0.289603 0.190030 0.028836
C87   C     C_R   0.288255 0.284865 0.192205 0.076146
C88   C     C_R   0.300397 0.679616 0.227363 0.055919
C89   C     C_R   0.208598 0.772961 0.311184 0.028571
C90   C     C_R   0.227114 0.213422 0.318307 0.045297
C91   C     C_R   0.826284 0.198674 0.270938 0.040664
C92   C     C_R   0.760433 0.775124 0.346720 0.052900
C93   C     C_R   0.176548 0.200458 0.727159 0.027251
C94   C     C_R   0.224900 0.788470 0.684352 0.045945
C95   C     C_R   0.774002 0.753052 0.649869 0.041099
C96   C     C_R   0.757631 0.230874 0.651515 0.046460
C97   C     C_R   0.279000 0.748864 0.342426 -0.220178
C98   C     C_R   0.262563 0.284833 0.327303 -0.223448
C99   C     C_R   0.779589 0.251046 0.309966 -0.208678
C100  C     C_R   0.738879 0.810492 0.277247 -0.218485
C101  C     C_R   0.227102 0.250635 0.689691 -0.207103
C102  C     C_R   0.282966 0.734222 0.674076 -0.257132
C103  C     C_R   0.693465 0.751442 0.643043 -0.229997
C104  C     C_R   0.758780 0.312002 0.650096 -0.230051
C105  C     C_R   0.715723 0.353402 0.702164 -0.214992
C106  C     C_R   0.650718 0.712803 0.698488 -0.222482
C107  C     C_R   0.314578 0.698766 0.738202 -0.201139
C108  C     C_R   0.273957 0.297824 0.732639 -0.194261
C109  C     C_R   0.699711 0.768837 0.222021 -0.239050
C110  C     C_R   0.729060 0.296591 0.269090 -0.212712
C111  C     C_R   0.294239 0.320429 0.263775 -0.200912
C112  C     C_R   0.326465 0.702562 0.299008 -0.203135
H1    H     H_    0.681492 0.075901 0.733469 0.194519
H2    H     H_    0.928001 0.672022 0.728368 0.186866
H3    H     H_    0.125967 0.895964 0.803447 0.192423
H4    H     H_    0.090919 0.150079 0.887334 0.196257
H5    H     H_    0.792150 0.609215 0.429096 0.190366
H6    H     H_    0.892961 0.137452 0.106137 0.196146
H7    H     H_    0.181644 0.070553 0.203412 0.188077
H8    H     H_    0.075594 0.750724 0.177456 0.200325
H9    H     H_    0.224582 0.738131 0.092136 0.189690
H10   H     H_    0.168315 0.216595 0.107745 0.191363
H11   H     H_    0.723147 0.167378 0.080408 0.201170
H12   H     H_    0.632902 0.574152 0.366024 0.198492
H13   H     H_    0.257140 0.178636 0.930818 0.192028
H14   H     H_    0.143375 0.741556 0.883313 0.205810
H15   H     H_    0.816215 0.697910 0.858016 0.204566
H16   H     H_    0.703966 0.192566 0.859238 0.199284
H17   H     H_    0.774004 0.118440 0.768698 0.203845
H18   H     H_    0.890471 0.765933 0.765081 0.204150
H19   H     H_    0.087437 0.800068 0.772773 0.194788
H20   H     H_    0.178319 0.097088 0.853495 0.187600
H21   H     H_    0.698252 0.645934 0.465438 0.202781
H22   H     H_    0.809177 0.088361 0.152792 0.190355
H23   H     H_    0.114444 0.153674 0.217243 0.194317
H24   H     H_    0.151259 0.826695 0.167476 0.194292
H25   H     H_    0.151639 0.661593 0.109094 0.189136
H26   H     H_    0.234853 0.133058 0.093514 0.195678
H27   H     H_    0.806412 0.217216 0.034382 0.194640
H28   H     H_    0.728282 0.540517 0.328570 0.190218
H29   H     H_    0.170427 0.233081 0.962445 0.189300
H30   H     H_    0.182119 0.837037 0.914199 0.194070
H31   H     H_    0.854959 0.604634 0.820973 0.189336
H32   H     H_    0.612411 0.147804 0.824691 0.193821
H33   H     H_    0.420243 0.751932 0.897267 0.138989
H34   H     H_    0.259225 0.438981 0.869934 0.146141
H35   H     H_    0.540805 0.286783 0.838013 0.153440
H36   H     H_    0.726612 0.551619 0.850931 0.133425
H37   H     H_    0.418620 0.248843 0.107658 0.135819
H38   H     H_    0.287529 0.538849 0.161104 0.142321
H39   H     H_    0.547336 0.717888 0.158422 0.158683
H40   H     H_    0.745436 0.430292 0.124958 0.115695
H41   H     H_    0.963967 0.214623 0.340792 0.121222
H42   H     H_    0.746034 0.917147 0.419261 0.125878
H43   H     H_    0.069449 0.755054 0.375677 0.141704
H44   H     H_    0.252951 0.081253 0.405989 0.133153
H45   H     H_    0.920541 0.746881 0.592905 0.116829
H46   H     H_    0.747229 0.083366 0.592867 0.135880
H47   H     H_    0.039440 0.218490 0.656015 0.120055
H48   H     H_    0.253483 0.916016 0.589116 0.123694
H49   H     H_    0.299063 0.769645 0.396860 0.137589
H50   H     H_    0.263411 0.314124 0.381410 0.147779
H51   H     H_    0.777667 0.251749 0.371649 0.128544
H52   H     H_    0.755916 0.868923 0.263877 0.140721
H53   H     H_    0.233933 0.249132 0.628335 0.128628
H54   H     H_    0.299147 0.715485 0.617557 0.136879
H55   H     H_    0.663650 0.785734 0.601178 0.145817
H56   H     H_    0.796011 0.345194 0.614877 0.165515
H57   H     H_    0.721311 0.415406 0.704315 0.133200
H58   H     H_    0.588713 0.718292 0.699050 0.137941
H59   H     H_    0.356072 0.652942 0.731058 0.140860
H60   H     H_    0.317247 0.332698 0.704733 0.133011
H61   H     H_    0.685981 0.795949 0.167885 0.140259
H62   H     H_    0.688950 0.333333 0.298886 0.139024
H63   H     H_    0.320433 0.376653 0.269608 0.133505
H64   H     H_    0.384145 0.689383 0.318498 0.135837
N1    N     N_R   0.425360 0.368540 0.922560 -0.067541
N2    N     N_R   0.631460 0.425360 0.922560 -0.050089
N3    N     N_R   0.574640 0.631460 0.922560 -0.053528
N4    N     N_R   0.368540 0.574640 0.922560 -0.067906
N5    N     N_R   0.425360 0.631460 0.077440 -0.064307
N6    N     N_R   0.631460 0.574640 0.077440 -0.056444
N7    N     N_R   0.574640 0.368540 0.077440 -0.054176
N8    N     N_R   0.368540 0.425360 0.077440 -0.065027
N9    N     N_R   0.925360 0.868540 0.422560 -0.068312
N10   N     N_R   0.131460 0.925360 0.422560 -0.052577
N11   N     N_R   0.074640 0.131460 0.422560 -0.052083
N12   N     N_R   0.868540 0.074640 0.422560 -0.055034
N13   N     N_R   0.925360 0.131460 0.577440 -0.052815
N14   N     N_R   0.131460 0.074640 0.577440 -0.056152
N15   N     N_R   0.074640 0.868540 0.577440 -0.060135
N16   N     N_R   0.868540 0.925360 0.577440 -0.053371
N17   N     N_R   0.425340 0.631500 0.922560 -0.049731
N18   N     N_R   0.368500 0.425340 0.922560 -0.050385
N19   N     N_R   0.574660 0.368500 0.922560 -0.053049
N20   N     N_R   0.631500 0.574660 0.922560 -0.053280
N21   N     N_R   0.425340 0.368500 0.077440 -0.049048
N22   N     N_R   0.368500 0.574660 0.077440 -0.054206
N23   N     N_R   0.574660 0.631500 0.077440 -0.052971
N24   N     N_R   0.631500 0.425340 0.077440 -0.051926
N25   N     N_R   0.925340 0.131500 0.422560 -0.054284
N26   N     N_R   0.868500 0.925340 0.422560 -0.049832
N27   N     N_R   0.074660 0.868500 0.422560 -0.051325
N28   N     N_R   0.131500 0.074660 0.422560 -0.044106
N29   N     N_R   0.925340 0.868500 0.577440 -0.051529
N30   N     N_R   0.868500 0.074660 0.577440 -0.044836
N31   N     N_R   0.074660 0.131500 0.577440 -0.054586
N32   N     N_R   0.131500 0.925340 0.577440 -0.046880
Ni1   Ni    Ni4+2 0.500000 0.369720 0.000000 0.189955
Ni2   Ni    Ni4+2 0.630280 0.500000 0.000000 0.190711
Ni3   Ni    Ni4+2 0.500000 0.630280 0.000000 0.190370
Ni4   Ni    Ni4+2 0.369720 0.500000 0.000000 0.189420
Ni5   Ni    Ni4+2 1.000000 0.869720 0.500000 0.188807
Ni6   Ni    Ni4+2 0.130280 0.000000 0.500000 0.196235
Ni7   Ni    Ni4+2 0.000000 0.130280 0.500000 0.190862
Ni8   Ni    Ni4+2 0.869720 0.000000 0.500000 0.196457
C113  C     C_3   0.416831 0.224442 0.894892 -0.478256
C114  C     C_3   0.402693 0.172057 0.825533 -0.241589
C115  C     C_3   0.442503 0.199872 0.752807 -0.891692
H65   H     H_    0.417618 0.170199 0.702885 0.255666
H66   H     H_    0.435192 0.262541 0.743768 0.257966
H67   H     H_    0.504548 0.186235 0.755075 0.245598
H68   H     H_    0.424605 0.113612 0.839464 0.180319
H69   H     H_    0.340447 0.164807 0.814792 0.202005
H70   H     H_    0.477513 0.218107 0.910447 0.179186
H71   H     H_    0.384451 0.201514 0.944337 0.157211
C116  C     C_3   0.768128 0.412802 0.870717 -0.468516
C117  C     C_3   0.797726 0.438728 0.948568 -0.242843
C118  C     C_3   0.885322 0.443088 0.950203 -0.966479
H72   H     H_    0.910632 0.386238 0.936387 0.267539
H73   H     H_    0.906004 0.486605 0.908503 0.261755
H74   H     H_    0.904976 0.459864 0.008101 0.254623
H75   H     H_    0.774098 0.496137 0.961695 0.198784
H76   H     H_    0.778766 0.396907 0.992583 0.204744
H77   H     H_    0.792260 0.354632 0.859963 0.201911
H78   H     H_    0.790619 0.450196 0.824497 0.178485
C119  C     C_3   0.570754 0.764333 0.861319 -0.459105
C120  C     C_3   0.566167 0.799799 0.941263 -0.232990
C121  C     C_3   0.541085 0.883787 0.937230 -0.963558
H79   H     H_    0.582171 0.917798 0.902388 0.271241
H80   H     H_    0.482711 0.888367 0.911713 0.259890
H81   H     H_    0.539595 0.908292 0.995550 0.248663
H82   H     H_    0.525073 0.767529 0.977498 0.196759
H83   H     H_    0.623607 0.796483 0.969158 0.193429
H84   H     H_    0.616607 0.795733 0.830052 0.196574
H85   H     H_    0.517769 0.772968 0.827277 0.183996
C122  C     C_3   0.226424 0.593032 0.936093 -0.434856
C123  C     C_3   0.159963 0.558321 0.888612 -0.283181
C124  C     C_3   0.164014 0.573064 0.802861 -0.861354
H86   H     H_    0.158575 0.635389 0.790947 0.259948
H87   H     H_    0.218486 0.550705 0.778818 0.255462
H88   H     H_    0.115443 0.543332 0.774171 0.240077
H89   H     H_    0.154951 0.495788 0.899625 0.178349
H90   H     H_    0.104993 0.582894 0.909566 0.189145
H91   H     H_    0.236319 0.557169 0.987198 0.154443
H92   H     H_    0.205860 0.648531 0.959682 0.161659
C125  C     C_3   0.395655 0.768940 0.106496 -0.435168
C126  C     C_3   0.451655 0.828804 0.139243 -0.277554
C127  C     C_3   0.454993 0.828967 0.226254 -0.871413
H93   H     H_    0.474202 0.772671 0.249143 0.252382
H94   H     H_    0.496095 0.873706 0.245687 0.239837
H95   H     H_    0.397483 0.842499 0.249518 0.260513
H96   H     H_    0.509620 0.823410 0.114001 0.183893
H97   H     H_    0.431219 0.886517 0.120658 0.192397
H98   H     H_    0.398135 0.773192 0.043371 0.154941
H99   H     H_    0.337292 0.788540 0.122094 0.184552
C128  C     C_3   0.767634 0.578824 0.125304 -0.479927
C129  C     C_3   0.809784 0.652567 0.100959 -0.214285
C130  C     C_3   0.890400 0.635202 0.071563 -0.964502
H100  H     H_    0.922906 0.599915 0.113638 0.265226
H101  H     H_    0.886822 0.603842 0.016664 0.271103
H102  H     H_    0.921916 0.689881 0.061791 0.254670
H103  H     H_    0.776999 0.682510 0.055029 0.194912
H104  H     H_    0.815073 0.691772 0.150224 0.209066
H105  H     H_    0.791521 0.556763 0.180041 0.183499
H106  H     H_    0.777890 0.536588 0.080036 0.197413
C131  C     C_3   0.572035 0.229922 0.129116 -0.459830
C132  C     C_3   0.555107 0.195509 0.051149 -0.256879
C133  C     C_3   0.523721 0.113823 0.057560 -0.956313
H107  H     H_    0.566878 0.075630 0.085160 0.267025
H108  H     H_    0.469953 0.113092 0.091495 0.260610
H109  H     H_    0.510838 0.091423 0.999700 0.253271
H110  H     H_    0.512386 0.232626 0.023127 0.199029
H111  H     H_    0.607749 0.195350 0.015484 0.195692
H112  H     H_    0.614937 0.192842 0.158502 0.195246
H113  H     H_    0.521755 0.229621 0.167355 0.186468
C134  C     C_3   0.225405 0.407479 0.066531 -0.421967
C135  C     C_3   0.165303 0.455484 0.109342 -0.298131
C136  C     C_3   0.152984 0.430212 0.191786 -0.855967
H114  H     H_    0.141818 0.367399 0.194912 0.262855
H115  H     H_    0.203810 0.445181 0.226997 0.249883
H116  H     H_    0.102546 0.460870 0.215507 0.233757
H117  H     H_    0.179016 0.517521 0.106707 0.182121
H118  H     H_    0.109621 0.449251 0.078614 0.190910
H119  H     H_    0.234583 0.433616 0.009971 0.153412
H120  H     H_    0.198765 0.350650 0.054276 0.169419
C137  C     C_3   0.922623 0.723364 0.414016 -0.458575
C138  C     C_3   0.931964 0.675844 0.340290 -0.246923
C139  C     C_3   0.942453 0.723251 0.267360 -0.890467
H121  H     H_    0.986101 0.768797 0.274975 0.258844
H122  H     H_    0.960619 0.684833 0.220503 0.242676
H123  H     H_    0.887658 0.750925 0.250454 0.260258
H124  H     H_    0.982456 0.637305 0.347455 0.181294
H125  H     H_    0.881353 0.637992 0.332027 0.196116
H126  H     H_    0.977380 0.727616 0.444504 0.150433
H127  H     H_    0.885812 0.691623 0.454747 0.148685
C140  C     C_3   0.264140 0.935147 0.357375 -0.461373
C141  C     C_3   0.316934 0.939988 0.427077 -0.245270
C142  C     C_3   0.393562 0.977708 0.406877 -0.925499
H128  H     H_    0.422056 0.945790 0.360165 0.267667
H129  H     H_    0.384702 0.038302 0.388743 0.259150
H130  H     H_    0.432327 0.976764 0.457216 0.253704
H131  H     H_    0.288052 0.972622 0.472218 0.196506
H132  H     H_    0.328492 0.881818 0.450428 0.187586
H133  H     H_    0.293741 0.899925 0.314003 0.192869
H134  H     H_    0.255629 0.990321 0.327455 0.187138
C143  C     C_3   0.086165 0.277135 0.416637 -0.468471
C144  C     C_3   0.133743 0.307574 0.484767 -0.208164
C145  C     C_3   0.139342 0.395071 0.484414 -0.950710
H135  H     H_    0.166280 0.415774 0.430801 0.263600
H136  H     H_    0.081676 0.421250 0.490143 0.267349
H137  H     H_    0.175543 0.413877 0.533171 0.248313
H138  H     H_    0.107779 0.288622 0.539133 0.189573
H139  H     H_    0.193028 0.284194 0.484975 0.182729
H140  H     H_    0.095032 0.313926 0.365416 0.202955
H141  H     H_    0.024862 0.279925 0.431295 0.183449
C146  C     C_3   0.747248 0.060078 0.338524 -0.456284
C147  C     C_3   0.688562 0.091711 0.395252 -0.231532
C148  C     C_3   0.611416 0.050493 0.387950 -0.935119
H142  H     H_    0.588377 0.056937 0.329091 0.266313
H143  H     H_    0.617881 0.988390 0.401419 0.260499
H144  H     H_    0.569628 0.076000 0.428259 0.253857
H145  H     H_    0.710440 0.086994 0.454322 0.188527
H146  H     H_    0.679052 0.153763 0.383821 0.198723
H147  H     H_    0.730540 0.082081 0.281209 0.183448
H148  H     H_    0.743780 0.997877 0.330812 0.189072
C149  C     C_3   0.921475 0.275646 0.571472 -0.466330
C150  C     C_3   0.877910 0.306085 0.500520 -0.238317
C151  C     C_3   0.891246 0.391880 0.487600 -0.949119
H149  H     H_    0.873425 0.425623 0.538087 0.259562
H150  H     H_    0.952734 0.403003 0.475995 0.267221
H151  H     H_    0.857159 0.411533 0.437504 0.252423
H152  H     H_    0.897452 0.275662 0.449471 0.197887
H153  H     H_    0.815258 0.294832 0.503630 0.189354
H154  H     H_    0.919516 0.316552 0.619794 0.188189
H155  H     H_    0.982281 0.270275 0.555467 0.185036
C152  C     C_3   0.253343 0.059560 0.660886 -0.452265
C153  C     C_3   0.311538 0.082356 0.599586 -0.230908
C154  C     C_3   0.386329 0.037094 0.608114 -0.951300
H156  H     H_    0.408451 0.040265 0.667483 0.270344
H157  H     H_    0.377038 0.975796 0.593519 0.260686
H158  H     H_    0.430318 0.061468 0.569221 0.256495
H159  H     H_    0.287139 0.073803 0.542070 0.191647
H160  H     H_    0.324486 0.144630 0.604499 0.189607
H161  H     H_    0.272973 0.086271 0.714975 0.179940
H162  H     H_    0.253676 0.998348 0.675774 0.192992
C155  C     C_3   0.069419 0.726168 0.604811 -0.478990
C156  C     C_3   0.124979 0.657918 0.600942 -0.240470
C157  C     C_3   0.081657 0.583036 0.586475 -0.945836
H163  H     H_    0.037758 0.573398 0.631364 0.262609
H164  H     H_    0.053033 0.584695 0.529733 0.262066
H165  H     H_    0.122761 0.534324 0.587806 0.258951
H166  H     H_    0.167303 0.667041 0.554423 0.200184
H167  H     H_    0.155790 0.651726 0.655891 0.218683
H168  H     H_    0.032738 0.719946 0.655989 0.182516
H169  H     H_    0.034272 0.723988 0.552708 0.190879
C158  C     C_3   0.732595 0.930818 0.631761 -0.469334
C159  C     C_3   0.677608 0.946347 0.565138 -0.252352
C160  C     C_3   0.602796 0.982994 0.592008 -0.933304
H170  H     H_    0.574758 0.946114 0.635669 0.266643
H171  H     H_    0.613906 0.040724 0.616347 0.258290
H172  H     H_    0.562733 0.989414 0.543030 0.254441
H173  H     H_    0.705959 0.984352 0.523675 0.199116
H174  H     H_    0.663773 0.892441 0.534570 0.187653
H175  H     H_    0.702682 0.895456 0.675189 0.199493
H176  H     H_    0.748418 0.982993 0.663389 0.187028

loop_
_geom_bond_atom_site_label_1
_geom_bond_atom_site_label_2
_ccdc_geom_bond_type
C143  H141  S    
C155  C156  S    
C148  H143  S    
C28   C69   S    
C7    C55   A    
C8    C56   A    
C149  C150  S    
C107  H59   S    
C15   C155  S    
C66   C79   A    
C21   C76   S    
C128  H105  S    
C105  H57   S    
C144  H138  S    
C86   C110  A    
N19   Ni1   S    
C109  H61   S    
N17   Ni3   S    
C155  H168  S    
C21   H5    S    
C43   C58   A    
C37   C56   A    
C36   H36   S    
N32   Ni6   S    
C135  H118  S    
C113  H71   S    
C160  H172  S    
N20   Ni2   S    
C34   N18   A    
C110  H62   S    
C100  C109  A    
C26   C71   S    
C20   H20   S    
C21   H21   S    
C146  H148  S    
C98   H50   S    
C14   C152  S    
C24   H8    S    
C125  H98   S    
C93   C101  A    
C97   C112  A    
C48   C63   A    
C99   C110  A    
N11   N28   A    
N9    N26   A    
C118  H72   S    
C66   C82   A    
C29   C68   S    
C116  C117  S    
N13   N30   A    
C40   C55   A    
C48   N32   A    
C119  H84   S    
C21   C28   S    
C22   C27   S    
C130  H101  S    
C18   H18   S    
C138  C139  S    
C13   C149  S    
C68   C77   A    
C22   H6    S    
C15   N15   A    
N27   Ni5   S    
C126  H97   S    
N6    N23   A    
C72   C73   A    
C127  H94   S    
C7    N7    A    
C74   C90   A    
C55   C86   S    
C159  H174  S    
C34   H34   S    
C38   C53   A    
C78   C94   A    
C153  C154  S    
C134  H119  S    
C133  H108  S    
C31   H31   S    
C58   C89   S    
C32   H32   S    
C141  H131  S    
N18   Ni4   S    
C94   C102  A    
C62   C93   S    
C129  H104  S    
C157  H163  S    
C17   C32   S    
C18   C31   S    
C7    C131  S    
C19   C30   S    
C25   H9    S    
C50   C81   S    
C32   C65   S    
C145  H136  S    
C103  H55   S    
C154  H156  S    
C57   C92   S    
C29   H13   S    
N16   N29   A    
C31   H15   S    
C47   C62   A    
C61   C96   S    
C153  H160  S    
C114  H68   S    
C47   H47   S    
C33   C52   A    
C48   H48   S    
C63   C94   S    
C124  H86   S    
C6    N6    A    
C49   C84   S    
C10   C58   A    
C118  H74   S    
C23   H7    S    
C39   C54   A    
C115  H66   S    
C44   C59   A    
C150  H152  S    
C46   H46   S    
N28   Ni6   S    
N6    Ni2   S    
N2    Ni2   S    
C69   C76   A    
C125  C126  S    
N4    Ni4   S    
C2    C50   A    
C38   N22   A    
C156  H167  S    
C152  H162  S    
N22   Ni4   S    
C30   C67   S    
C75   C91   A    
C122  H92   S    
C24   H24   S    
C102  H54   S    
C131  C132  S    
C106  H58   S    
C137  H126  S    
C95   C103  A    
C41   H41   S    
C142  H129  S    
C81   C105  A    
C44   H44   S    
C45   H45   S    
C123  H89   S    
N3    Ni3   S    
C35   H35   S    
C113  C114  S    
C131  H112  S    
C120  H82   S    
C17   C80   S    
C27   H27   S    
C158  H176  S    
C19   C78   S    
C25   H25   S    
C36   N20   A    
C4    C122  S    
N14   Ni6   S    
C29   H29   S    
C5    C125  S    
C136  H114  S    
C102  C107  A    
C121  H80   S    
C36   C51   A    
C117  H75   S    
C99   H51   S    
C149  H155  S    
C112  H64   S    
C76   C92   A    
C154  H158  S    
C97   H49   S    
C132  H110  S    
C108  H60   S    
C42   N26   A    
C140  H133  S    
C23   C74   S    
C69   C85   A    
C143  H140  S    
C46   N30   A    
C39   N23   A    
C124  H88   S    
C41   C60   A    
C147  C148  S    
C121  H81   S    
C128  C129  S    
C28   H12   S    
C45   C64   A    
N7    N24   A    
C144  H139  S    
C32   H16   S    
C126  C127  S    
C115  H67   S    
C10   C140  S    
C10   N10   A    
N9    Ni5   S    
N10   N27   A    
C157  H165  S    
C138  H124  S    
C82   C106  A    
C139  H123  S    
N29   Ni5   S    
C14   N14   A    
N14   N31   A    
C151  H151  S    
C70   C75   A    
C44   N28   A    
C132  C133  S    
C2    N2    A    
C91   C99   A    
N4    N17   A    
C122  H91   S    
C160  H171  S    
C121  H79   S    
C146  H147  S    
N12   Ni8   S    
C67   C83   A    
C116  H78   S    
C20   C77   S    
C6    C54   A    
C85   C109  A    
C11   C59   A    
C24   C73   S    
C60   C91   S    
C87   C111  A    
C136  H116  S    
C137  C138  S    
C23   C26   S    
C104  C105  A    
C147  H146  S    
N13   Ni7   S    
C158  C159  S    
C18   C79   S    
C34   C49   A    
C133  H107  S    
C9    C137  S    
C35   N19   A    
C101  C108  A    
C33   N17   A    
C130  H100  S    
C4    N4    A    
C43   H43   S    
C42   C57   A    
C5    N5    A    
C2    C116  S    
N3    N20   A    
C128  H106  S    
N1    N18   A    
C46   C61   A    
C17   H1    S    
C140  C141  S    
C68   C84   A    
C115  H65   S    
C3    C51   A    
C40   N24   A    
C155  H169  S    
N24   Ni2   S    
C16   C158  S    
C52   C83   S    
C139  H121  S    
C79   C95   A    
C65   C81   A    
C151  H149  S    
C38   H38   S    
N31   Ni7   S    
C100  H52   S    
C135  H117  S    
C101  H53   S    
C141  H132  S    
C71   C87   A    
C22   H22   S    
C111  H63   S    
C41   N25   A    
C152  C153  S    
C123  C124  S    
C131  H113  S    
C120  C121  S    
C45   N29   A    
C42   H42   S    
C125  H99   S    
C37   H37   S    
C26   H26   S    
C71   C74   A    
C114  H69   S    
C159  C160  S    
C30   H30   S    
C23   H23   S    
C73   C89   A    
C146  C147  S    
C118  H73   S    
N15   Ni5   S    
C150  H153  S    
C77   C93   A    
C84   C108  A    
C119  H85   S    
C145  H135  S    
C88   C112  A    
C129  C130  S    
N8    N21   A    
C130  H102  S    
C6    C128  S    
C1    C113  S    
C26   H10   S    
C152  H161  S    
C14   C62   A    
C31   C66   S    
C30   H14   S    
C39   H39   S    
C148  H142  S    
C126  H96   S    
C28   H28   S    
C127  H95   S    
C18   H2    S    
C142  H128  S    
C40   H40   S    
C147  H145  S    
C4    C52   A    
C11   N11   A    
C5    C53   A    
C12   C146  S    
C9    N9    A    
C159  H173  S    
C123  H90   S    
C12   N12   A    
C120  H83   S    
N12   N25   A    
C13   N13   A    
C134  H120  S    
N23   Ni3   S    
C158  H175  S    
C133  H109  S    
N1    Ni1   S    
C3    N3    A    
N25   Ni7   S    
C16   N16   A    
C8    C134  S    
C1    N1    A    
C134  C135  S    
C83   C107  A    
C11   C143  S    
C129  H103  S    
C37   N21   A    
C80   C96   A    
C117  H76   S    
C149  H154  S    
C8    N8    A    
C145  H137  S    
C154  H157  S    
C65   C80   A    
C132  H111  S    
C156  C157  S    
C67   C78   A    
C22   C75   S    
N5    N22   A    
C72   C88   A    
C153  H159  S    
N8    Ni4   S    
C20   C29   S    
C19   H19   S    
N11   Ni7   S    
C124  H87   S    
C17   H17   S    
C24   C25   S    
C20   H4    S    
C27   H11   S    
C56   C87   S    
C89   C97   A    
C59   C90   S    
C144  C145  S    
C104  H56   S    
C19   H3    S    
C35   C50   A    
C156  H166  S    
C157  H164  S    
C25   C72   S    
C138  H125  S    
C139  H122  S    
C51   C82   S    
C27   C70   S    
C33   H33   S    
C3    C119  S    
C151  H150  S    
C53   C88   S    
C43   N27   A    
C148  H144  S    
C127  H93   S    
C70   C86   A    
C137  H127  S    
C141  C142  S    
C92   C100  A    
C160  H170  S    
C142  H130  S    
N30   Ni8   S    
C98   C111  A    
C64   C95   S    
C54   C85   S    
C122  C123  S    
N7    Ni1   S    
C116  H77   S    
N2    N19   A    
C47   N31   A    
N5    Ni3   S    
C135  C136  S    
C96   C104  A    
C114  C115  S    
N10   Ni6   S    
C136  H115  S    
C90   C98   A    
C103  C106  A    
C9    C57   A    
N15   N32   A    
C143  C144  S    
N21   Ni1   S    
C117  C118  S    
C12   C60   A    
C13   C61   A    
C150  C151  S    
C113  H70   S    
C15   C63   A    
C140  H134  S    
C16   C64   A    
N26   Ni8   S    
C119  C120  S    
C1    C49   A    
N16   Ni8   S    
