data_mof_unit_4059.cif
_audit_creation_date              2013-03-05T16:22:06-0500
_audit_creation_method            fapswitch 2.2
_symmetry_space_group_name_H-M    P1
_symmetry_Int_Tables_number       1
_space_group_crystal_system       triclinic
_cell_length_a                    13.421698
_cell_length_b                    14.014641
_cell_length_c                    15.038107
_cell_angle_alpha                 89.804895
_cell_angle_beta                  92.062103
_cell_angle_gamma                 72.178585
_cell_volume                      2690.8855352

loop_
_atom_site_label
_atom_site_type_symbol
_atom_site_description
_atom_site_fract_x
_atom_site_fract_y
_atom_site_fract_z
_atom_type_partial_charge
O1    O     O_R   0.499990 0.418570 0.628550 -0.589786
O2    O     O_R   0.499990 0.581440 0.628540 -0.583378
C1    C     C_R   0.500130 0.500136 0.669951 0.780218
O3    O     O_R   0.650980 0.378820 0.499990 -0.588200
O4    O     O_R   0.650980 0.541690 0.499970 -0.572358
C2    C     C_R   0.699831 0.446334 0.493670 0.772723
Cu1   Cu    Cu3+1 0.500000 0.403570 0.500010 0.924128
Cu2   Cu    Cu3+1 0.500000 0.596430 0.499990 0.936163
O5    O     O_R   0.500010 0.418560 0.371460 -0.589453
O6    O     O_R   0.500010 0.581430 0.371450 -0.594476
O7    O     O_R   0.349020 0.458310 0.500030 -0.593170
O8    O     O_R   0.349020 0.621180 0.500010 -0.577200
C3    C     C_R   0.499708 0.500504 0.330089 0.773519
C4    C     C_R   0.299923 0.554147 0.498749 0.781610
C5    C     C_R   0.025133 0.699090 0.422279 -0.196193
H1    H     H_    0.170023 0.733421 0.433131 0.154748
H2    H     H_    0.828598 0.715785 0.371339 0.139801
H3    H     H_    0.983835 0.770924 0.391290 0.131463
C6    C     C_R   0.185719 0.585649 0.486451 -0.054803
C7    C     C_R   0.872752 0.315273 0.508076 -0.197985
C8    C     C_R   0.981003 0.286624 0.517749 -0.146077
C9    C     C_R   0.033624 0.357006 0.507965 -0.181797
C10   C     C_R   0.978751 0.457309 0.482754 0.078415
C11   C     C_R   0.869437 0.483127 0.463004 0.093926
C12   C     C_R   0.029543 0.531945 0.473892 0.075199
C13   C     C_R   0.974512 0.626169 0.434174 0.168985
C14   C     C_R   0.870445 0.645628 0.404917 -0.250067
C15   C     C_R   0.818761 0.575158 0.418643 -0.202618
C16   C     C_R   0.133596 0.515789 0.503762 -0.261635
C17   C     C_R   0.130720 0.678435 0.447240 -0.194160
C18   C     C_R   0.814993 0.414442 0.485719 -0.109183
H4    H     H_    0.176645 0.448587 0.540162 0.143028
H5    H     H_    0.834535 0.259428 0.518988 0.147421
H6    H     H_    0.117640 0.329481 0.516865 0.124092
H7    H     H_    0.024327 0.209688 0.535149 0.138750
H8    H     H_    0.740039 0.592437 0.390427 0.158339
C19   C     C_R   0.569220 0.427340 0.909669 -0.151100
H9    H     H_    0.622405 0.366281 0.948406 0.125405
C20   C     C_R   0.567975 0.423787 0.817359 -0.220633
H10   H     H_    0.622387 0.361497 0.785867 0.143008
C21   C     C_R   0.499514 0.502169 0.766702 -0.015471
C22   C     C_R   0.433470 0.585468 0.809062 -0.185568
H11   H     H_    0.380880 0.647128 0.770560 0.129991
C23   C     C_R   0.434258 0.588903 0.901568 -0.181256
H12   H     H_    0.382319 0.652834 0.934116 0.132313
C24   C     C_R   0.502237 0.509752 0.951660 0.093572
C25   C     C_R   0.571876 0.549131 0.099202 0.121089
C26   C     C_R   0.570159 0.544623 0.192083 -0.214255
H13   H     H_    0.623206 0.573170 0.232233 0.122926
C27   C     C_R   0.501412 0.502443 0.233481 -0.037844
C28   C     C_R   0.431994 0.466612 0.182293 -0.224729
H14   H     H_    0.375722 0.437606 0.213092 0.143628
C29   C     C_R   0.432345 0.471057 0.090179 -0.186226
H15   H     H_    0.378397 0.442590 0.051206 0.142150
C30   C     C_R   0.501918 0.511604 0.048353 0.060769
C31   C     C_R   0.532562 0.881551 0.425747 -0.285673
H16   H     H_    0.559330 0.910563 0.367448 0.127405
C32   C     C_R   0.533062 0.780890 0.427644 0.077189
H17   H     H_    0.560287 0.734691 0.370698 0.112865
N1    N     N_R   0.500000 0.741310 0.499980 -0.168744
C33   C     C_R   0.466825 0.800042 0.572078 0.080693
H18   H     H_    0.439512 0.769644 0.629127 0.120674
C34   C     C_R   0.467143 0.900442 0.573516 -0.286813
H19   H     H_    0.440320 0.944948 0.631681 0.129386
C35   C     C_R   0.499777 0.943141 0.499514 0.147759
C36   C     C_R   0.541091 0.089958 0.570530 -0.296628
H20   H     H_    0.575416 0.038763 0.625456 0.139958
C37   C     C_R   0.541512 0.191410 0.572136 0.270424
N2    N     N_R   0.500060 0.258650 0.499980 -0.179916
C38   C     C_R   0.456388 0.217400 0.428231 0.278198
C39   C     C_R   0.457790 0.115301 0.428917 -0.300555
H21   H     H_    0.423186 0.084949 0.373965 0.137912
C40   C     C_R   0.499820 0.050829 0.499484 0.069105
C41   C     C_3   0.648946 0.593329 0.057158 -0.428762
C42   C     C_3   0.759765 0.518819 0.063155 -0.336666
C43   C     C_3   0.838126 0.562110 0.020244 -0.841173
H22   H     H_    0.816404 0.579282 0.948667 0.256280
H23   H     H_    0.840215 0.631651 0.054434 0.250668
H24   H     H_    0.917531 0.506650 0.025773 0.240923
H25   H     H_    0.784771 0.500112 0.134048 0.217191
H26   H     H_    0.760362 0.448586 0.028703 0.219275
H27   H     H_    0.626448 0.614527 0.986360 0.210548
H28   H     H_    0.647908 0.663502 0.091978 0.189838
C44   C     C_3   0.591574 0.214485 0.658822 -0.362375
C45   C     C_3   0.700871 0.225091 0.646981 -0.300808
C46   C     C_3   0.779464 0.173673 0.721767 -0.924016
H29   H     H_    0.750675 0.203067 0.787590 0.252942
H30   H     H_    0.792704 0.091452 0.721231 0.260728
H31   H     H_    0.855379 0.187714 0.711690 0.251884
H32   H     H_    0.731857 0.189661 0.583728 0.217189
H33   H     H_    0.696068 0.305298 0.645736 0.236380
H34   H     H_    0.537888 0.273498 0.696919 0.194614
H35   H     H_    0.601647 0.152345 0.707913 0.165420
C47   C     C_3   0.402904 0.272097 0.342921 -0.367246
C48   C     C_3   0.294817 0.348772 0.356810 -0.280639
C49   C     C_3   0.211309 0.340484 0.288008 -0.914941
H36   H     H_    0.235379 0.350951 0.219679 0.250838
H37   H     H_    0.198706 0.265999 0.293694 0.260184
H38   H     H_    0.136192 0.399314 0.300019 0.259304
H39   H     H_    0.267081 0.337540 0.423520 0.225853
H40   H     H_    0.300638 0.425615 0.350905 0.228607
H41   H     H_    0.455819 0.299221 0.303189 0.192961
H42   H     H_    0.389994 0.217185 0.294107 0.164000

loop_
_geom_bond_atom_site_label_1
_geom_bond_atom_site_label_2
_geom_bond_distance
_ccdc_geom_bond_type
C5    H3    1.083776 S    
C36   C37   1.423833 A    
C34   C35   1.406898 A    
C21   C22   1.402385 A    
C48   C49   1.528823 S    
C43   H24   1.110398 S    
C41   H28   1.112287 S    
C45   H33   1.106092 S    
Cu1   Cu2   2.702863 S    
C20   C21   1.399075 A    
C29   H15   1.083871 S    
Cu1   O7    1.934774 S    
C13   C14   1.393077 A    
C38   C47   1.529363 S    
C43   H23   1.110899 S    
C16   H4    1.077553 S    
N2    C38   1.417070 A    
O4    C2    1.301449 A    
O7    C4    1.302205 A    
C46   H30   1.110972 S    
H1    C17   1.083019 S    
C31   C35   1.406561 A    
C49   H38   1.110932 S    
C35   C40   1.509385 S    
C31   H16   1.082896 S    
C33   C34   1.408611 A    
O5    C3    1.303078 A    
C37   N2    1.415501 A    
C49   H37   1.110918 S    
C24   C30   1.454541 S    
C10   C11   1.419408 A    
C38   C39   1.425235 A    
C42   H25   1.111942 S    
C26   C27   1.400387 A    
C36   H20   1.084221 S    
O1    Cu1   1.945108 S    
C8    C9    1.387921 A    
C47   C48   1.540145 S    
C22   C23   1.391885 A    
C41   H27   1.110305 S    
O3    Cu1   1.948447 S    
C23   C24   1.398469 A    
C29   C30   1.398260 A    
C12   C16   1.401442 A    
C9    H6    1.077407 S    
C41   C42   1.532926 S    
C28   H14   1.077955 S    
C37   C44   1.525859 S    
C43   H22   1.110950 S    
O3    C2    1.310655 A    
C20   H10   1.075713 S    
C39   C40   1.378098 A    
C46   H29   1.109813 S    
C42   H26   1.111869 S    
C5    C13   1.403743 A    
C32   H17   1.080526 S    
C45   C46   1.529904 S    
C36   C40   1.377080 A    
O6    C3    1.296391 A    
C34   H19   1.082905 S    
N1    C33   1.366672 A    
C28   C29   1.386663 A    
H2    C14   1.084129 S    
C42   C43   1.525585 S    
C19   H9    1.083488 S    
C25   C26   1.399293 A    
Cu2   O8    1.948448 S    
C49   H36   1.110660 S    
C27   C28   1.396499 A    
C44   C45   1.535530 S    
C47   H41   1.095507 S    
C7    H5    1.074003 S    
C26   H13   1.084700 S    
O8    C4    1.302031 A    
C47   H42   1.112407 S    
C22   H11   1.083516 S    
C6    C16   1.395119 A    
C23   H12   1.083288 S    
C5    C17   1.393881 A    
C25   C30   1.412904 A    
Cu1   O5    1.943828 S    
C1    C21   1.455593 S    
C48   H39   1.109691 S    
C4    C6    1.464060 S    
O2    Cu2   1.943829 S    
C11   C15   1.412700 A    
C25   C41   1.513292 S    
C46   H31   1.110636 S    
Cu1   N2    2.030756 S    
O4    Cu2   1.934773 S    
C45   H32   1.108877 S    
C8    H7    1.082830 S    
O2    C1    1.296127 A    
C12   C13   1.418429 A    
C11   C18   1.422499 A    
C39   H21   1.084090 S    
C19   C20   1.388921 A    
Cu2   N1    2.030442 S    
C31   C32   1.408869 A    
C2    C18   1.481196 S    
C44   H35   1.112689 S    
C10   C12   1.420801 A    
C33   H18   1.080557 S    
C3    C27   1.454106 S    
C7    C8    1.385873 A    
C15   H8    1.079560 S    
Cu2   O6    1.945106 S    
C14   C15   1.388338 A    
C9    C10   1.415882 A    
C44   H34   1.095257 S    
O1    C1    1.303999 A    
C19   C24   1.396850 A    
C6    C17   1.399792 A    
C32   N1    1.367193 A    
C48   H40   1.106848 S    
C7    C18   1.401490 A    
