data_mof_unit_4644.cif
_audit_creation_date              2013-03-05T15:43:42-0500
_audit_creation_method            fapswitch 2.2
_symmetry_space_group_name_H-M    P1
_symmetry_Int_Tables_number       1
_space_group_crystal_system       triclinic
_cell_length_a                    14.263367
_cell_length_b                    14.367446
_cell_length_c                    26.991808
_cell_angle_alpha                 89.400621
_cell_angle_beta                  89.730099
_cell_angle_gamma                 121.06754
_cell_volume                      4737.36851044

loop_
_atom_site_label
_atom_site_type_symbol
_atom_site_description
_atom_site_fract_x
_atom_site_fract_y
_atom_site_fract_z
_atom_type_partial_charge
O1    O     O_R   0.137150 0.468200 0.553200 -0.492591
O2    O     O_R   0.531800 0.668950 0.553200 -0.464205
O3    O     O_R   0.331050 0.862850 0.553200 -0.449921
O4    O     O_R   0.173970 0.688730 0.549930 -0.450078
O5    O     O_R   0.311270 0.485240 0.549930 -0.467246
O6    O     O_R   0.514760 0.826030 0.549930 -0.501542
C1    C     C_R   0.265249 0.763278 0.573308 0.558638
C2    C     C_R   0.209870 0.444010 0.567382 0.555322
C3    C     C_R   0.550406 0.764264 0.568724 0.554193
O7    O     O_R   0.140110 0.470540 0.446010 -0.489031
O8    O     O_R   0.529460 0.669570 0.446010 -0.483862
O9    O     O_R   0.330430 0.859890 0.446010 -0.486207
O10   O     O_R   0.176710 0.690910 0.450560 -0.473810
O11   O     O_R   0.309090 0.485800 0.450560 -0.482191
O12   O     O_R   0.514200 0.823290 0.450560 -0.482879
C4    C     C_R   0.231914 0.789817 0.432502 0.582069
C5    C     C_R   0.209889 0.442363 0.432798 0.562245
C6    C     C_R   0.557450 0.768422 0.432378 0.565281
Cr1   Cr    Cr6+3 0.164410 0.584450 0.499910 1.126643
Cr2   Cr    Cr6+3 0.415550 0.579960 0.499910 1.122648
Cr3   Cr    Cr6+3 0.420040 0.835590 0.499910 1.116805
O13   O     O_3   0.333333 0.666667 0.499990 -0.362439
C7    C     C_3   0.659241 0.940598 0.729140 -0.029500
C8    C     C_3   0.123138 0.696882 0.744637 -0.028522
C9    C     C_3   0.188730 0.440878 0.735944 -0.046882
C10   C     C_3   0.767777 0.839921 0.718875 0.190155
C11   C     C_3   0.234166 0.899815 0.714724 0.162870
C12   C     C_3   0.217963 0.278367 0.726779 0.201144
C13   C     C_3   0.803193 0.870534 0.774516 -0.045500
C14   C     C_3   0.213911 0.940037 0.765379 -0.032153
C15   C     C_3   0.192576 0.246880 0.783313 -0.047658
H1    H     H_    0.775954 0.037004 0.785464 0.152739
H2    H     H_    0.026483 0.758937 0.769936 0.188590
H3    H     H_    0.297201 0.455720 0.796126 0.182128
H4    H     H_    0.872885 0.954914 0.774760 0.159234
H5    H     H_    0.141850 0.946765 0.759372 0.192636
H6    H     H_    0.270939 0.272895 0.802557 0.178751
C16   C     C_1   0.748974 0.881624 0.901154 0.090227
C17   C     C_1   0.120600 0.898535 0.893871 0.102105
C18   C     C_1   0.131842 0.265230 0.902819 0.075948
C19   C     C_3   0.657084 0.836749 0.710329 -0.010499
C20   C     C_3   0.233469 0.790586 0.722233 -0.014594
C21   C     C_3   0.150984 0.331678 0.708766 0.006267
C22   C     C_3   0.694996 0.960667 0.783969 -0.021930
C23   C     C_3   0.085953 0.741689 0.787053 -0.004229
C24   C     C_3   0.209237 0.427497 0.791129 -0.005023
C25   C     C_3   0.707882 0.865918 0.804911 0.000856
C26   C     C_3   0.183238 0.851996 0.806761 -0.022521
C27   C     C_3   0.137749 0.305752 0.806081 0.011284
C28   C     C_3   0.607706 0.750482 0.795839 -0.011538
C29   C     C_3   0.289393 0.847072 0.812686 0.003918
C30   C     C_3   0.019554 0.253511 0.782590 -0.016301
C31   C     C_3   0.567435 0.742817 0.742843 -0.249845
C32   C     C_3   0.319235 0.809702 0.763325 -0.254980
C33   C     C_3   0.029454 0.256426 0.724867 -0.244648
C34   C     C_1   0.730574 0.878496 0.857875 0.052944
C35   C     C_1   0.148527 0.880033 0.854164 0.073952
C36   C     C_1   0.136215 0.289581 0.859945 0.041033
C37   C     C_1   0.625613 0.816654 0.658369 0.040026
C38   C     C_1   0.253005 0.763914 0.671590 0.043908
C39   C     C_1   0.162173 0.351642 0.654992 0.054224
C40   C     C_1   0.596734 0.795467 0.616357 0.091811
C41   C     C_1   0.259688 0.758723 0.626915 0.062103
C42   C     C_1   0.182102 0.385003 0.613020 0.100724
H7    H     H_    0.494098 0.750087 0.744646 0.169001
H8    H     H_    0.321732 0.735315 0.771224 0.191662
H9    H     H_    0.978130 0.285646 0.707998 0.188316
H10   H     H_    0.543465 0.661979 0.727746 0.200568
H11   H     H_    0.402152 0.872519 0.750349 0.151914
H12   H     H_    0.998250 0.173202 0.711233 0.187350
H13   H     H_    0.574755 0.924982 0.727205 0.158179
H14   H     H_    0.138397 0.634886 0.760659 0.184644
H15   H     H_    0.121981 0.459278 0.734323 0.185198
H16   H     H_    0.633770 0.690024 0.799403 0.198034
H17   H     H_    0.358956 0.929632 0.818557 0.199158
H18   H     H_    0.966900 0.167914 0.794652 0.155866
O14   O     O_R   0.176750 0.985260 0.074180 -0.493392
O15   O     O_R   0.014740 0.191490 0.074180 -0.487659
O16   O     O_R   0.808510 0.823250 0.074180 -0.466957
O17   O     O_R   0.146100 0.172630 0.068980 -0.470537
O18   O     O_R   0.827370 0.973470 0.068980 -0.475216
O19   O     O_R   0.026530 0.853900 0.068980 -0.445357
C43   C     C_R   0.107304 0.221740 0.087996 0.586300
C44   C     C_R   0.776242 0.883273 0.087350 0.589153
C45   C     C_R   0.117425 0.891938 0.086447 0.626258
Cr4   Cr    Cr6+3 0.155170 0.075460 0.019960 1.134882
Cr5   Cr    Cr6+3 0.924540 0.079710 0.019960 1.134082
Cr6   Cr    Cr6+3 0.920290 0.844830 0.019960 1.164047
C46   C     C_R   0.106957 0.220643 0.951479 0.574615
C47   C     C_R   0.782932 0.888273 0.950706 0.574571
C48   C     C_R   0.095795 0.926445 0.941920 0.551492
O20   O     O_3   0.000000 0.000000 0.020040 -0.308534
O21   O     O_R   0.148270 0.170520 0.969620 -0.505216
O22   O     O_R   0.829480 0.977750 0.969620 -0.492030
O23   O     O_R   0.022250 0.851730 0.969620 -0.458416
C49   C     C_R   0.643572 0.908017 0.363799 -0.028840
C50   C     C_R   0.089525 0.741376 0.365940 -0.025028
C51   C     C_R   0.261823 0.354747 0.366403 -0.027889
C52   C     C_R   0.651240 0.916668 0.311413 -0.043139
C53   C     C_R   0.076033 0.750062 0.314383 -0.025191
C54   C     C_R   0.260705 0.342120 0.314389 -0.042331
C55   C     C_R   0.666821 0.931194 0.206269 -0.048657
C56   C     C_R   0.059512 0.757363 0.209641 -0.012184
C57   C     C_R   0.258505 0.321115 0.209578 -0.045929
C58   C     C_R   0.659560 0.011232 0.234119 -0.001244
C59   C     C_R   0.966145 0.686183 0.239291 0.001834
C60   C     C_R   0.347651 0.331607 0.237923 -0.001390
C61   C     C_R   0.657259 0.005207 0.285879 -0.096295
C62   C     C_R   0.977219 0.679582 0.290468 -0.140272
C63   C     C_R   0.344544 0.336910 0.289560 -0.096359
C64   C     C_R   0.698131 0.944621 0.155344 -0.042855
C65   C     C_R   0.058736 0.757620 0.156991 -0.003837
C66   C     C_R   0.242094 0.290936 0.158805 -0.039867
H19   H     H_    0.655696 0.069141 0.305777 0.152876
H20   H     H_    0.905192 0.622903 0.311785 0.112491
H21   H     H_    0.411976 0.341949 0.309856 0.153480
C67   C     C_R   0.702925 0.859670 0.130794 0.015136
C68   C     C_R   0.142084 0.849253 0.131322 0.017233
C69   C     C_R   0.154158 0.288562 0.132760 0.017896
C70   C     C_R   0.646547 0.740103 0.359947 0.068276
C71   C     C_R   0.262187 0.915079 0.361706 0.064469
C72   C     C_R   0.086986 0.346588 0.362136 0.068880
C73   C     C_R   0.641401 0.741552 0.308370 0.011679
C74   C     C_R   0.256840 0.915592 0.310011 0.007010
C75   C     C_R   0.089833 0.343304 0.310381 0.011820
C76   C     C_R   0.645882 0.831038 0.283774 0.033332
C77   C     C_R   0.163459 0.832775 0.286069 0.035904
C78   C     C_R   0.176986 0.341201 0.286250 0.033786
C79   C     C_R   0.626760 0.652816 0.281038 -0.122393
C80   C     C_R   0.344929 0.995266 0.281703 -0.104990
C81   C     C_R   0.009698 0.347115 0.282156 -0.111293
C82   C     C_R   0.621573 0.654170 0.229911 -0.084462
C83   C     C_R   0.341971 0.992663 0.230509 -0.111152
C84   C     C_R   0.014868 0.348638 0.230962 -0.115853
C85   C     C_R   0.639243 0.747459 0.204479 0.032432
C86   C     C_R   0.248762 0.913402 0.205961 0.001730
C87   C     C_R   0.096782 0.340129 0.206350 0.012250
C88   C     C_R   0.650467 0.836715 0.231475 0.024553
C89   C     C_R   0.156780 0.834734 0.233855 0.021770
C90   C     C_R   0.177558 0.333963 0.234030 0.030548
C91   C     C_R   0.653767 0.756093 0.153020 0.091695
C92   C     C_R   0.243260 0.915682 0.154293 0.040021
C93   C     C_R   0.095572 0.331656 0.154827 0.051991
C94   C     C_R   0.626931 0.811731 0.387081 0.036078
C95   C     C_R   0.189682 0.818700 0.388224 0.027626
C96   C     C_R   0.181849 0.371798 0.388770 0.033010
H22   H     H_    0.611297 0.583982 0.210792 0.166989
H23   H     H_    0.412305 0.056297 0.210736 0.172806
H24   H     H_    0.950394 0.351019 0.211226 0.166164
H25   H     H_    0.616057 0.580097 0.298810 0.145686
H26   H     H_    0.419159 0.057923 0.298577 0.170654
H27   H     H_    0.944175 0.353007 0.299068 0.159310
O24   O     O_R   0.179100 0.982980 0.967000 -0.469437
O25   O     O_R   0.017020 0.196120 0.967000 -0.478985
O26   O     O_R   0.803880 0.820900 0.967000 -0.489127
I1    I     I_    0.595364 0.000885 0.828008 -0.239112
I2    I     I_    0.990977 0.618471 0.843068 -0.105249
I3    I     I_    0.181869 0.525835 0.839674 -0.231911
C97   C     C_2   0.738013 0.050548 0.129593 0.251968
H28   H     H_    0.799754 0.125338 0.146609 0.128529
O27   O     O_2   0.699747 0.054807 0.089832 -0.437746
C98   C     C_2   0.988464 0.655474 0.129203 0.322247
H29   H     H_    0.938063 0.579056 0.148895 0.140155
O28   O     O_2   0.991035 0.653386 0.084017 -0.437719
C99   C     C_2   0.307381 0.249772 0.134956 0.247460
H30   H     H_    0.316442 0.187426 0.153428 0.127103
O29   O     O_2   0.354787 0.288363 0.095517 -0.440885
C100  C     C_2   0.654779 0.998664 0.394544 0.285641
H31   H     H_    0.617741 0.045154 0.383647 0.114681
O30   O     O_2   0.705845 0.021668 0.433153 -0.423842
C101  C     C_2   0.999560 0.653106 0.396243 0.284690
H32   H     H_    0.950716 0.571727 0.381759 0.111974
O31   O     O_2   0.978175 0.671472 0.437545 -0.414264
C102  C     C_2   0.344010 0.348201 0.397703 0.288011
H33   H     H_    0.429331 0.388106 0.386499 0.114179
O32   O     O_2   0.316179 0.297756 0.437011 -0.422354
C103  C     C_2   0.642643 0.095894 0.211210 0.203905
H34   H     H_    0.599393 0.080511 0.176534 0.162780
O33   O     O_2   0.675272 0.183133 0.231274 -0.484439
C104  C     C_2   0.852595 0.628300 0.220431 0.201829
H35   H     H_    0.789570 0.555230 0.239265 0.135979
O34   O     O_2   0.826806 0.665035 0.185627 -0.494667
C105  C     C_2   0.451190 0.349682 0.215358 0.196170
H36   H     H_    0.479151 0.390416 0.179652 0.162708
O35   O     O_2   0.507792 0.321480 0.236952 -0.485492
I4    I     I_    0.603282 0.614761 0.108572 -0.193299
I5    I     I_    0.388672 0.011605 0.109652 -0.225044
I6    I     I_    0.006652 0.384974 0.110250 -0.244926
I7    I     I_    0.740433 0.086516 0.683977 -0.251622
I8    I     I_    0.990655 0.592055 0.695809 -0.168896
I9    I     I_    0.317800 0.581445 0.699159 -0.504541
I10   I     I_    0.697388 0.639253 0.396106 -0.251919
I11   I     I_    0.370650 0.064170 0.399257 -0.217928
I12   I     I_    0.935473 0.300563 0.400051 -0.230860
I13   I     I_    0.750814 0.686599 0.695769 -0.132989
I14   I     I_    0.384492 0.021204 0.675477 -0.127852
I15   I     I_    0.192151 0.150297 0.679114 -0.145879
I16   I     I_    0.893840 0.952399 0.668897 -0.207020
I17   I     I_    0.107172 0.873693 0.662289 -0.125876
I18   I     I_    0.393948 0.381670 0.716900 -0.182115
I19   I     I_    0.863148 0.779091 0.812861 -0.322155
I20   I     I_    0.347132 0.101835 0.789589 -0.202013
I21   I     I_    0.090564 0.077373 0.805103 -0.467169
I22   I     I_    0.480387 0.683892 0.850394 -0.260325
I23   I     I_    0.306156 0.790538 0.884465 -0.135026
I24   I     I_    0.914370 0.311010 0.806807 -0.180367

loop_
_geom_bond_atom_site_label_1
_geom_bond_atom_site_label_2
_geom_bond_distance
_ccdc_geom_bond_type
O15   Cr5   2.076213 S    
C85   C88   1.417689 A    
C101  H32   1.084757 S    
Cr5   O22   1.959495 S    
O8    C6    1.309339 A    
C99   H30   1.085543 S    
O12   C6    1.322868 A    
C53   C77   1.412033 A    
C8    C20   1.562713 S    
C93   I6    2.154292 S    
C70   C94   1.408814 A    
C81   C84   1.382783 A    
C9    C21   1.563812 S    
O6    C3    1.327411 A    
C81   H27   1.080481 S    
C26   C35   1.501713 S    
O5    Cr2   1.934085 S    
C92   I5    2.155120 S    
C101  O31   1.221265 D    
C24   C27   1.550075 S    
C8    H14   1.104856 S    
C12   I18   2.171412 S    
C13   C25   1.555933 S    
C38   C41   1.215267 T    
C30   I24   2.154498 S    
C8    C23   1.539017 S    
C14   C26   1.560067 S    
Cr4   O24   2.104423 S    
C15   C27   1.547146 S    
C48   O24   1.246129 A    
O3    C1    1.347314 A    
C70   I10   2.153927 S    
C66   C99   1.483930 S    
O16   C44   1.223281 A    
C51   C102  1.489386 S    
O7    C5    1.302771 A    
C43   C69   1.482527 S    
C24   I3    2.113909 S    
C49   C52   1.416881 A    
C54   C78   1.412595 A    
H2    C23   1.101193 S    
C55   C58   1.427748 A    
C55   C88   1.418548 A    
C61   H19   1.078929 S    
C31   H10   1.110520 S    
C64   C97   1.484429 S    
C102  H33   1.083493 S    
C71   C74   1.397941 A    
O17   Cr4   1.984923 S    
C66   C69   1.425904 A    
O4    Cr1   1.979737 S    
O15   C43   1.219377 A    
C26   C29   1.560696 S    
O9    C4    1.293614 A    
C44   C67   1.482473 S    
C103  O33   1.222876 D    
C75   C78   1.414923 A    
C86   C92   1.398171 A    
C49   C100  1.489773 S    
H3    C24   1.111062 S    
C18   C46   1.415914 S    
C52   C76   1.413756 A    
C31   H7    1.104474 S    
C15   I21   2.167673 S    
C22   C25   1.565104 S    
C79   C82   1.382794 A    
C100  O30   1.221337 D    
C87   C93   1.396700 A    
Cr6   O23   1.949569 S    
O14   C45   1.200206 A    
C53   C62   1.406336 A    
C99   O29   1.221400 D    
Cr5   O20   1.934467 S    
C73   C79   1.399852 A    
C11   C14   1.572241 S    
O11   C5    1.312500 A    
C55   C64   1.423316 A    
C77   C89   1.413980 A    
C72   I12   2.155225 S    
O4    C1    1.350217 A    
C10   I13   2.186353 S    
C71   I11   2.156169 S    
O16   Cr6   2.058704 S    
C87   C90   1.416180 A    
C104  O34   1.220498 D    
C47   O22   1.220689 A    
C25   C28   1.555065 S    
C98   O28   1.221191 D    
C69   C93   1.404774 A    
C14   I20   2.219481 S    
C58   C61   1.398051 A    
O8    Cr2   2.047820 S    
O1    Cr1   2.069780 S    
C28   C31   1.527723 S    
C13   I19   2.160570 S    
O10   Cr1   1.955221 S    
O2    Cr2   2.079889 S    
C3    C40   1.415990 S    
C22   I1    2.147646 S    
Cr6   O26   2.088543 S    
O11   Cr2   1.961343 S    
Cr1   O13   2.064770 S    
C23   I2    2.169037 S    
C19   C37   1.460314 S    
C9    I9    2.134756 S    
C20   C38   1.486819 S    
C73   C76   1.412346 A    
C51   C96   1.418001 A    
C30   H18   1.103875 S    
C54   C63   1.403783 A    
C84   H24   1.080435 S    
O9    Cr3   2.083170 S    
C27   C36   1.468225 S    
C15   H6    1.112267 S    
O1    C2    1.310037 A    
C60   C105  1.487200 S    
C4    C95   1.489227 S    
C86   C89   1.417065 A    
C39   C42   1.199583 T    
C67   C91   1.402334 A    
C105  H36   1.083554 S    
C52   C61   1.403198 A    
Cr4   O21   1.955104 S    
C7    H13   1.107716 S    
C49   C94   1.416529 A    
C105  O35   1.221798 D    
C75   C81   1.400635 A    
C97   H28   1.085627 S    
O12   Cr3   1.960194 S    
O7    Cr1   2.093873 S    
C27   C30   1.587950 S    
C1    C41   1.447678 S    
C97   O27   1.221486 D    
H1    C22   1.110033 S    
Cr5   O25   2.058137 S    
C11   I17   2.181421 S    
C83   H23   1.079463 S    
Cr6   O20   1.909694 S    
C84   C87   1.401122 A    
C19   C31   1.552478 S    
O18   Cr5   1.938692 S    
C2    C42   1.421287 S    
C83   C86   1.401737 A    
C21   C33   1.552857 S    
C100  H31   1.083181 S    
Cr2   O13   2.105920 S    
O14   Cr4   2.071786 S    
C74   C77   1.412764 A    
C56   C89   1.421157 A    
C60   C63   1.398402 A    
C71   C95   1.411947 A    
O3    Cr3   2.083544 S    
C80   C83   1.382988 A    
C72   C96   1.409826 A    
C51   C54   1.416637 A    
C63   H21   1.079062 S    
C7    I7    2.156343 S    
O18   C44   1.210298 A    
C104  H35   1.085897 S    
C21   C39   1.468448 S    
O17   C43   1.214659 A    
C98   H29   1.083664 S    
C23   C26   1.573214 S    
C13   H4    1.101971 S    
C76   C88   1.412420 A    
C37   C40   1.195998 T    
C50   C53   1.418758 A    
C82   H22   1.078779 S    
C50   C95   1.421587 A    
C17   C48   1.456359 S    
C12   C15   1.573398 S    
C58   C103  1.486194 S    
C68   C92   1.406131 A    
C50   C101  1.487542 S    
O5    C2    1.329694 A    
C33   H9    1.111669 S    
C70   C73   1.394944 A    
C32   H8    1.106145 S    
C28   I22   2.129251 S    
O19   C45   1.217233 A    
C65   C98   1.494288 S    
C16   C47   1.411973 S    
C12   C21   1.577202 S    
C91   I4    2.152003 S    
C12   I15   2.128709 S    
C7    C19   1.566379 S    
C29   H17   1.098767 S    
C14   H5    1.093559 S    
C64   C67   1.426912 A    
C29   C32   1.577989 S    
C18   C36   1.197412 T    
C72   C75   1.399345 A    
C28   H16   1.110798 S    
C5    C96   1.487025 S    
C78   C90   1.414725 A    
C79   H25   1.081301 S    
Cr4   O20   1.896640 S    
C74   C80   1.400371 A    
C65   C68   1.408681 A    
C30   C33   1.561938 S    
O6    Cr3   1.967693 S    
C11   C20   1.575198 S    
C46   O25   1.212684 A    
C32   H11   1.106242 S    
C82   C85   1.400612 A    
O19   Cr6   1.970437 S    
C29   I23   2.154657 S    
C6    C94   1.483387 S    
C56   C59   1.423739 A    
C9    H15   1.112720 S    
C59   C104  1.483364 S    
C46   O21   1.240523 A    
C45   C68   1.475822 S    
C10   I16   2.144057 S    
C102  O32   1.221291 D    
C33   H12   1.106679 S    
C62   H20   1.082049 S    
C48   O23   1.274897 A    
C57   C66   1.425375 A    
C57   C90   1.420573 A    
C85   C91   1.398098 A    
C16   C34   1.194724 T    
C10   C13   1.579811 S    
C103  H34   1.083734 S    
O10   C4    1.305368 A    
C80   H26   1.080850 S    
C56   C65   1.421206 A    
C8    I8    2.168831 S    
C11   I14   2.200389 S    
C47   O26   1.229036 A    
Cr3   O13   2.078896 S    
O2    C3    1.326380 A    
C9    C24   1.548365 S    
C57   C60   1.427794 A    
C20   C32   1.573057 S    
C10   C19   1.573995 S    
C25   C34   1.459640 S    
C7    C22   1.548437 S    
C59   C62   1.398888 A    
C17   C35   1.220331 T    
