data_mof_unit_1049.cif
_audit_creation_date              2012-12-11T18:58:49-0500
_audit_creation_method            fapswitch 2.2
_symmetry_space_group_name_H-M    P1
_symmetry_Int_Tables_number       1
_space_group_crystal_system       triclinic
_cell_length_a                    8.422525
_cell_length_b                    15.002117
_cell_length_c                    17.18896
_cell_angle_alpha                 100.400455
_cell_angle_beta                  98.14471
_cell_angle_gamma                 99.112376
_cell_volume                      2076.60855074

loop_
_atom_site_label
_atom_site_type_symbol
_atom_type_description
_atom_site_fract_x
_atom_site_fract_y
_atom_site_fract_z
_atom_type_partial_charge
Ba1   Ba    Ba6+2 0.844370 0.541120 0.463210 1.687304
Ba2   Ba    Ba6+2 0.345470 0.458960 0.536800 1.714606
C1    C     C_3   0.686808 0.872258 0.294421 0.321105
C2    C     C_3   0.392059 0.499030 0.216540 -0.003911
C3    C     C_2   0.311497 0.501500 0.132901 -0.081812
C4    C     C_3   0.035561 0.736711 0.248607 0.664424
C5    C     C_2   0.146450 0.486267 0.112496 0.049988
C6    C     C_2   0.044300 0.465884 0.174359 -0.111884
C7    C     C_1   0.113332 0.464106 0.248296 0.047400
C8    C     C_R   0.882280 0.485102 0.863578 0.015602
C9    C     C_R   0.816177 0.469347 0.781942 0.112422
C10   C     C_R   0.079655 0.536708 0.753825 0.021973
C11   C     C_R   0.147035 0.548949 0.835583 -0.123585
C12   C     C_3   0.653380 0.770157 0.304712 0.361618
C13   C     C_R   0.050573 0.520540 0.890943 0.007024
C14   C     C_2   0.062291 0.484057 0.029239 -0.039830
C15   C     C_2   0.130861 0.527041 0.975783 -0.018856
C16   C     C_3   0.937948 0.753491 0.172702 -0.184230
C17   C     C_R   0.915682 0.493913 0.727373 -0.255142
C18   C     C_R   0.330847 0.820103 0.448284 0.076725
C19   C     C_R   0.583520 0.790987 0.518531 0.033959
C20   C     C_R   0.768970 0.231045 0.520638 -0.226519
C21   C     C_R   0.867961 0.173658 0.549384 0.089313
C22   C     C_R   0.805648 0.079557 0.540056 -0.166795
C23   C     C_3   0.393447 0.299357 0.288721 0.299001
C24   C     C_R   0.641355 0.041358 0.502960 0.005682
C25   C     C_R   0.544887 0.100567 0.470786 -0.043965
C26   C     C_R   0.569892 0.946333 0.495613 -0.015698
C27   C     C_R   0.404500 0.913271 0.456056 -0.029853
C28   C     C_3   0.276107 0.743886 0.640458 0.295119
C29   C     C_R   0.315580 0.973838 0.424817 -0.037705
C30   C     C_R   0.384893 0.064475 0.430563 -0.030422
C31   C     C_R   0.655501 0.883598 0.527876 -0.150859
C32   C     C_R   0.422996 0.759255 0.477424 -0.256382
C33   C     C_R   0.610093 0.195003 0.479280 -0.012115
C34   C     C_3   0.339529 0.260015 0.199127 -0.335218
C35   C     C_3   0.286732 0.847874 0.659813 -0.280501
C36   C     C_3   0.912951 0.255130 0.357417 0.270390
C37   C     C_3   0.875135 0.150287 0.332103 -0.319328
C38   C     C_3   0.799914 0.682984 0.709138 0.294323
C39   C     C_3   0.864876 0.723752 0.798328 0.254970
C40   C     C_3   0.141182 0.264177 0.754073 0.654608
C41   C     C_3   0.243495 0.255773 0.832129 -0.233089
C42   C     C_3   0.516618 0.225831 0.687469 0.397735
C43   C     C_3   0.496451 0.122785 0.692470 0.386350
C44   C     C_2   0.271694 0.496569 0.274825 -0.162219
H1    H     H_    0.767626 0.754940 0.334528 0.006830
H2    H     H_    0.904208 0.665777 0.680618 -0.056933
H3    H     H_    0.706515 0.619455 0.701982 0.035862
H4    H     H_    0.816468 0.903236 0.319773 0.011730
H5    H     H_    0.939989 0.793575 0.805438 0.072770
H6    H     H_    0.944224 0.680221 0.823744 -0.039751
H7    H     H_    0.570494 0.766854 0.348786 0.035924
H8    H     H_    0.617203 0.912376 0.333314 0.015129
H9    H     H_    0.284191 0.314348 0.314173 0.023629
H10   H     H_    0.485167 0.363917 0.297579 0.019274
H11   H     H_    0.253625 0.193099 0.189319 0.161602
H12   H     H_    0.373182 0.878257 0.716681 0.208514
H13   H     H_    0.276295 0.308099 0.170108 0.044380
H14   H     H_    0.447385 0.249026 0.170782 0.133833
H15   H     H_    0.934081 0.696613 0.120762 0.118316
H16   H     H_    0.180941 0.334582 0.743613 0.002600
H17   H     H_    0.371449 0.259368 0.826738 0.151181
H18   H     H_    0.239154 0.314248 0.881247 0.073689
H19   H     H_    0.197529 0.190385 0.850104 0.194875
H20   H     H_    0.589465 0.234047 0.639933 -0.003374
H21   H     H_    0.401595 0.242657 0.663305 0.018555
H22   H     H_    0.591352 0.092943 0.663830 -0.002678
H23   H     H_    0.330190 0.879387 0.611332 0.028813
H24   H     H_    0.378493 0.085147 0.654750 -0.024663
H25   H     H_    0.985129 0.667428 0.257606 0.022640
H26   H     H_    0.254145 0.566827 0.993677 0.105422
H27   H     H_    0.912295 0.450008 0.157351 0.094027
H28   H     H_    0.802420 0.465147 0.903879 0.076322
H29   H     H_    0.938735 0.444957 0.012783 0.088717
H30   H     H_    0.389465 0.510389 0.088736 0.054720
H31   H     H_    0.274410 0.580743 0.856003 0.152941
H32   H     H_    0.319306 0.515575 0.338813 0.073593
H33   H     H_    0.863898 0.481679 0.664234 0.070336
H34   H     H_    0.164596 0.864073 0.666640 0.129655
H35   H     H_    0.366629 0.687877 0.471899 0.070395
H36   H     H_    0.190344 0.952831 0.394902 0.121067
H37   H     H_    0.777405 0.904652 0.562071 0.098916
H38   H     H_    0.818757 0.303582 0.527010 0.063511
H39   H     H_    0.888965 0.038410 0.561773 0.075353
H40   H     H_    0.308153 0.105582 0.403326 0.110616
H41   H     H_    0.811921 0.754265 0.179195 0.133116
H42   H     H_    0.991882 0.820014 0.158800 0.201008
H43   H     H_    0.396175 0.728634 0.629625 0.018898
H44   H     H_    0.181906 0.715080 0.585751 0.044481
H45   H     H_    0.803743 0.279560 0.375346 0.012991
H46   H     H_    0.635196 0.849511 0.813402 0.367249
H47   H     H_    0.789823 0.965118 0.121182 0.385323
H48   H     H_    0.884623 0.105120 0.706779 0.321422
H49   H     H_    0.596620 0.157803 0.914845 0.364501
H50   H     H_    0.346351 0.684311 0.131272 0.394636
H51   H     H_    0.016283 0.275312 0.408867 0.064844
H52   H     H_    0.768907 0.128263 0.282168 0.185120
H53   H     H_    0.845858 0.118552 0.382908 0.043203
H54   H     H_    0.982549 0.125007 0.311813 0.140870
O1    O     O_2   0.823670 0.438410 0.305690 -0.468781
O2    O     O_2   0.189555 0.177416 0.538640 -0.524240
O3    O     O_3   0.152040 0.194688 0.688551 -0.649656
O4    O     O_3   0.097540 0.445020 0.403910 -0.503603
O5    O     O_3   0.591400 0.612970 0.544220 -0.493449
O6    O     O_2   0.325880 0.273340 0.453540 -0.475652
O7    O     O_3   0.463081 0.234260 0.324022 -0.624181
O8    O     O_2   0.471807 0.445320 0.779783 -0.496848
O9    O     O_3   0.585895 0.289024 0.760339 -0.513389
O10   O     O_3   0.626660 0.608370 0.360070 -0.488851
O11   O     O_2   0.731432 0.558271 0.225918 -0.525170
O12   O     O_3   0.731572 0.748781 0.674583 -0.624936
O13   O     O_3   0.953364 0.291230 0.291807 -0.630414
O14   O     O_3   0.587466 0.702108 0.233815 -0.552516
O15   O     O_2   0.863840 0.726690 0.546510 -0.467452
O16   O     O_3   0.059500 0.657930 0.401470 -0.477086
O17   O     O_2   0.011897 0.822882 0.467011 -0.519131
O18   O     O_2   0.617190 0.636325 0.856027 -0.299700
O19   O     O_2   0.774272 0.781304 0.939997 -0.232630
O20   O     O_3   0.569231 0.789124 0.814490 -0.452370
O21   O     O_2   0.566738 0.815808 0.131706 -0.209833
O22   O     O_2   0.532961 0.967966 0.199156 -0.235393
O23   O     O_3   0.034854 0.806304 0.315692 -0.649152
O24   O     O_3   0.821109 0.947833 0.173404 -0.542360
O25   O     O_2   0.923227 0.299614 0.850124 -0.287584
O26   O     O_2   0.853886 0.287271 0.704267 -0.433774
O27   O     O_3   0.865526 0.135828 0.759600 -0.424284
O28   O     O_2   0.336208 0.061445 0.803191 -0.315197
O29   O     O_2   0.597990 0.015689 0.790752 -0.272673
O30   O     O_3   0.603219 0.181894 0.865185 -0.421661
O31   O     O_2   0.323110 0.838564 0.253774 -0.257064
O32   O     O_2   0.307160 0.684303 0.285406 -0.429081
O33   O     O_3   0.235210 0.696017 0.134051 -0.527686
O34   O     O_2   0.366040 0.561620 0.694360 -0.426719
O35   O     O_3   0.092170 0.555060 0.596100 -0.514364
O36   O     O_3   0.563060 0.391710 0.639940 -0.502868
O37   O     O_3   0.236069 0.708868 0.706717 -0.591597
O38   O     O_3   0.598320 0.387100 0.455790 -0.482174
O39   O     O_3   0.130210 0.342150 0.598540 -0.483589
P1    P     P_3+3 0.993950 0.412000 0.316970 0.980668
P2    P     P_3+3 0.694070 0.714570 0.569730 0.994581
P3    P     P_3+3 0.110124 0.776432 0.407316 0.981455
P4    P     P_3+3 0.195760 0.588070 0.683040 1.040092
P5    P     P_3+3 0.083550 0.222654 0.594706 0.961112
P6    P     P_3+3 0.581764 0.590831 0.256216 1.019061
P7    P     P_3+3 0.499394 0.271339 0.428532 0.942004
P8    P     P_3+3 0.607223 0.402517 0.743151 1.062716
S1    S     S_3+6 0.703724 0.731557 0.855139 -0.024516
S2    S     S_3+6 0.644591 0.898989 0.196250 -0.003990
S3    S     S_3+6 0.938833 0.248754 0.768788 -0.079046
S4    S     S_3+6 0.506440 0.093763 0.789915 -0.014453
S5    S     S_3+6 0.235129 0.740167 0.231253 -0.090294

loop_
_geom_bond_atom_site_label_1
_geom_bond_atom_site_label_2
_ccdc_geom_bond_type
O24   S2    S    
O15   P2    D    
C35   H23   S    
C14   H29   S    
C8    H28   S    
C42   H20   S    
C23   H10   S    
C28   H44   S    
C34   H13   S    
C40   O3    S    
C41   H17   S    
C5    C6    S    
C38   O12   S    
C2    C44   S    
H48   O27   S    
C20   C33   A    
C9    C17   A    
C24   C25   A    
Ba2   O34   S    
C29   H36   S    
Ba2   O39   S    
C26   C27   A    
C22   C24   A    
O29   S4    D    
C8    C13   A    
C36   H51   S    
O27   S3    S    
O5    P2    S    
C36   C37   S    
C1    H8    S    
C19   C31   A    
C38   H3    S    
O23   P3    S    
C38   H2    S    
Ba1   Ba2   S    
O34   P4    D    
O1    P1    D    
C14   C15   D    
H49   O30   S    
C21   C22   A    
H47   O24   S    
C32   H35   S    
O10   P6    S    
C22   H39   S    
C40   H16   S    
C39   H6    S    
C35   H12   S    
O8    P8    D    
C4    S5    S    
C42   O9    S    
O35   P4    S    
C25   C30   A    
C7    C44   D    
C28   O37   S    
O3    P5    S    
Ba2   P4    S    
O31   S5    D    
O9    P8    S    
O33   S5    S    
O2    P5    D    
C4    O23   S    
C28   H43   S    
C1    H4    S    
C41   H18   S    
C18   C27   A    
C4    H25   S    
C4    C16   S    
C35   H34   S    
C11   H31   S    
C1    S2    S    
Ba2   O38   S    
O22   S2    D    
C18   P3    S    
C34   H11   S    
C8    C9    A    
C3    C5    D    
C36   O13   S    
C6    C7    D    
C37   H52   S    
C19   C32   A    
C25   C33   A    
O19   S1    D    
C12   O14   S    
C36   H45   S    
Ba2   O6    S    
C16   H42   S    
O4    P1    S    
C28   C35   S    
C43   S4    S    
C33   P7    S    
C20   H38   S    
O12   P2    S    
Ba1   O10   S    
O39   P5    S    
O28   S4    D    
C37   H53   S    
C29   C30   A    
Ba2   O4    S    
C41   H19   S    
C30   H40   S    
C43   H22   S    
O13   P1    S    
C17   H33   S    
C31   H37   S    
Ba1   O4    S    
H50   O33   S    
C1    C12   S    
O16   P3    S    
C5    C14   S    
Ba1   O16   S    
C26   C31   A    
O20   S1    S    
C11   C13   A    
O32   S5    D    
C21   P5    S    
C40   C41   S    
Ba1   O1    S    
C42   C43   S    
C23   O7    S    
C44   H32   S    
C13   C15   S    
C38   C39   S    
Ba2   O35   S    
C43   H24   S    
C23   H9    S    
O14   P6    S    
C2    C3    S    
C34   H14   S    
C16   H15   S    
C12   H1    S    
Ba2   O5    S    
C24   C26   A    
C16   H41   S    
O6    P7    D    
C10   P4    S    
C3    H30   S    
O11   P6    D    
O17   P3    D    
H46   O20   S    
C18   C32   A    
C27   C29   A    
O26   S3    D    
C9    P8    S    
C37   H54   S    
C39   S1    S    
O38   P7    S    
C2    P6    S    
C10   C17   A    
O18   S1    D    
C6    H27   S    
C7    P1    S    
O21   S2    D    
O37   P4    S    
C40   S3    S    
Ba2   O36   S    
O36   P8    S    
Ba1   P2    S    
O25   S3    D    
C23   C34   S    
C19   P2    S    
C12   H7    S    
C10   C11   A    
C15   H26   S    
O30   S4    S    
C20   C21   A    
C42   H21   S    
Ba1   P1    S    
Ba1   O15   S    
Ba1   O35   S    
O7    P7    S    
C39   H5    S    
Ba1   O38   S    
Ba1   O5    S    
