data_mof_unit_1217.cif
_audit_creation_date              2012-12-11T15:08:42-0500
_audit_creation_method            fapswitch 2.2
_symmetry_space_group_name_H-M    P1
_symmetry_Int_Tables_number       1
_space_group_crystal_system       triclinic
_cell_length_a                    19.476629
_cell_length_b                    11.360288
_cell_length_c                    18.744828
_cell_angle_alpha                 89.917948
_cell_angle_beta                  89.642985
_cell_angle_gamma                 90.199252
_cell_volume                      4147.37281627

loop_
_atom_site_label
_atom_site_type_symbol
_atom_type_description
_atom_site_fract_x
_atom_site_fract_y
_atom_site_fract_z
_atom_type_partial_charge
C1    C     C_R   0.272727 0.041276 0.854763 0.536330
C2    C     C_R   0.727096 0.041446 0.144967 0.534358
C3    C     C_R   0.772727 0.541277 0.854763 0.536332
C4    C     C_R   0.227096 0.541446 0.144968 0.534355
C5    C     C_3   0.517678 0.724534 0.965545 -0.123734
C6    C     C_3   0.479138 0.732984 0.037125 -0.122613
C7    C     C_3   0.017680 0.224535 0.965545 -0.123716
C8    C     C_3   0.979139 0.232983 0.037124 -0.122599
C9    C     C_3   0.307275 0.510198 0.040116 -0.233569
C10   C     C_3   0.687553 0.521797 0.956978 -0.232736
C11   C     C_3   0.807276 0.010203 0.040117 -0.233567
C12   C     C_3   0.187554 0.021797 0.956976 -0.232702
C13   C     C_3   0.306829 0.506340 0.957734 -0.106251
C14   C     C_3   0.686214 0.518568 0.039057 -0.102301
C15   C     C_3   0.806831 0.006342 0.957735 -0.106255
C16   C     C_3   0.186211 0.018574 0.039055 -0.102296
C17   C     C_3   0.175905 0.531033 0.026334 -0.221753
C18   C     C_3   0.818826 0.513108 0.974190 -0.223512
C19   C     C_3   0.675906 0.031029 0.026334 -0.221755
C20   C     C_3   0.318825 0.013107 0.974190 -0.223509
C21   C     C_3   0.249487 0.700394 0.054260 -0.258927
C22   C     C_3   0.759911 0.698582 0.945238 -0.263039
C23   C     C_3   0.749484 0.200394 0.054260 -0.258929
C24   C     C_3   0.259912 0.198581 0.945237 -0.263042
C25   C     C_3   0.240936 0.569738 0.068643 0.044119
C26   C     C_3   0.758636 0.567702 0.930787 0.043512
C27   C     C_3   0.740936 0.069738 0.068643 0.044118
C28   C     C_3   0.258636 0.067702 0.930787 0.043503
C29   C     C_3   0.254710 0.601489 0.929829 0.035235
C30   C     C_3   0.745461 0.599775 0.069638 0.029171
C31   C     C_3   0.754710 0.101489 0.929829 0.035236
C32   C     C_3   0.245461 0.099775 0.069637 0.029153
C33   C     C_3   0.182386 0.554486 0.945897 -0.261870
C34   C     C_3   0.811747 0.531361 0.055889 -0.266298
C35   C     C_3   0.682387 0.054482 0.945896 -0.261870
C36   C     C_3   0.311744 0.031354 0.055889 -0.266296
C37   C     C_3   0.264993 0.715594 0.973606 -0.235653
C38   C     C_3   0.753672 0.715798 0.026324 -0.236061
C39   C     C_3   0.764990 0.215594 0.973606 -0.235658
C40   C     C_3   0.253676 0.215798 0.026323 -0.236064
C41   C     C_3   0.503081 0.697747 0.460160 -0.225408
C42   C     C_3   0.496540 0.697977 0.539984 -0.224610
C43   C     C_3   0.003081 0.197747 0.460160 -0.225408
C44   C     C_3   0.996541 0.197978 0.539985 -0.224610
C45   C     C_R   0.445637 0.817821 0.862527 0.524967
C46   C     C_R   0.556688 0.817863 0.137616 0.521793
C47   C     C_R   0.945637 0.317821 0.862527 0.524967
C48   C     C_R   0.056687 0.317863 0.137617 0.521785
C49   C     C_3   0.562788 0.899962 0.470581 -0.218468
C50   C     C_3   0.437290 0.900337 0.529021 -0.218617
C51   C     C_3   0.062788 0.399962 0.470581 -0.218468
C52   C     C_3   0.937290 0.400337 0.529021 -0.218617
C53   C     C_3   0.439335 0.882782 0.446923 -0.269934
C54   C     C_3   0.560651 0.883137 0.552761 -0.270199
C55   C     C_3   0.939335 0.382782 0.446923 -0.269934
C56   C     C_3   0.060651 0.383137 0.552761 -0.270199
C57   C     C_3   0.508510 0.825483 0.430287 0.064657
C58   C     C_3   0.491300 0.825902 0.569554 0.065057
C59   C     C_3   0.008510 0.325483 0.430287 0.064657
C60   C     C_3   0.991300 0.325902 0.569554 0.065057
C61   C     C_3   0.171068 0.641901 0.462573 -0.086156
C62   C     C_3   0.829057 0.642573 0.537474 -0.086494
C63   C     C_3   0.671068 0.141901 0.462573 -0.086158
C64   C     C_3   0.329058 0.142574 0.537475 -0.086494
C65   C     C_3   0.185606 0.672777 0.538945 -0.199676
C66   C     C_3   0.814493 0.673198 0.461011 -0.199238
C67   C     C_3   0.685606 0.172778 0.538945 -0.199677
C68   C     C_3   0.314493 0.173199 0.461011 -0.199238
C69   C     C_3   0.251269 0.466300 0.470195 -0.237155
C70   C     C_3   0.748688 0.466377 0.530140 -0.236434
C71   C     C_3   0.751270 0.966300 0.470195 -0.237155
C72   C     C_3   0.248689 0.966377 0.530140 -0.236434
C73   C     C_3   0.297976 0.663445 0.439944 -0.265396
C74   C     C_3   0.701998 0.663092 0.559905 -0.265620
C75   C     C_3   0.797976 0.163445 0.439944 -0.265396
C76   C     C_3   0.201998 0.163092 0.559905 -0.265620
C77   C     C_3   0.236611 0.581809 0.428220 0.062874
C78   C     C_3   0.763385 0.582084 0.571841 0.063109
C79   C     C_3   0.736611 0.081808 0.428220 0.062874
C80   C     C_3   0.263385 0.082084 0.571841 0.063109
C81   C     C_3   0.252675 0.614216 0.565750 0.041914
C82   C     C_3   0.747275 0.614037 0.434292 0.042377
C83   C     C_3   0.752675 0.114216 0.565750 0.041913
C84   C     C_3   0.247275 0.114037 0.434292 0.042377
C85   C     C_3   0.245758 0.483373 0.551689 -0.274885
C86   C     C_3   0.754133 0.483300 0.448626 -0.275462
C87   C     C_3   0.745759 0.983373 0.551689 -0.274884
C88   C     C_3   0.254134 0.983300 0.448625 -0.275462
C89   C     C_R   0.260983 0.636660 0.853027 0.531314
C90   C     C_R   0.738788 0.637027 0.146499 0.528782
C91   C     C_R   0.760983 0.136660 0.853027 0.531315
C92   C     C_R   0.238787 0.137027 0.146498 0.528771
C93   C     C_3   0.315042 0.658441 0.520514 -0.229118
C94   C     C_3   0.684861 0.657683 0.479367 -0.229013
C95   C     C_3   0.815043 0.158442 0.520513 -0.229118
C96   C     C_3   0.184861 0.157683 0.479367 -0.229013
C97   C     C_R   0.273366 0.046511 0.647045 0.535951
C98   C     C_R   0.726573 0.046189 0.353025 0.535662
C99   C     C_R   0.773366 0.546511 0.647045 0.535951
C100  C     C_R   0.226573 0.546189 0.353025 0.535661
C101  C     C_R   0.470350 0.822716 0.646239 0.537429
C102  C     C_R   0.529552 0.822446 0.353667 0.538334
C103  C     C_R   0.970350 0.322716 0.646239 0.537429
C104  C     C_R   0.029552 0.322446 0.353667 0.538337
C105  C     C_R   0.261816 0.644028 0.642378 0.536406
C106  C     C_R   0.738196 0.643694 0.357616 0.537200
C107  C     C_R   0.761816 0.144029 0.642378 0.536406
C108  C     C_R   0.238196 0.143694 0.357616 0.537202
C109  C     C_3   0.487300 0.924434 0.033687 -0.099203
C110  C     C_3   0.525879 0.915724 0.961149 -0.097880
C111  C     C_3   0.987298 0.424434 0.033687 -0.099201
C112  C     C_3   0.025878 0.415726 0.961150 -0.097879
C113  C     C_3   0.434656 0.832510 0.008082 -0.171399
C114  C     C_3   0.570366 0.815197 0.991344 -0.171691
C115  C     C_3   0.934655 0.332507 0.008081 -0.171406
C116  C     C_3   0.070366 0.315200 0.991345 -0.171694
C117  C     C_3   0.473475 0.824221 0.936155 0.050975
C118  C     C_3   0.531098 0.824336 0.063034 0.042777
C119  C     C_3   0.973476 0.324220 0.936154 0.050968
C120  C     C_3   0.031097 0.324337 0.063034 0.042771
Cr1   Cr    Cr6+3 0.229620 0.836040 0.749110 1.002217
Cr2   Cr    Cr6+3 0.770380 0.836040 0.250890 1.002806
Cr3   Cr    Cr6+3 0.729620 0.336040 0.749110 1.002215
Cr4   Cr    Cr6+3 0.270380 0.336040 0.250890 1.002808
Cr5   Cr    Cr6+3 0.387630 0.990680 0.750730 1.005852
Cr6   Cr    Cr6+3 0.612370 0.990680 0.249270 1.000813
Cr7   Cr    Cr6+3 0.887630 0.490680 0.750730 1.005853
Cr8   Cr    Cr6+3 0.112370 0.490680 0.249270 1.000806
Cr9   Cr    Cr6+3 0.386020 0.676590 0.749210 1.036054
Cr10  Cr    Cr6+3 0.613980 0.676590 0.250790 1.033176
Cr11  Cr    Cr6+3 0.886020 0.176590 0.749210 1.036056
Cr12  Cr    Cr6+3 0.113980 0.176590 0.250790 1.033147
H1    H     H_    0.383390 0.830927 0.031233 0.098484
H2    H     H_    0.623897 0.798856 0.976684 0.087966
H3    H     H_    0.883390 0.330923 0.031232 0.098481
H4    H     H_    0.123898 0.298858 0.976688 0.087960
H5    H     H_    0.200852 0.744597 0.069003 0.152543
H6    H     H_    0.809616 0.735446 0.925697 0.173522
H7    H     H_    0.700846 0.244593 0.069001 0.152557
H8    H     H_    0.309616 0.235447 0.925694 0.173525
H9    H     H_    0.291235 0.738207 0.087251 0.100835
H10   H     H_    0.718287 0.744469 0.916197 0.100166
H11   H     H_    0.791229 0.238212 0.087252 0.100837
H12   H     H_    0.218286 0.244468 0.916198 0.100165
H13   H     H_    0.319041 0.737608 0.964854 0.089847
H14   H     H_    0.712755 0.776421 0.040933 0.093938
H15   H     H_    0.819038 0.237610 0.964854 0.089847
H16   H     H_    0.212764 0.276430 0.040933 0.093937
H17   H     H_    0.232824 0.786399 0.952800 0.139215
H18   H     H_    0.803349 0.753087 0.042349 0.149277
H19   H     H_    0.732821 0.286399 0.952799 0.139215
H20   H     H_    0.303357 0.253078 0.042347 0.149280
H21   H     H_    0.629202 0.077864 0.045599 0.159280
H22   H     H_    0.369070 0.051144 0.957052 0.159240
H23   H     H_    0.129202 0.577871 0.045600 0.159283
H24   H     H_    0.869071 0.551142 0.957050 0.159242
H25   H     H_    0.143027 0.620119 0.929915 0.151558
H26   H     H_    0.857212 0.580254 0.076159 0.141258
H27   H     H_    0.643027 0.120114 0.929914 0.151554
H28   H     H_    0.357211 0.080239 0.076163 0.141255
H29   H     H_    0.546912 0.642779 0.445335 0.140130
H30   H     H_    0.452824 0.642455 0.555092 0.140414
H31   H     H_    0.046912 0.142779 0.445335 0.140130
H32   H     H_    0.952825 0.142455 0.555092 0.140414
H33   H     H_    0.458124 0.651898 0.436597 0.114120
H34   H     H_    0.541487 0.652628 0.563653 0.114187
H35   H     H_    0.958124 0.151898 0.436597 0.114120
H36   H     H_    0.041488 0.152629 0.563653 0.114186
H37   H     H_    0.613591 0.890877 0.447526 0.106753
H38   H     H_    0.386493 0.891790 0.552233 0.106307
H39   H     H_    0.113592 0.390877 0.447526 0.106753
H40   H     H_    0.886494 0.391790 0.552233 0.106307
H41   H     H_    0.603124 0.826824 0.571021 0.112950
H42   H     H_    0.396674 0.826366 0.428914 0.113167
H43   H     H_    0.103125 0.326824 0.571021 0.112950
H44   H     H_    0.896675 0.326365 0.428914 0.113168
H45   H     H_    0.475313 0.007923 0.061679 0.125195
H46   H     H_    0.543353 0.991997 0.928841 0.123777
H47   H     H_    0.975310 0.507921 0.061679 0.125197
H48   H     H_    0.043351 0.492000 0.928842 0.123780
H49   H     H_    0.434394 0.968950 0.419191 0.106954
H50   H     H_    0.565850 0.969511 0.580106 0.106698
H51   H     H_    0.934394 0.468949 0.419191 0.106953
H52   H     H_    0.065850 0.469511 0.580106 0.106698
H53   H     H_    0.453575 0.992447 0.539339 0.119250
H54   H     H_    0.546776 0.991897 0.459724 0.120125
H55   H     H_    0.953575 0.492447 0.539339 0.119249
H56   H     H_    0.046776 0.491897 0.459724 0.120125
H57   H     H_    0.136302 0.571170 0.468248 0.135359
H58   H     H_    0.864014 0.572179 0.532206 0.134862
H59   H     H_    0.636302 0.071169 0.468249 0.135359
H60   H     H_    0.364015 0.072180 0.532206 0.134862
H61   H     H_    0.190440 0.766726 0.544000 0.154120
H62   H     H_    0.809885 0.767169 0.455632 0.154284
H63   H     H_    0.690441 0.266727 0.543999 0.154119
H64   H     H_    0.309885 0.267170 0.455632 0.154284
H65   H     H_    0.140778 0.645895 0.572742 0.119983
H66   H     H_    0.859266 0.646393 0.427314 0.119482
H67   H     H_    0.640778 0.145897 0.572742 0.119985
H68   H     H_    0.359266 0.146394 0.427314 0.119481
H69   H     H_    0.719868 0.893100 0.452568 0.109182
H70   H     H_    0.280135 0.893598 0.547945 0.109307
H71   H     H_    0.219868 0.393101 0.452568 0.109183
H72   H     H_    0.780132 0.393596 0.547946 0.109307
H73   H     H_    0.696082 0.950553 0.572688 0.108072
H74   H     H_    0.303803 0.950909 0.427702 0.108097
H75   H     H_    0.196081 0.450553 0.572688 0.108073
H76   H     H_    0.803802 0.450908 0.427702 0.108098
H77   H     H_    0.342808 0.634424 0.407597 0.108441
H78   H     H_    0.657137 0.633736 0.592333 0.108458
H79   H     H_    0.842808 0.134423 0.407597 0.108442
H80   H     H_    0.157137 0.133734 0.592333 0.108458
H81   H     H_    0.284534 0.753658 0.423304 0.118249
H82   H     H_    0.715458 0.753498 0.576264 0.118389
H83   H     H_    0.784534 0.253657 0.423303 0.118249
H84   H     H_    0.215458 0.253498 0.576264 0.118389
H85   H     H_    0.530396 0.640795 0.938163 0.143166
H86   H     H_    0.459709 0.656073 0.067789 0.145810
H87   H     H_    0.030399 0.140797 0.938163 0.143186
H88   H     H_    0.959711 0.156071 0.067789 0.145832
H89   H     H_    0.335426 0.739705 0.540255 0.112001
H90   H     H_    0.664411 0.738691 0.459390 0.111933
H91   H     H_    0.835425 0.239708 0.540254 0.111999
H92   H     H_    0.164411 0.238690 0.459390 0.111934
H93   H     H_    0.356171 0.593058 0.526763 0.119020
H94   H     H_    0.643630 0.591854 0.473252 0.118800
H95   H     H_    0.856172 0.093060 0.526763 0.119022
H96   H     H_    0.143631 0.091853 0.473252 0.118800
H97   H     H_    0.304491 0.444524 0.455952 0.129566
H98   H     H_    0.695451 0.444099 0.544479 0.129552
H99   H     H_    0.804491 0.944524 0.455952 0.129566
H100  H     H_    0.195452 0.944098 0.544478 0.129553
H101  H     H_    0.287180 0.436611 0.578865 0.125543
H102  H     H_    0.712639 0.436060 0.421641 0.125093
H103  H     H_    0.787180 0.936612 0.578865 0.125543
H104  H     H_    0.212640 0.936060 0.421641 0.125092
H105  H     H_    0.315638 0.423579 0.062775 0.140806
H106  H     H_    0.673149 0.434779 0.935626 0.142579
H107  H     H_    0.815644 0.923585 0.062777 0.140809
H108  H     H_    0.173151 0.934776 0.935626 0.142589
H109  H     H_    0.352228 0.561352 0.059633 0.108382
H110  H     H_    0.647106 0.581406 0.936186 0.109332
H111  H     H_    0.852228 0.061362 0.059632 0.108382
H112  H     H_    0.147108 0.081403 0.936180 0.109343
H113  H     H_    0.286877 0.420401 0.940865 0.135657
H114  H     H_    0.697953 0.427864 0.055194 0.139363
H115  H     H_    0.786879 0.920401 0.940867 0.135657
H116  H     H_    0.197942 0.927869 0.055196 0.139358
H117  H     H_    0.666715 0.938919 0.037771 0.102274
H118  H     H_    0.320010 0.920888 0.959967 0.098909
H119  H     H_    0.166713 0.438924 0.037772 0.102275
H120  H     H_    0.820008 0.420888 0.959970 0.098910
H121  H     H_    0.672593 0.972468 0.915238 0.105165
H122  H     H_    0.309951 0.946518 0.085143 0.101910
H123  H     H_    0.172592 0.472472 0.915239 0.105165
H124  H     H_    0.809959 0.446526 0.085145 0.101912
O1    O     O_R   0.214130 0.708570 0.829890 -0.526979
O2    O     O_R   0.785870 0.708570 0.170110 -0.525088
O3    O     O_R   0.714130 0.208570 0.829890 -0.526980
O4    O     O_R   0.285870 0.208570 0.170110 -0.525079
O5    O     O_R   0.446360 0.919990 0.675230 -0.512375
O6    O     O_R   0.553640 0.919990 0.324770 -0.511986
O7    O     O_R   0.946360 0.419990 0.675230 -0.512375
O8    O     O_R   0.053640 0.419990 0.324770 -0.511985
O9    O     O_R   0.457170 0.717300 0.668380 -0.527286
O10   O     O_R   0.542830 0.717300 0.331620 -0.527407
O11   O     O_R   0.957170 0.217300 0.668380 -0.527286
O12   O     O_R   0.042830 0.217300 0.331620 -0.527407
O13   O     O_R   0.320870 0.624890 0.673130 -0.505505
O14   O     O_R   0.679130 0.624890 0.326870 -0.506397
O15   O     O_R   0.820870 0.124890 0.673130 -0.505505
O16   O     O_R   0.179130 0.124890 0.326870 -0.506398
O17   O     O_3   0.334430 0.834430 0.749680 -0.292551
O18   O     O_3   0.665570 0.834430 0.250320 -0.293219
O19   O     O_3   0.834430 0.334430 0.749680 -0.292551
O20   O     O_3   0.165570 0.334430 0.250320 -0.293213
O21   O     O_R   0.236050 0.959150 0.825270 -0.513981
O22   O     O_R   0.763950 0.959150 0.174730 -0.512564
O23   O     O_R   0.736050 0.459150 0.825270 -0.513980
O24   O     O_R   0.263950 0.459150 0.174730 -0.512563
O25   O     O_R   0.332100 0.076650 0.832310 -0.518486
O26   O     O_R   0.667900 0.076650 0.167690 -0.522279
O27   O     O_R   0.832100 0.576650 0.832310 -0.518486
O28   O     O_R   0.167900 0.576650 0.167690 -0.522286
O29   O     O_R   0.446500 0.918620 0.826240 -0.502259
O30   O     O_R   0.553500 0.918620 0.173760 -0.501582
O31   O     O_R   0.946500 0.418620 0.826240 -0.502259
O32   O     O_R   0.053500 0.418620 0.173760 -0.501578
O33   O     O_R   0.457310 0.715830 0.831280 -0.512030
O34   O     O_R   0.542690 0.715830 0.168720 -0.508777
O35   O     O_R   0.957310 0.215830 0.831280 -0.512031
O36   O     O_R   0.042690 0.215830 0.168720 -0.508790
O37   O     O_R   0.321000 0.623520 0.824130 -0.495011
O38   O     O_R   0.679000 0.623520 0.175870 -0.501668
O39   O     O_R   0.821000 0.123520 0.824130 -0.495011
O40   O     O_R   0.179000 0.123520 0.175870 -0.501708
O41   O     O_R   0.213990 0.710040 0.667000 -0.536536
O42   O     O_R   0.786010 0.710040 0.333000 -0.536122
O43   O     O_R   0.713990 0.210040 0.667000 -0.536536
O44   O     O_R   0.286010 0.210040 0.333000 -0.536121
O45   O     O_R   0.235920 0.960520 0.674260 -0.511820
O46   O     O_R   0.764080 0.960520 0.325740 -0.511487
O47   O     O_R   0.735920 0.460520 0.674260 -0.511821
O48   O     O_R   0.264080 0.460520 0.325740 -0.511486
O49   O     O_R   0.331960 0.078120 0.669410 -0.544642
O50   O     O_R   0.668040 0.078120 0.330590 -0.545059
O51   O     O_R   0.831960 0.578120 0.669410 -0.544642
O52   O     O_R   0.168040 0.578120 0.330590 -0.545061
C121  C     C_3   0.128136 0.736459 0.420741 -0.267294
C122  C     C_3   0.081140 0.815035 0.465500 -0.487636
H125  H     H_    0.057761 0.763461 0.509627 0.146588
H126  H     H_    0.108481 0.891188 0.487269 0.136850
H127  H     H_    0.039785 0.851328 0.431418 0.141784
H128  H     H_    0.160768 0.788044 0.383837 0.162230
H129  H     H_    0.090283 0.689964 0.386626 0.187323
C123  C     C_3   0.871768 0.737804 0.579252 -0.266636
C124  C     C_3   0.918620 0.817482 0.534506 -0.486970
H130  H     H_    0.941123 0.767316 0.489530 0.146565
H131  H     H_    0.891376 0.894409 0.513935 0.136421
H132  H     H_    0.960674 0.852627 0.568238 0.142201
H133  H     H_    0.839008 0.788618 0.616135 0.162890
H134  H     H_    0.909637 0.691817 0.613461 0.187277
C125  C     C_3   0.628136 0.236458 0.420741 -0.267293
C126  C     C_3   0.581139 0.315034 0.465500 -0.487635
H135  H     H_    0.557760 0.263458 0.509626 0.146587
H136  H     H_    0.608480 0.391186 0.487270 0.136850
H137  H     H_    0.539785 0.351328 0.431418 0.141785
H138  H     H_    0.660767 0.288043 0.383837 0.162233
H139  H     H_    0.590283 0.189962 0.386626 0.187324
C127  C     C_3   0.371768 0.237805 0.579253 -0.266635
C128  C     C_3   0.418619 0.317485 0.534507 -0.486966
H140  H     H_    0.441120 0.267321 0.489528 0.146565
H141  H     H_    0.391375 0.394415 0.513939 0.136420
H142  H     H_    0.460674 0.352627 0.568239 0.142200
H143  H     H_    0.339007 0.288618 0.616136 0.162890
H144  H     H_    0.409637 0.191819 0.613461 0.187275
C129  C     C_2   0.379680 0.514578 0.931101 0.250666
H145  H     H_    0.408530 0.594008 0.939716 0.124742
O53   O     O_2   0.406376 0.432205 0.899830 -0.508252
C130  C     C_2   0.614706 0.538701 0.064886 0.243213
H146  H     H_    0.595269 0.625514 0.063843 0.135490
O54   O     O_2   0.579273 0.457952 0.087723 -0.507525
C131  C     C_2   0.879681 0.014580 0.931101 0.250681
H147  H     H_    0.908531 0.094011 0.939717 0.124740
O55   O     O_2   0.906377 0.932208 0.899828 -0.508238
C132  C     C_2   0.114704 0.038724 0.064877 0.243205
H148  H     H_    0.095287 0.125551 0.063862 0.135512
O56   O     O_2   0.079246 0.957973 0.087670 -0.507542

loop_
_geom_bond_atom_site_label_1
_geom_bond_atom_site_label_2
_ccdc_geom_bond_type
C82   C94   S    
C55   C59   S    
C83   C87   S    
C73   C93   S    
C47   O35   A    
C42   C58   S    
C29   C89   S    
C129  H145  S    
C75   C95   S    
C48   C120  S    
Cr5   O17   S    
C24   H8    S    
C57   C102  S    
C85   H101  S    
C59   C104  S    
Cr1   O21   S    
Cr2   O18   S    
C5    C6    S    
Cr10  O14   S    
Cr3   O23   S    
Cr11  O11   S    
C110  H46   S    
C22   C38   S    
C29   C33   S    
C87   H103  S    
C30   C38   S    
C77   C100  S    
C44   H36   S    
C9    C13   S    
C87   H73   S    
C92   O4    A    
C11   C15   S    
C5    H85   S    
C49   H54   S    
C12   C16   S    
C126  H135  S    
C102  O6    A    
C99   O51   A    
C125  H139  S    
C52   H55   S    
C103  O11   A    
C60   C103  S    
C123  H134  S    
C83   C107  S    
C113  H1    S    
C74   H82   S    
C61   H57   S    
C23   H11   S    
C64   H60   S    
C109  C118  S    
C16   H116  S    
C70   H72   S    
Cr5   O29   S    
C50   C53   S    
C127  C128  S    
C125  C126  S    
C46   O30   A    
C7    C119  S    
C33   H123  S    
C130  H146  S    
Cr8   O32   S    
C62   H58   S    
C62   C66   S    
C20   C28   S    
Cr3   O3    S    
C90   O38   A    
Cr12  O40   S    
C123  C124  S    
C51   C56   S    
C100  O48   A    
C124  H132  S    
C43   C44   S    
C1    O21   A    
C66   C82   S    
C3    O23   A    
C11   C27   S    
C58   C101  S    
C106  O42   A    
C4    O24   A    
C90   O2    A    
C13   C129  S    
C18   H24   S    
C22   H6    S    
Cr2   O46   S    
C3    C26   S    
Cr3   O43   S    
C84   C88   S    
Cr7   O19   S    
Cr12  O16   S    
Cr10  O38   S    
Cr11  O35   S    
C17   C25   S    
C19   C35   S    
C76   C96   S    
C1    O25   A    
C32   C92   S    
C126  H137  S    
C75   H83   S    
C98   O46   A    
C95   H91   S    
C21   H9    S    
C61   C65   S    
C12   H108  S    
C78   C99   S    
C73   C77   S    
C104  O8    A    
C75   C79   S    
Cr12  O20   S    
C67   C83   S    
Cr8   O52   S    
C80   C97   S    
C11   H111  S    
C69   C77   S    
C111  C112  S    
C9    H109  S    
C52   H40   S    
C71   C79   S    
C4    C25   S    
Cr4   O24   S    
C7    C8    S    
Cr11  O19   S    
Cr4   O48   S    
C64   C68   S    
C73   H77   S    
C24   H12   S    
C111  H47   S    
C39   H19   S    
C49   C57   S    
C40   H20   S    
C34   H124  S    
C38   H14   S    
C51   H56   S    
C52   C60   S    
C61   C77   S    
C12   H112  S    
C93   H93   S    
C110  C114  S    
C43   C59   S    
C112  H48   S    
C76   H80   S    
C10   H106  S    
Cr6   O18   S    
Cr2   O22   S    
Cr3   O19   S    
C95   H95   S    
C81   C105  S    
C30   C34   S    
C10   C14   S    
C64   C127  S    
C36   H122  S    
C116  C120  S    
C20   C36   S    
C7    C116  S    
C69   H97   S    
C128  H141  S    
C132  O56   D    
C22   H10   S    
C114  H2    S    
C21   C37   S    
C66   H66   S    
C113  C117  S    
Cr5   O25   S    
C31   C91   S    
C127  H143  S    
C131  O55   D    
C9    H105  S    
Cr8   O28   S    
C112  C116  S    
C69   C85   S    
C85   H75   S    
C72   H70   S    
C45   C117  S    
C21   C25   S    
C45   O33   A    
C72   H100  S    
C62   C78   S    
C24   C28   S    
C2    O22   A    
C42   H30   S    
C15   C31   S    
C43   H35   S    
C16   C32   S    
C97   O49   A    
Cr6   O30   S    
C72   C80   S    
C107  O43   A    
C115  H3    S    
C4    O28   A    
C82   C106  S    
Cr5   O49   S    
C128  H142  S    
C63   C125  S    
C55   H44   S    
C91   O3    A    
C97   O45   A    
C69   H71   S    
C126  H136  S    
Cr5   O5    S    
C94   H90   S    
C81   C85   S    
Cr1   O1    S    
C13   H113  S    
C41   H29   S    
C41   C42   S    
C74   C94   S    
Cr9   O17   S    
C18   C26   S    
C30   C90   S    
C9    C25   S    
C2    O26   A    
C75   H79   S    
C86   H102  S    
C12   C28   S    
C13   C29   S    
C130  O54   D    
C67   H67   S    
C98   O50   A    
C45   O29   A    
C46   C118  S    
C15   C131  S    
C124  H131  S    
C66   H62   S    
C6    H86   S    
C1    C28   S    
Cr1   O41   S    
C2    C27   S    
Cr10  O18   S    
Cr4   O44   S    
C52   C55   S    
C32   C36   S    
C105  O13   A    
C64   C80   S    
C73   H81   S    
C17   C33   S    
C110  C117  S    
C38   H18   S    
C129  O53   D    
C33   H25   S    
C65   H61   S    
C121  H129  S    
C40   H16   S    
C107  O15   A    
C68   C84   S    
C76   C80   S    
C108  O16   A    
C86   H76   S    
C53   C57   S    
C19   H117  S    
C82   C86   S    
C17   H119  S    
C56   C60   S    
C115  C119  S    
C50   C58   S    
C128  H140  S    
C48   O36   A    
Cr7   O31   S    
C76   H84   S    
C65   C81   S    
Cr7   O51   S    
C50   H38   S    
C71   C87   S    
C15   H115  S    
C123  H133  S    
C31   C35   S    
C96   H96   S    
Cr9   O9    S    
C101  O9    A    
C122  H125  S    
C37   H17   S    
C112  C119  S    
C121  H128  S    
C116  H4    S    
C56   H52   S    
C92   O40   A    
C41   C57   S    
C47   O31   A    
C109  C110  S    
C49   H37   S    
C48   O32   A    
C89   O37   A    
C44   C60   S    
C63   H59   S    
Cr6   O26   S    
C91   O39   A    
C84   C108  S    
Cr7   O7    S    
Cr8   O8    S    
Cr1   O17   S    
C94   H94   S    
Cr10  O10   S    
C109  H45   S    
Cr11  O15   S    
Cr4   O4    S    
C22   C26   S    
C29   C37   S    
C55   H51   S    
C44   H32   S    
C42   H34   S    
C122  H127  S    
C43   H31   S    
C14   C130  S    
C131  H147  S    
C101  O5    A    
C5    C114  S    
C70   C78   S    
C79   C98   S    
C10   H110  S    
C63   C79   S    
C121  C122  S    
C20   H22   S    
C74   H78   S    
C54   H41   S    
C23   H7    S    
Cr6   O50   S    
C46   O34   A    
C23   C39   S    
C11   H107  S    
C49   C54   S    
Cr6   O6    S    
C125  H138  S    
C84   C96   S    
Cr7   O27   S    
Cr8   O20   S    
C8    C115  S    
C20   H118  S    
Cr2   O2    S    
C18   H120  S    
C96   H92   S    
C41   H33   S    
Cr12  O36   S    
Cr9   O37   S    
C19   C27   S    
C74   C78   S    
C109  C113  S    
C7    H87   S    
C10   C26   S    
C47   C119  S    
Cr9   O33   S    
C127  H144  S    
C105  O41   A    
C14   C30   S    
C67   H63   S    
C72   C88   S    
C53   H42   S    
C108  O44   A    
C88   H104  S    
C63   C67   S    
C56   H43   S    
C89   O1    A    
C68   H64   S    
Cr1   O45   S    
C21   H5    S    
C5    C117  S    
C111  C120  S    
Cr2   O42   S    
Cr3   O47   S    
C70   H98   S    
C6    C113  S    
C16   C132  S    
C8    H88   S    
C53   H49   S    
Cr12  O12   S    
C81   C93   S    
C61   C121  S    
C83   C95   S    
Cr10  O34   S    
C54   H50   S    
Cr11  O39   S    
C18   C34   S    
C114  C118  S    
C65   H65   S    
C34   H26   S    
C106  O14   A    
C23   C27   S    
C51   C59   S    
C70   C86   S    
C122  H126  S    
C99   O47   A    
C8    C120  S    
C35   H121  S    
C54   C58   S    
C71   H69   S    
C104  O12   A    
C88   H74   S    
C111  C115  S    
C68   H68   S    
C51   H39   S    
C71   H99   S    
Cr4   O20   S    
C132  H148  S    
C19   H21   S    
C3    O27   A    
C24   C40   S    
C31   C39   S    
C32   C40   S    
C124  H130  S    
C35   H27   S    
Cr9   O13   S    
C36   H28   S    
C100  O52   A    
C62   C123  S    
C102  O10   A    
C39   H15   S    
C103  O7    A    
C93   H89   S    
C37   H13   S    
C50   H53   S    
C6    C118  S    
C14   H114  S    
C17   H23   S    
