data_mof_unit_4391.cif
_audit_creation_date              2012-12-10T16:48:11-0500
_audit_creation_method            fapswitch 2.2
_symmetry_space_group_name_H-M    P1
_symmetry_Int_Tables_number       1
_space_group_crystal_system       triclinic
_cell_length_a                    15.849842
_cell_length_b                    8.742809
_cell_length_c                    7.480055
_cell_angle_alpha                 103.031353
_cell_angle_beta                  94.710111
_cell_angle_gamma                 92.927546
_cell_volume                      1003.83494474

loop_
_atom_site_label
_atom_site_type_symbol
_atom_type_description
_atom_site_fract_x
_atom_site_fract_y
_atom_site_fract_z
_atom_type_partial_charge
C1    C     C_R   0.494929 0.200095 0.453954 0.783648
C2    C     C_R   0.505071 0.799905 0.546045 0.783649
C3    C     C_R   0.340072 0.499689 0.501437 0.796071
C4    C     C_R   0.659928 0.500311 0.498563 0.796071
C5    C     C_2   0.483407 0.032156 0.432243 0.196550
C6    C     C_2   0.516593 0.967844 0.567757 0.196550
C7    C     C_3   0.972416 0.399513 0.601862 -0.398937
C8    C     C_3   0.027583 0.600487 0.398138 -0.398937
C9    C     C_3   0.021537 0.354924 0.428552 0.635885
C10   C     C_3   0.978463 0.645076 0.571448 0.635885
C11   C     C_1   0.250676 0.500289 0.504379 -0.100210
C12   C     C_1   0.749324 0.499711 0.495621 -0.100210
C13   C     C_3   0.034777 0.546794 0.671310 0.321107
C14   C     C_3   0.965223 0.453206 0.328690 0.321107
C15   C     C_3   0.083633 0.501078 0.501070 -0.118055
C16   C     C_3   0.916366 0.498922 0.498930 -0.118055
C17   C     C_1   0.175208 0.500705 0.504097 0.154918
C18   C     C_1   0.824792 0.499295 0.495902 0.154918
Cu1   Cu    Cu3+1 0.509330 0.517380 0.684380 1.100464
Cu2   Cu    Cu3+1 0.490670 0.482620 0.315620 1.100464
H1    H     H_    0.949990 0.318720 0.685948 0.225891
H2    H     H_    0.050009 0.681280 0.314052 0.225891
N1    N     N_2   0.476600 0.456420 0.038510 0.158097
N2    N     N_2   0.523400 0.543580 0.961490 0.158098
O1    O     O_R   0.506070 0.286130 0.619780 -0.490713
O2    O     O_R   0.493930 0.713870 0.380220 -0.490713
O3    O     O_R   0.490300 0.256770 0.308360 -0.620661
O4    O     O_R   0.509700 0.743230 0.691640 -0.620661
O5    O     O_R   0.386960 0.514660 0.655680 -0.533326
O6    O     O_R   0.613040 0.485340 0.344320 -0.533326
O7    O     O_R   0.371190 0.485310 0.344260 -0.590176
O8    O     O_R   0.628810 0.514690 0.655740 -0.590176
F1    F     F_    0.044468 0.205801 0.350738 -0.596276
F2    F     F_    0.955532 0.794199 0.649262 -0.596276
O9    O     O_3   0.926567 0.401778 0.148667 -0.662733
H3    H     H_    0.973872 0.380250 0.069819 0.348720
O10   O     O_3   0.073433 0.598222 0.851332 -0.662733
H4    H     H_    0.026128 0.619750 0.930180 0.348720
O11   O     O_3   0.434758 0.940704 0.278797 -0.707266
H5    H     H_    0.409846 0.009309 0.202620 0.341272
O12   O     O_3   0.565242 0.059296 0.721202 -0.707266
H6    H     H_    0.590154 0.990691 0.797380 0.341272
O13   O     O_3   0.420136 0.353128 0.924232 -0.580898
H7    H     H_    0.390550 0.297518 0.005242 0.336625
O14   O     O_3   0.579864 0.646872 0.075768 -0.580898
H8    H     H_    0.609450 0.702482 0.994758 0.336625

loop_
_geom_bond_atom_site_label_1
_geom_bond_atom_site_label_2
_ccdc_geom_bond_type
C3    O7    A    
O13   H7    S    
C10   C13   S    
O10   H4    S    
Cu2   O3    S    
C4    C12   S    
O12   H6    S    
C13   O10   S    
Cu1   Cu2   S    
Cu2   N1    S    
C9    C14   S    
C1    O3    A    
C13   C15   S    
Cu1   N2    S    
C9    C15   S    
C2    O2    A    
C10   C16   S    
O14   H8    S    
Cu2   O6    S    
C1    O1    A    
Cu1   O4    S    
C3    O5    A    
C4    O8    A    
Cu2   O2    S    
C9    F1    S    
C1    C5    S    
N2    O14   S    
C16   C18   S    
C7    C16   S    
C8    C15   S    
C5    O11   S    
C5    C6    D    
Cu1   O1    S    
C14   C16   S    
C3    C11   S    
Cu1   O8    S    
N1    N2    D    
Cu1   O5    S    
C7    C9    S    
C7    C13   S    
N1    O13   S    
C10   F2    S    
C12   C18   T    
C14   O9    S    
C15   C17   S    
O11   H5    S    
C11   C17   T    
C2    O4    A    
O9    H3    S    
C8    C14   S    
C7    H1    S    
C8    H2    S    
C6    O12   S    
C8    C10   S    
C4    O6    A    
C2    C6    S    
Cu2   O7    S    
