data_mof_unit_1609.cif
_audit_creation_date              2012-12-10T17:03:01-0500
_audit_creation_method            fapswitch 2.2
_symmetry_space_group_name_H-M    P1
_symmetry_Int_Tables_number       1
_space_group_crystal_system       triclinic
_cell_length_a                    9.869813
_cell_length_b                    10.940331
_cell_length_c                    13.474221
_cell_angle_alpha                 94.146056
_cell_angle_beta                  82.706433
_cell_angle_gamma                 110.555765
_cell_volume                      1350.67398323

loop_
_atom_site_label
_atom_site_type_symbol
_atom_type_description
_atom_site_fract_x
_atom_site_fract_y
_atom_site_fract_z
_atom_type_partial_charge
C1    C     C_R   0.557106 0.745661 0.503539 0.910969
C2    C     C_R   0.424565 0.447137 0.968604 -0.007429
C3    C     C_R   0.468639 0.438488 0.864511 0.027670
C4    C     C_R   0.537354 0.482171 0.034619 0.074187
C5    C     C_R   0.686103 0.531154 0.994103 0.039169
C6    C     C_R   0.720565 0.497804 0.894452 -0.194093
C7    C     C_R   0.609816 0.433953 0.834553 -0.037280
C8    C     C_R   0.510301 0.463712 0.137983 -0.205108
C9    C     C_R   0.760600 0.587533 0.161587 -0.165835
C10   C     C_R   0.371503 0.435723 0.794340 -0.093228
C11   C     C_2   0.587533 0.885876 0.502170 -0.361851
C12   C     C_R   0.421425 0.473350 0.688659 0.822133
C13   C     C_2   0.522694 0.938148 0.443461 0.025989
C14   C     C_2   0.423424 0.115803 0.472322 -0.235887
C15   C     C_2   0.537780 0.075198 0.463434 -0.260653
C16   C     C_2   0.912177 0.472368 0.509217 0.011248
C17   C     C_2   0.074126 0.506563 0.511802 0.015185
C18   C     C_R   0.445826 0.254406 0.489581 0.855771
C19   C     C_R   0.576196 0.511276 0.309905 0.850838
C20   C     C_R   0.797037 0.593455 0.057609 -0.014886
C21   C     C_R   0.618372 0.519441 0.201560 -0.083575
C22   C     C_R   0.223481 0.402086 0.826284 -0.194626
C23   C     C_R   0.170959 0.390854 0.927332 -0.049002
C24   C     C_R   0.272481 0.423980 0.999432 -0.071060
Cu1   Cu    Cu3+1 0.362000 0.479240 0.482530 1.034922
Cu2   Cu    Cu3+1 0.638000 0.520760 0.517470 1.004305
H1    H     H_    0.842854 0.635180 0.211526 0.208076
H2    H     H_    0.831088 0.504822 0.867615 0.218221
H3    H     H_    0.147362 0.387248 0.771560 0.235048
H4    H     H_    0.645577 0.142825 0.475972 0.179607
N1    N     N_2   0.845330 0.551960 0.543750 -0.279244
N2    N     N_2   0.154690 0.448120 0.456210 -0.300335
O1    O     O_R   0.426290 0.668220 0.490680 -0.550419
O2    O     O_R   0.659360 0.703290 0.520190 -0.573762
O3    O     O_R   0.326580 0.473880 0.629020 -0.581387
O4    O     O_R   0.559660 0.508940 0.658530 -0.580709
O5    O     O_R   0.340640 0.296710 0.479810 -0.543601
O6    O     O_R   0.573710 0.331780 0.509320 -0.591867
O7    O     O_R   0.440340 0.491060 0.341470 -0.569315
O8    O     O_R   0.673420 0.526120 0.370980 -0.570423
C25   C     C_2   0.453435 0.867968 0.353646 0.937989
O9    O     O_2   0.355957 0.894766 0.323276 -0.562042
O10   O     O_R   0.506277 0.776640 0.300268 -0.775968
H5    H     H_    0.455838 0.740350 0.238131 0.359968
H6    H     H_    0.314497 0.047874 0.463822 0.213293
H7    H     H_    0.655026 0.946766 0.557371 0.155527
C26   C     C_2   0.139264 0.609921 0.586011 0.914668
O11   O     O_2   0.197700 0.722923 0.560034 -0.597814
O12   O     O_R   0.114810 0.581267 0.687475 -0.751690
H8    H     H_    0.159071 0.660806 0.731733 0.344136
H9    H     H_    0.847726 0.378313 0.479622 0.177317
C27   C     C_2   0.092012 0.352085 0.381515 0.980809
O13   O     O_2   0.135881 0.260876 0.361812 -0.532151
O14   O     O_R   0.984998 0.363917 0.327700 -0.783557
H10   H     H_    0.938525 0.282842 0.285532 0.365755
H11   H     H_    0.905657 0.643451 0.569270 0.224308
C28   C     C_2   0.949898 0.668563 0.018606 0.866545
O15   O     O_2   0.977477 0.716891 0.936125 -0.589498
O16   O     O_R   0.062305 0.688466 0.078226 -0.701739
H12   H     H_    0.161134 0.741471 0.043955 0.359825
H13   H     H_    0.408402 0.398100 0.170891 0.181208
C29   C     C_2   0.216666 0.436308 0.104317 0.912798
O17   O     O_2   0.145749 0.337571 0.149891 -0.554920
O18   O     O_R   0.247195 0.559499 0.151404 -0.732192
H14   H     H_    0.203775 0.555132 0.223909 0.362453
C30   C     C_2   0.009008 0.349035 0.953092 0.864808
O19   O     O_2   0.928545 0.287520 0.890897 -0.567645
O20   O     O_R   0.947097 0.379019 0.046586 -0.729364
H15   H     H_    0.836787 0.341673 0.053991 0.335946
C31   C     C_2   0.635312 0.340441 0.754858 0.925740
O21   O     O_2   0.759157 0.351151 0.719266 -0.568839
O22   O     O_R   0.517257 0.236096 0.723891 -0.766740
H16   H     H_    0.548698 0.175205 0.673532 0.333298

loop_
_geom_bond_atom_site_label_1
_geom_bond_atom_site_label_2
_ccdc_geom_bond_type
C2    C4    A    
C23   C24   A    
O16   H12   S    
C6    C7    A    
C22   H3    S    
N1    H11   S    
C12   O4    A    
C11   C13   D    
C25   O9    D    
C14   C18   S    
C9    C20   A    
C30   O20   S    
C26   O11   D    
C1    C11   S    
C16   H9    S    
C4    C8    A    
C8    H13   S    
O10   H5    S    
C9    C21   A    
O18   H14   S    
Cu1   N2    S    
C13   C25   S    
C30   O19   D    
C18   O6    A    
C1    O1    A    
Cu2   N1    S    
C26   O12   S    
C3    C10   A    
O20   H15   S    
C10   C22   A    
C16   N1    D    
C25   O10   S    
Cu2   O8    S    
C28   O15   D    
C31   O21   D    
C19   O7    A    
Cu1   O3    S    
C10   C12   S    
C23   C30   S    
Cu2   O4    S    
Cu2   O6    S    
C19   C21   S    
C18   O5    A    
C27   O14   S    
C1    O2    A    
C2    C3    A    
C14   H6    S    
C3    C7    A    
C13   C15   S    
C2    C24   A    
C5    C6    A    
C17   N2    D    
C6    H2    S    
C28   O16   S    
C31   O22   S    
C19   O8    A    
N2    C27   S    
C4    C5    A    
C27   O13   D    
C9    H1    S    
C15   H4    S    
C29   O18   S    
O12   H8    S    
C5    C20   A    
C7    C31   S    
O14   H10   S    
O22   H16   S    
C11   H7    S    
C24   C29   S    
Cu1   O5    S    
Cu1   Cu2   S    
C14   C15   D    
C20   C28   S    
Cu2   O2    S    
C22   C23   A    
Cu1   O7    S    
C29   O17   D    
C17   C26   S    
Cu1   O1    S    
C16   C17   S    
C12   O3    A    
C8    C21   A    
