data_mof_unit_2777.cif
_audit_creation_date              2012-12-10T16:38:07-0500
_audit_creation_method            fapswitch 2.2
_symmetry_space_group_name_H-M    P1
_symmetry_Int_Tables_number       1
_space_group_crystal_system       triclinic
_cell_length_a                    27.867159
_cell_length_b                    18.796755
_cell_length_c                    16.861502
_cell_angle_alpha                 90.002556
_cell_angle_beta                  61.080393
_cell_angle_gamma                 89.996306
_cell_volume                      7730.86893891

loop_
_atom_site_label
_atom_site_type_symbol
_atom_type_description
_atom_site_fract_x
_atom_site_fract_y
_atom_site_fract_z
_atom_type_partial_charge
C1    C     C_R   0.700875 0.266705 0.677211 0.892877
C2    C     C_R   0.084584 0.500005 0.544141 0.039783
C3    C     C_R   0.185464 0.226267 0.913476 0.027609
C4    C     C_R   0.610210 0.312018 0.054801 -0.005716
C5    C     C_R   0.389906 0.688101 0.945158 -0.005718
C6    C     C_R   0.389687 0.312359 0.945156 -0.005709
C7    C     C_R   0.610203 0.687764 0.054872 -0.005656
C8    C     C_R   0.110206 0.812020 0.054805 -0.005719
C9    C     C_R   0.889916 0.188119 0.945157 -0.005716
C10   C     C_R   0.889679 0.812375 0.945156 -0.005697
C11   C     C_R   0.110200 0.187777 0.054873 -0.005668
C12   C     C_R   0.641337 0.296994 0.097825 -0.200108
C13   C     C_R   0.415400 0.999994 0.455919 0.039773
C14   C     C_R   0.358821 0.703214 0.902082 -0.200039
C15   C     C_R   0.358478 0.297591 0.902213 -0.200257
C16   C     C_R   0.641368 0.702605 0.097875 -0.200134
C17   C     C_R   0.141333 0.796999 0.097830 -0.200108
C18   C     C_R   0.858836 0.203247 0.902076 -0.200029
C19   C     C_R   0.858465 0.797622 0.902219 -0.200270
C20   C     C_R   0.141363 0.202629 0.097877 -0.200128
C21   C     C_R   0.740696 0.191708 0.796097 0.161720
C22   C     C_R   0.259458 0.808477 0.203763 0.161605
C23   C     C_R   0.259621 0.191330 0.203545 0.161374
C24   C     C_R   0.584576 0.000006 0.544175 0.039787
C25   C     C_R   0.740232 0.808869 0.796577 0.161262
C26   C     C_R   0.240678 0.691684 0.796115 0.161701
C27   C     C_R   0.759456 0.308474 0.203768 0.161612
C28   C     C_R   0.759629 0.691319 0.203537 0.161367
C29   C     C_R   0.240249 0.308845 0.796555 0.161285
C30   C     C_R   0.777487 0.184023 0.831111 0.105671
C31   C     C_R   0.222750 0.816299 0.168593 0.105652
C32   C     C_R   0.222975 0.183332 0.168257 0.105770
C33   C     C_R   0.776793 0.817004 0.832024 0.105716
C34   C     C_R   0.277460 0.683980 0.831146 0.105676
C35   C     C_R   0.075519 0.373495 0.566947 -0.006895
C36   C     C_R   0.722748 0.316293 0.168598 0.105646
C37   C     C_R   0.722987 0.683313 0.168242 0.105767
C38   C     C_R   0.276823 0.316960 0.831979 0.105719
C39   C     C_R   0.071417 0.103236 0.937163 0.899065
C40   C     C_R   0.928577 0.896768 0.062837 0.899066
C41   C     C_R   0.928603 0.103262 0.062823 0.899022
C42   C     C_R   0.071413 0.896747 0.937167 0.898962
C43   C     C_R   0.571418 0.603235 0.937163 0.899071
C44   C     C_R   0.428577 0.396767 0.062837 0.899066
C45   C     C_R   0.428602 0.603261 0.062823 0.899023
C46   C     C_R   0.924483 0.626502 0.433042 -0.006849
C47   C     C_R   0.571413 0.396747 0.937167 0.898961
C48   C     C_R   0.538044 0.130061 0.533178 -0.046571
C49   C     C_R   0.461925 0.869946 0.466935 -0.046641
C50   C     C_R   0.461809 0.130052 0.467224 -0.046618
C51   C     C_R   0.538171 0.869952 0.532863 -0.046660
C52   C     C_R   0.038057 0.630058 0.533127 -0.046572
C53   C     C_R   0.961944 0.369946 0.466868 -0.046639
C54   C     C_R   0.961820 0.630051 0.467178 -0.046606
C55   C     C_R   0.038189 0.369952 0.532799 -0.046676
C56   C     C_R   0.519542 0.195446 0.515396 0.111633
C57   C     C_R   0.924535 0.373508 0.432870 -0.006905
C58   C     C_R   0.480430 0.804569 0.484708 0.111689
C59   C     C_R   0.480168 0.195432 0.485281 0.111563
C60   C     C_R   0.519813 0.804580 0.514802 0.111606
C61   C     C_R   0.019561 0.695442 0.515335 0.111630
C62   C     C_R   0.980462 0.304568 0.484614 0.111696
C63   C     C_R   0.980185 0.695430 0.485224 0.111552
C64   C     C_R   0.019843 0.304580 0.514712 0.111615
C65   C     C_R   0.480366 0.065305 0.485372 -0.003244
C66   C     C_R   0.519604 0.934700 0.514736 -0.003236
C67   C     C_R   0.519547 0.065312 0.514886 -0.003224
C68   C     C_R   0.075458 0.626495 0.567145 -0.006923
C69   C     C_R   0.480421 0.934693 0.485229 -0.003224
C70   C     C_R   0.980379 0.565304 0.485324 -0.003245
C71   C     C_R   0.019620 0.434699 0.514678 -0.003236
C72   C     C_R   0.019560 0.565311 0.514836 -0.003224
C73   C     C_R   0.980437 0.434692 0.485172 -0.003224
C74   C     C_R   0.960140 0.499995 0.472408 0.007636
C75   C     C_R   0.039853 0.500006 0.527610 0.007636
C76   C     C_R   0.460128 0.999996 0.472454 0.007635
C77   C     C_R   0.539841 0.000007 0.527657 0.007636
C78   C     C_R   0.892859 0.435670 0.447671 -0.021675
C79   C     C_R   0.575511 0.873497 0.566992 -0.006901
C80   C     C_R   0.107132 0.564330 0.552360 -0.021675
C81   C     C_R   0.107147 0.435675 0.552315 -0.021714
C82   C     C_R   0.892846 0.564324 0.447704 -0.021732
C83   C     C_R   0.392854 0.935669 0.447697 -0.021673
C84   C     C_R   0.607128 0.064330 0.552386 -0.021677
C85   C     C_R   0.607143 0.935675 0.552343 -0.021717
C86   C     C_R   0.392842 0.064324 0.447726 -0.021726
C87   C     C_R   0.838066 0.436148 0.461774 -0.147650
C88   C     C_R   0.161928 0.563853 0.538243 -0.147660
C89   C     C_R   0.161931 0.436152 0.538237 -0.147575
C90   C     C_R   0.424479 0.126502 0.433074 -0.006845
C91   C     C_R   0.838064 0.563848 0.461775 -0.147596
C92   C     C_R   0.338065 0.936148 0.461783 -0.147653
C93   C     C_R   0.661927 0.063853 0.538254 -0.147659
C94   C     C_R   0.661930 0.936152 0.538247 -0.147570
C95   C     C_R   0.338064 0.063848 0.461782 -0.147602
C96   C     C_R   0.809039 0.500000 0.483598 -0.091014
C97   C     C_R   0.190955 0.500000 0.516415 -0.091007
C98   C     C_R   0.309039 1.000000 0.483600 -0.091021
C99   C     C_R   0.690954 0.000001 0.516419 -0.090999
C100  C     C_1   0.749672 0.500006 0.543173 0.275282
C101  C     C_R   0.424527 0.873506 0.432917 -0.006903
C102  C     C_1   0.250322 0.499996 0.456832 0.275279
C103  C     C_1   0.249671 0.000006 0.543169 0.275291
C104  C     C_1   0.750320 0.999996 0.456829 0.275268
C105  C     C_1   0.068264 0.327052 0.640494 0.249606
C106  C     C_1   0.931746 0.672909 0.359457 0.249597
C107  C     C_1   0.931716 0.327145 0.359303 0.249615
C108  C     C_1   0.068277 0.672884 0.640696 0.249599
C109  C     C_1   0.568268 0.827059 0.640536 0.249607
C110  C     C_1   0.431750 0.172910 0.359483 0.249592
C111  C     C_1   0.431719 0.827134 0.359351 0.249624
C112  C     C_R   0.299129 0.733300 0.322789 0.892944
C113  C     C_R   0.575451 0.126496 0.567183 -0.006926
C114  C     C_1   0.568280 0.172882 0.640731 0.249587
C115  C     C_1   0.551474 0.315035 0.111692 0.213442
C116  C     C_1   0.448648 0.685066 0.888332 0.213362
C117  C     C_1   0.448407 0.315415 0.888085 0.213634
C118  C     C_1   0.551464 0.684759 0.111856 0.213489
C119  C     C_1   0.051470 0.815039 0.111696 0.213446
C120  C     C_1   0.948658 0.185084 0.888340 0.213348
C121  C     C_1   0.948399 0.815429 0.888076 0.213630
C122  C     C_1   0.051462 0.184767 0.111855 0.213496
C123  C     C_R   0.717506 0.259821 0.957221 -0.003072
C124  C     C_R   0.282627 0.740327 0.042656 -0.003055
C125  C     C_R   0.282527 0.259835 0.042727 -0.002991
C126  C     C_R   0.717339 0.740350 0.957394 -0.002988
C127  C     C_R   0.217497 0.759810 0.957230 -0.003070
C128  C     C_R   0.782634 0.240337 0.042650 -0.003056
C129  C     C_R   0.782525 0.759836 0.042729 -0.002987
C130  C     C_R   0.217343 0.240349 0.957388 -0.002993
C131  C     C_R   0.768129 0.223020 0.910364 -0.050789
C132  C     C_R   0.299134 0.266691 0.322773 0.892834
C133  C     C_R   0.232047 0.777202 0.089452 -0.050806
C134  C     C_R   0.232078 0.222677 0.089393 -0.050899
C135  C     C_R   0.767743 0.777582 0.910792 -0.050890
C136  C     C_R   0.268112 0.722993 0.910382 -0.050797
C137  C     C_R   0.732051 0.277204 0.089450 -0.050802
C138  C     C_R   0.732082 0.722666 0.089389 -0.050894
C139  C     C_R   0.267757 0.277562 0.910773 -0.050889
C140  C     C_R   0.802564 0.218878 0.951508 0.081380
C141  C     C_R   0.197598 0.781326 0.048344 0.081420
C142  C     C_R   0.197582 0.218539 0.048363 0.081398
C143  C     C_R   0.700861 0.733318 0.677227 0.892881
C144  C     C_R   0.802253 0.781700 0.951785 0.081462
C145  C     C_R   0.302550 0.718854 0.951520 0.081382
C146  C     C_R   0.697603 0.281328 0.048339 0.081423
C147  C     C_R   0.697584 0.718526 0.048362 0.081400
C148  C     C_R   0.302264 0.281682 0.951774 0.081452
C149  C     C_R   0.635192 0.310487 0.958838 0.046040
C150  C     C_R   0.364885 0.689582 0.041126 0.045939
C151  C     C_R   0.364800 0.310578 0.041122 0.045877
C152  C     C_R   0.635137 0.689500 0.958903 0.045801
C153  C     C_R   0.135187 0.810484 0.958841 0.046034
C154  C     C_R   0.200874 0.766704 0.677211 0.892878
C155  C     C_R   0.864889 0.189589 0.041125 0.045941
C156  C     C_R   0.864798 0.810580 0.041122 0.045878
C157  C     C_R   0.135137 0.189504 0.958902 0.045808
C158  C     C_R   0.611172 0.338313 0.906420 -0.139380
C159  C     C_R   0.388860 0.661703 0.093576 -0.139333
C160  C     C_R   0.388826 0.338348 0.093556 -0.139246
C161  C     C_R   0.611156 0.661669 0.906436 -0.139214
C162  C     C_R   0.111170 0.838311 0.906421 -0.139378
C163  C     C_R   0.888861 0.161705 0.093576 -0.139338
C164  C     C_R   0.888826 0.838348 0.093555 -0.139247
C165  C     C_R   0.799129 0.233299 0.322790 0.892949
C166  C     C_R   0.111156 0.161670 0.906437 -0.139212
C167  C     C_R   0.631696 0.318549 0.817092 -0.261702
C168  C     C_R   0.368306 0.681429 0.182926 -0.261566
C169  C     C_R   0.368303 0.318564 0.182886 -0.261595
C170  C     C_R   0.631707 0.681413 0.817090 -0.261528
C171  C     C_R   0.131695 0.818548 0.817093 -0.261711
C172  C     C_R   0.868306 0.181428 0.182928 -0.261553
C173  C     C_R   0.868304 0.818562 0.182884 -0.261591
C174  C     C_R   0.131707 0.181413 0.817090 -0.261528
C175  C     C_R   0.676411 0.274094 0.775835 -0.091766
C176  C     C_R   0.799135 0.766690 0.322772 0.892837
C177  C     C_R   0.323614 0.725927 0.224160 -0.091807
C178  C     C_R   0.323624 0.274055 0.224115 -0.091804
C179  C     C_R   0.676355 0.725977 0.775889 -0.091809
C180  C     C_R   0.176408 0.774089 0.775837 -0.091766
C181  C     C_R   0.823614 0.225926 0.224161 -0.091806
C182  C     C_R   0.823625 0.774052 0.224113 -0.091802
C183  C     C_R   0.176356 0.225973 0.775887 -0.091816
C184  C     C_R   0.702304 0.247762 0.825865 -0.032084
C185  C     C_R   0.297772 0.752329 0.174082 -0.032029
C186  C     C_R   0.297800 0.247636 0.174011 -0.031816
C187  C     C_R   0.200862 0.233316 0.677227 0.892876
C188  C     C_R   0.702128 0.752475 0.826037 -0.031744
C189  C     C_R   0.202296 0.747750 0.825872 -0.032069
C190  C     C_R   0.797773 0.252329 0.174083 -0.032038
C191  C     C_R   0.797803 0.747630 0.174008 -0.031809
C192  C     C_R   0.202133 0.252466 0.826031 -0.031760
C193  C     C_R   0.692688 0.128888 0.528962 0.888312
C194  C     C_R   0.307308 0.871113 0.471050 0.888358
C195  C     C_R   0.307310 0.128885 0.471044 0.888445
C196  C     C_R   0.692689 0.871114 0.528960 0.888471
C197  C     C_R   0.192689 0.628888 0.528960 0.888317
C198  C     C_R   0.915407 0.499995 0.455887 0.039776
C199  C     C_R   0.807308 0.371113 0.471048 0.888353
C200  C     C_R   0.807310 0.628885 0.471043 0.888449
C201  C     C_R   0.192690 0.371114 0.528958 0.888466
C202  C     C_R   0.685592 0.273865 0.913348 0.027636
C203  C     C_R   0.314501 0.726233 0.086584 0.027656
C204  C     C_R   0.314453 0.273853 0.086582 0.027605
C205  C     C_R   0.685461 0.726268 0.913480 0.027604
C206  C     C_R   0.185585 0.773856 0.913354 0.027636
C207  C     C_R   0.814505 0.226239 0.086583 0.027659
C208  C     C_R   0.814452 0.773851 0.086581 0.027602
H1    H     H_    0.614031 0.340829 0.777662 0.207151
H2    H     H_    0.379926 0.707953 0.829105 0.178392
H3    H     H_    0.379428 0.293440 0.829166 0.178506
H4    H     H_    0.620367 0.706865 0.170917 0.178490
H5    H     H_    0.120277 0.792404 0.170824 0.178408
H6    H     H_    0.879947 0.208008 0.829103 0.178383
H7    H     H_    0.879406 0.793506 0.829169 0.178505
H8    H     H_    0.120358 0.206903 0.170919 0.178491
H9    H     H_    0.385934 0.659094 0.222386 0.207166
H10   H     H_    0.385944 0.340869 0.222341 0.207126
H11   H     H_    0.614109 0.659045 0.777605 0.207146
H12   H     H_    0.114032 0.840832 0.777661 0.207147
H13   H     H_    0.885933 0.159091 0.222388 0.207170
H14   H     H_    0.885944 0.840867 0.222340 0.207127
H15   H     H_    0.114108 0.159046 0.777606 0.207145
H16   H     H_    0.620280 0.292392 0.170817 0.178403
I1    I     I_    0.059392 0.206004 0.513427 -0.229030
I2    I     I_    0.278268 0.899561 0.260730 -0.218452
I3    I     I_    0.278555 0.100421 0.260620 -0.218950
I4    I     I_    0.721283 0.899640 0.739286 -0.219252
I5    I     I_    0.221884 0.600483 0.739311 -0.218214
I6    I     I_    0.778263 0.399561 0.260731 -0.218438
I7    I     I_    0.778564 0.600418 0.260624 -0.218963
I8    I     I_    0.221302 0.399636 0.739295 -0.219218
I9    I     I_    0.837972 0.101668 0.770737 -0.219432
I10   I     I_    0.162622 0.899104 0.228203 -0.219572
I11   I     I_    0.163368 0.099810 0.226882 -0.219516
I12   I     I_    0.940669 0.794018 0.486431 -0.229376
I13   I     I_    0.836055 0.900954 0.774153 -0.219740
I14   I     I_    0.337902 0.601562 0.770867 -0.219427
I15   I     I_    0.662611 0.399082 0.228229 -0.219586
I16   I     I_    0.663406 0.599771 0.226822 -0.219558
I17   I     I_    0.336156 0.400822 0.773952 -0.219691
I18   I     I_    0.941250 0.205877 0.485318 -0.228986
I19   I     I_    0.058817 0.794137 0.514543 -0.229243
I20   I     I_    0.559344 0.705995 0.513544 -0.229075
I21   I     I_    0.440645 0.294017 0.486496 -0.229317
I22   I     I_    0.441189 0.705889 0.485468 -0.229000
I23   I     I_    0.558785 0.294149 0.514628 -0.229223
I24   I     I_    0.721904 0.100489 0.739319 -0.218172
N1    N     N_1   0.702700 0.500010 0.590698 -0.165712
N2    N     N_1   0.437377 0.209421 0.300352 -0.174028
N3    N     N_1   0.437284 0.790661 0.300232 -0.174078
N4    N     N_1   0.562735 0.209378 0.699832 -0.174137
N5    N     N_1   0.504452 0.317157 0.157708 -0.173761
N6    N     N_1   0.495677 0.682935 0.842364 -0.173793
N7    N     N_1   0.495417 0.317580 0.841902 -0.173519
N8    N     N_1   0.504436 0.682653 0.157958 -0.173645
N9    N     N_1   0.004448 0.817163 0.157714 -0.173755
N10   N     N_1   0.995688 0.182952 0.842380 -0.173815
N11   N     N_1   0.995410 0.817592 0.841887 -0.173518
N12   N     N_1   0.297293 0.499992 0.409302 -0.165713
N13   N     N_1   0.004434 0.182654 0.157956 -0.173632
N14   N     N_1   0.202699 0.000010 0.590688 -0.165709
N15   N     N_1   0.797290 0.999992 0.409293 -0.165716
N16   N     N_1   0.062654 0.290510 0.699588 -0.173964
N17   N     N_1   0.937366 0.709419 0.300329 -0.174031
N18   N     N_1   0.937271 0.290681 0.300183 -0.174085
N19   N     N_1   0.062723 0.709382 0.699798 -0.174133
N20   N     N_1   0.562668 0.790522 0.699628 -0.173969
O1    O     O_R   0.746490 0.236330 0.638080 -0.607869
O2    O     O_R   0.325830 0.813840 0.483730 -0.624276
O3    O     O_R   0.325830 0.186160 0.483730 -0.624254
O4    O     O_R   0.674170 0.813840 0.516270 -0.624260
O5    O     O_R   0.174170 0.686160 0.516270 -0.624267
O6    O     O_R   0.825830 0.313840 0.483730 -0.624275
O7    O     O_R   0.825830 0.686160 0.483730 -0.624254
O8    O     O_R   0.174170 0.313840 0.516270 -0.624263
O9    O     O_R   0.739960 0.127620 0.525000 -0.597375
O10   O     O_R   0.260040 0.872380 0.475000 -0.597370
O11   O     O_R   0.260040 0.127620 0.475000 -0.597343
O12   O     O_R   0.253510 0.763670 0.361920 -0.607849
O13   O     O_R   0.739960 0.872380 0.525000 -0.597334
O14   O     O_R   0.239960 0.627620 0.525000 -0.597372
O15   O     O_R   0.760040 0.372380 0.475000 -0.597370
O16   O     O_R   0.760040 0.627620 0.475000 -0.597343
O17   O     O_R   0.239960 0.372380 0.525000 -0.597334
O18   O     O_R   0.680700 0.294870 0.629350 -0.615536
O19   O     O_R   0.319300 0.705130 0.370650 -0.615555
O20   O     O_R   0.319300 0.294870 0.370650 -0.615502
O21   O     O_R   0.680700 0.705130 0.629350 -0.615511
O22   O     O_R   0.180700 0.794870 0.629350 -0.615538
O23   O     O_R   0.253510 0.236330 0.361920 -0.607721
O24   O     O_R   0.819300 0.205130 0.370650 -0.615553
O25   O     O_R   0.819300 0.794870 0.370650 -0.615496
O26   O     O_R   0.180700 0.205130 0.629350 -0.615516
O27   O     O_R   0.062020 0.072840 0.007170 -0.612301
O28   O     O_R   0.937980 0.927160 0.992830 -0.612329
O29   O     O_R   0.937980 0.072840 0.992830 -0.612149
O30   O     O_R   0.062020 0.927160 0.007170 -0.612168
O31   O     O_R   0.562020 0.572840 0.007170 -0.612305
O32   O     O_R   0.437980 0.427160 0.992830 -0.612325
O33   O     O_R   0.437980 0.572840 0.992830 -0.612156
O34   O     O_R   0.746490 0.763670 0.638080 -0.607731
O35   O     O_R   0.562020 0.427160 0.007170 -0.612169
O36   O     O_R   0.947860 0.073950 0.109290 -0.606474
O37   O     O_R   0.052140 0.926050 0.890710 -0.606444
O38   O     O_R   0.052140 0.073950 0.890710 -0.606458
O39   O     O_R   0.947860 0.926050 0.109290 -0.606430
O40   O     O_R   0.447860 0.573950 0.109290 -0.606475
O41   O     O_R   0.552140 0.426050 0.890710 -0.606440
O42   O     O_R   0.552140 0.573950 0.890710 -0.606460
O43   O     O_R   0.447860 0.426050 0.109290 -0.606433
O44   O     O_R   0.246490 0.736330 0.638080 -0.607858
O45   O     O_R   0.753510 0.263670 0.361920 -0.607855
O46   O     O_R   0.753510 0.736330 0.361920 -0.607726
O47   O     O_R   0.246490 0.263670 0.638080 -0.607726
O48   O     O_R   0.674170 0.186160 0.516270 -0.624267
Zn1   Zn    Zn3+2 0.792340 0.208750 0.507670 1.074472
Zn2   Zn    Zn3+2 0.494040 0.500000 0.919480 1.038030
Zn3   Zn    Zn3+2 0.005960 1.000000 0.080520 1.038026
Zn4   Zn    Zn3+2 0.994040 0.000000 0.919480 1.038024
Zn5   Zn    Zn3+2 0.207660 0.791250 0.492330 1.074424
Zn6   Zn    Zn3+2 0.207660 0.208750 0.492330 1.074398
Zn7   Zn    Zn3+2 0.792340 0.791250 0.507670 1.074339
Zn8   Zn    Zn3+2 0.292340 0.708750 0.507670 1.074469
Zn9   Zn    Zn3+2 0.707660 0.291250 0.492330 1.074423
Zn10  Zn    Zn3+2 0.707660 0.708750 0.492330 1.074394
Zn11  Zn    Zn3+2 0.292340 0.291250 0.507670 1.074350
Zn12  Zn    Zn3+2 0.505960 0.500000 0.080520 1.038016

loop_
_geom_bond_atom_site_label_1
_geom_bond_atom_site_label_2
_ccdc_geom_bond_type
C104  N15   T    
C116  N6    T    
C176  C182  S    
C124  C133  A    
C94   C196  S    
C50   C59   A    
C82   C198  A    
C92   C194  S    
C52   C61   A    
C54   C63   A    
C58   C60   A    
C30   C131  A    
C61   C63   A    
C62   C64   A    
C172  H13   S    
C91   C96   A    
C50   C90   A    
C165  O45   A    
C162  C171  A    
O26   Zn6   S    
C45   C159  S    
C70   C74   A    
O7    Zn7   S    
C4    C12   A    
C40   O39   A    
C24   C85   A    
C171  H12   S    
C169  H10   S    
C49   C69   A    
C150  C203  A    
C109  N20   T    
C173  H14   S    
C1    O18   A    
C158  C167  A    
C193  O9    A    
C31   I10   S    
C188  C205  A    
C166  C174  A    
C150  C159  A    
C79   C109  S    
C195  O11   A    
C137  C146  A    
O39   Zn3   S    
C127  C136  A    
C167  H1    S    
C86   C90   A    
C71   C73   A    
C179  C188  A    
C124  C203  A    
C82   C91   A    
C51   C66   A    
C88   C197  S    
C52   C72   A    
C181  C190  A    
C33   C135  A    
C54   C70   A    
C34   C136  A    
C189  C206  A    
C164  C173  A    
C163  C172  A    
C187  O26   A    
O21   Zn10  S    
C6    C151  A    
C173  C182  A    
O24   Zn1   S    
C201  O17   A    
C79   C85   A    
C11   C157  A    
C66   C77   A    
C106  N17   T    
C57   C78   A    
C176  O25   A    
C29   I8    S    
C125  C148  A    
C23   C186  A    
C126  C147  A    
O27   Zn3   S    
C155  C207  A    
C8    C17   A    
O28   Zn4   S    
C56   C59   A    
C155  C163  A    
O34   Zn7   S    
C80   C88   A    
C102  N12   T    
C19   H7    S    
C84   C93   A    
C48   C67   A    
C34   I14   S    
C86   C95   A    
C7    C152  A    
C178  C186  A    
C24   C77   A    
O1    Zn1   S    
C2    C81   A    
C78   C198  A    
O45   Zn9   S    
O30   Zn3   S    
C55   C71   A    
C2    C75   A    
C168  C177  A    
C132  C178  S    
C154  O44   A    
C78   C87   A    
C61   I19   S    
C125  C204  A    
O31   Zn12  S    
C200  O16   A    
O38   Zn4   S    
C4    C115  S    
C67   C77   A    
C195  O3    A    
C129  C144  A    
O11   Zn6   S    
O8    Zn6   S    
C40   C164  S    
C180  C189  A    
C15   C148  A    
C1    O1    A    
C126  C205  A    
C69   C76   A    
C127  C141  A    
C63   I12   S    
C46   C82   A    
C172  C181  A    
C74   C198  A    
C29   C38   A    
C44   O32   A    
C131  C140  A    
C45   O33   A    
C149  C158  A    
C152  C161  A    
C36   I15   S    
C30   I9    S    
C55   C64   A    
C18   H6    S    
C72   C75   A    
C156  C208  A    
O22   Zn5   S    
C64   I1    S    
C26   C189  A    
C143  O21   A    
O20   Zn11  S    
C139  C148  A    
C42   O37   A    
C100  N1    T    
C129  C208  A    
O36   Zn3   S    
O32   Zn2   S    
C48   C113  A    
C112  O12   A    
C35   C105  S    
O41   Zn2   S    
C160  C169  A    
C132  O23   A    
C18   C140  A    
C8    C153  A    
C47   O35   A    
C165  O24   A    
C91   C200  S    
C112  O19   A    
C194  O10   A    
C37   C138  A    
C39   O27   A    
C40   O28   A    
C11   C122  S    
C28   C191  A    
O18   Zn9   S    
C167  C175  A    
C170  H11   S    
C38   I17   S    
C1    C175  S    
C83   C101  A    
C174  H15   S    
O43   Zn12  S    
C42   C162  S    
O6    Zn1   S    
C22   I2    S    
C200  O7    A    
O5    Zn5   S    
C170  C179  A    
C128  C140  A    
C88   C97   A    
C3    C192  A    
C32   C134  A    
C117  N7    T    
C28   C37   A    
C46   C106  S    
C130  C142  A    
C50   C65   A    
C51   C79   A    
C9    C18   A    
C9    C155  A    
C3    C157  A    
C9    C120  S    
C175  C184  A    
C51   C60   A    
C149  C202  A    
C8    C119  S    
O47   Zn11  S    
O17   Zn11  S    
C125  C134  A    
C21   C184  A    
C19   C144  A    
C154  C180  S    
C73   C74   A    
C43   O42   A    
O13   Zn7   S    
C87   C199  S    
C151  C204  A    
C183  C192  A    
C110  N2    T    
C14   C145  A    
C65   C76   A    
C16   C147  A    
C20   H8    S    
C49   C101  A    
C98   C103  S    
C177  C185  A    
C17   C141  A    
C12   H16   S    
C143  O34   A    
C41   O29   A    
C65   C67   A    
C38   C139  A    
C187  O47   A    
C194  O2    A    
C27   C190  A    
C168  H9    S    
C93   C99   A    
C6    C117  S    
C97   C102  S    
C81   C89   A    
C99   C104  S    
O37   Zn4   S    
C44   O43   A    
C130  C139  A    
C41   O36   A    
C21   I24   S    
C26   I5    S    
C11   C20   A    
C56   I23   S    
O16   Zn10  S    
C60   I20   S    
C58   I22   S    
C39   O38   A    
C196  O13   A    
C53   C57   A    
O46   Zn10  S    
C37   I16   S    
C42   O30   A    
O23   Zn6   S    
O44   Zn8   S    
C5    C150  A    
O10   Zn5   S    
O40   Zn12  S    
C183  C187  S    
C134  C142  A    
C197  O5    A    
C27   I6    S    
C123  C146  A    
C10   C19   A    
C114  N4    T    
C46   C54   A    
C107  N18   T    
C59   I21   S    
C5    C14   A    
C118  N8    T    
O12   Zn5   S    
C121  N11   T    
C7    C16   A    
C119  N9    T    
C126  C135  A    
C41   C163  S    
C44   C160  S    
C182  C191  A    
C113  C114  S    
C95   C195  S    
C123  C131  A    
C93   C193  S    
C174  C183  A    
C122  N13   T    
C27   C36   A    
C101  C111  S    
C21   C30   A    
C13   C83   A    
C133  C141  A    
C153  C162  A    
C47   O41   A    
O14   Zn8   S    
C23   C32   A    
C185  C203  A    
C39   C166  S    
C105  N16   T    
O25   Zn7   S    
C103  N14   T    
C196  O4    A    
C193  O48   A    
C33   I13   S    
C45   O40   A    
C112  C177  S    
C32   I11   S    
C68   C80   A    
C89   C201  S    
C176  O46   A    
C84   C113  A    
C3    C130  A    
C31   C133  A    
C10   C121  S    
C35   C81   A    
C95   C98   A    
C92   C98   A    
C4    C149  A    
O48   Zn9   S    
C127  C206  A    
C66   C69   A    
C111  N3    T    
C96   C100  S    
O33   Zn2   S    
C159  C168  A    
C12   C146  A    
C15   H3    S    
C6    C15   A    
C26   C34   A    
C129  C138  A    
C115  N5    T    
C13   C86   A    
C128  C207  A    
O9    Zn1   S    
C136  C145  A    
C52   C68   A    
C199  O15   A    
C7    C118  S    
C17   H5    S    
C62   I18   S    
O19   Zn8   S    
C184  C202  A    
C22   C31   A    
C14   H2    S    
C35   C55   A    
C20   C142  A    
C152  C205  A    
C16   H4    S    
O4    Zn10  S    
C10   C156  A    
O42   Zn2   S    
C154  O22   A    
C49   C58   A    
C89   C97   A    
C108  N19   T    
C128  C137  A    
C25   C188  A    
C85   C94   A    
C190  C207  A    
C13   C76   A    
C138  C147  A    
C87   C96   A    
C29   C192  A    
C186  C204  A    
C28   I7    S    
C161  C170  A    
C43   C161  S    
C135  C144  A    
C57   C107  S    
C143  C179  S    
C5    C116  S    
C171  C180  A    
C90   C110  S    
C169  C178  A    
C36   C137  A    
C48   C56   A    
C43   O31   A    
C123  C202  A    
C53   C73   A    
C197  O14   A    
O15   Zn9   S    
C157  C166  A    
C23   I3    S    
O3    Zn11  S    
C124  C145  A    
C25   I4    S    
C165  C181  S    
C151  C160  A    
C22   C185  A    
C24   C84   A    
C71   C75   A    
C132  O20   A    
C94   C99   A    
C120  N10   T    
C191  C208  A    
O35   Zn12  S    
C2    C80   A    
C201  O8    A    
C153  C206  A    
C199  O6    A    
C156  C164  A    
C53   C62   A    
C83   C92   A    
C25   C33   A    
O2    Zn8   S    
C70   C72   A    
C68   C108  S    
O29   Zn4   S    
C47   C158  S    
