data_mof_unit_654.cif
_audit_creation_date              2012-12-11T17:03:25-0500
_audit_creation_method            fapswitch 2.2
_symmetry_space_group_name_H-M    P1
_symmetry_Int_Tables_number       1
_space_group_crystal_system       triclinic
_cell_length_a                    16.590815
_cell_length_b                    7.129655
_cell_length_c                    15.328772
_cell_angle_alpha                 89.890798
_cell_angle_beta                  94.484916
_cell_angle_gamma                 89.770803
_cell_volume                      1807.62017731

loop_
_atom_site_label
_atom_site_type_symbol
_atom_type_description
_atom_site_fract_x
_atom_site_fract_y
_atom_site_fract_z
_atom_type_partial_charge
O1    O     O_R   0.413460 0.494300 0.415980 -0.511511
O2    O     O_R   0.586540 0.994300 0.584020 -0.535873
O3    O     O_R   0.577100 0.822370 0.413730 -0.547515
O4    O     O_R   0.422900 0.322370 0.586270 -0.536231
C1    C     C_R   0.603206 0.655035 0.392846 0.687205
C2    C     C_R   0.396268 0.155485 0.606516 0.736901
O5    O     O_R   0.413490 0.823910 0.405510 -0.528819
O6    O     O_R   0.586510 0.323910 0.594490 -0.539211
O7    O     O_R   0.421770 0.995890 0.575740 -0.530975
O8    O     O_R   0.578230 0.495890 0.424260 -0.534418
C3    C     C_R   0.385817 0.655377 0.383065 0.736059
C4    C     C_R   0.616573 0.154988 0.613659 0.698260
O9    O     O_3   0.502910 0.661350 0.555860 -0.364815
O10   O     O_3   0.497090 0.161350 0.444140 -0.353331
V1    V     V_3+5 0.499460 0.935550 0.489640 1.482009
V2    V     V_3+5 0.500540 0.435550 0.510360 1.488766
C5    C     C_R   0.697286 0.996009 0.737882 0.072108
C6    C     C_R   0.270137 0.483567 0.303610 -0.096344
C7    C     C_R   0.687607 0.143865 0.678897 -0.233342
C8    C     C_R   0.316997 0.645609 0.314822 -0.132990
C9    C     C_R   0.745891 0.285591 0.687459 -0.194738
C10   C     C_R   0.302209 0.789294 0.252819 -0.128402
H1    H     H_    0.742784 0.397523 0.640252 0.179097
H2    H     H_    0.344199 0.902978 0.252281 0.158414
C11   C     C_R   0.812469 0.274836 0.750888 0.390532
C12   C     C_R   0.240966 0.775126 0.183887 0.315438
C13   C     C_R   0.817223 0.126411 0.814486 -0.211789
C14   C     C_R   0.187245 0.620559 0.179904 -0.172168
C15   C     C_R   0.752073 0.999420 0.811162 -0.100841
C16   C     C_R   0.207768 0.470539 0.236001 -0.189541
C17   C     C_3   0.751287 0.789064 0.818277 0.200139
C18   C     C_3   0.234965 0.277176 0.211582 0.272943
C19   C     C_3   0.708863 0.789101 0.726086 0.641527
C20   C     C_3   0.301153 0.289068 0.286889 0.645738
H3    H     H_    0.811390 0.718090 0.824099 0.131439
H4    H     H_    0.187826 0.172487 0.224229 0.104416
C21   C     C_1   0.166136 0.120385 0.831539 -0.190720
C22   C     C_1   0.835698 0.620172 0.170591 -0.191887
C23   C     C_1   0.218848 0.128546 0.780224 0.002980
C24   C     C_1   0.782842 0.627191 0.221787 -0.002166
C25   C     C_1   0.281014 0.138392 0.719943 0.009760
C26   C     C_1   0.719535 0.636634 0.280708 -0.005337
C27   C     C_1   0.333691 0.146535 0.668589 -0.195814
C28   C     C_1   0.666017 0.645146 0.331065 -0.182512
O11   O     O_R   0.921840 0.772560 0.075830 -0.539346
O12   O     O_R   0.078160 0.272560 0.924170 -0.531496
O13   O     O_R   0.086520 0.441250 0.094510 -0.524447
O14   O     O_R   0.913480 0.941250 0.905490 -0.548050
C29   C     C_R   0.116072 0.609567 0.114486 0.698028
C30   C     C_R   0.885671 0.110928 0.883239 0.666110
O15   O     O_R   0.922920 0.442940 0.086290 -0.535213
O16   O     O_R   0.077080 0.942940 0.913710 -0.536940
O17   O     O_R   0.913440 0.271120 0.915960 -0.533091
O18   O     O_R   0.086560 0.771120 0.084040 -0.530017
C31   C     C_R   0.897718 0.611656 0.107836 0.687956
C32   C     C_R   0.103458 0.111417 0.893495 0.736866
O19   O     O_3   0.997130 0.604020 0.944190 -0.374118
O20   O     O_3   0.002870 0.104020 0.055810 -0.366334
V3    V     V_3+5 0.000530 0.329760 0.010360 1.460216
V4    V     V_3+5 0.999470 0.829760 0.989640 1.433248
O21   O     O_3   0.872786 0.405652 0.744741 -0.629274
H5    H     H_    0.925115 0.347871 0.765564 0.285663
O22   O     O_3   0.243480 0.899042 0.115390 -0.613139
H6    H     H_    0.225345 0.834518 0.060198 0.282823
O23   O     O_3   0.697146 0.727353 0.879079 -0.548334
C33   C     C_3   0.731014 0.748108 0.965572 0.138903
H7    H     H_    0.766111 0.880189 0.975641 0.112637
H8    H     H_    0.770826 0.626068 0.982937 0.112856
C34   C     C_3   0.662462 0.753667 0.025924 -0.685000
H9    H     H_    0.632903 0.614329 0.027500 0.219986
H10   H     H_    0.685923 0.792686 0.093007 0.178884
H11   H     H_    0.616863 0.860442 0.002344 0.230131
O24   O     O_3   0.261443 0.249470 0.125773 -0.520252
C35   C     C_3   0.305679 0.395283 0.088967 0.157715
H12   H     H_    0.339332 0.485635 0.137733 0.141892
H13   H     H_    0.263642 0.483724 0.046528 0.099221
C36   C     C_3   0.366207 0.309221 0.030920 -0.679083
H14   H     H_    0.334120 0.223205 0.978854 0.227869
H15   H     H_    0.400029 0.422020 0.999791 0.175096
H16   H     H_    0.409789 0.218750 0.070470 0.219485
O25   O     O_3   0.635766 0.689479 0.716558 -0.625177
H17   H     H_    0.648372 0.558719 0.734829 0.307691
O26   O     O_3   0.380608 0.295378 0.261100 -0.640352
H18   H     H_    0.391100 0.176490 0.230938 0.291438
O27   O     O_3   0.766829 0.736455 0.666838 -0.575742
C37   C     C_3   0.739906 0.764009 0.578338 0.107560
H19   H     H_    0.734002 0.915209 0.562912 0.118120
H20   H     H_    0.681978 0.690156 0.561434 0.152070
C38   C     C_3   0.803964 0.687837 0.521712 -0.723764
H21   H     H_    0.864385 0.742969 0.544957 0.243158
H22   H     H_    0.805713 0.532336 0.524061 0.212195
H23   H     H_    0.790535 0.733504 0.452992 0.177394
O28   O     O_3   0.294597 0.151955 0.354047 -0.557572
C39   C     C_3   0.231816 0.185298 0.409641 0.059426
H24   H     H_    0.174464 0.230086 0.373012 0.097261
H25   H     H_    0.251179 0.294227 0.458624 0.130085
C40   C     C_3   0.214584 0.004615 0.457573 -0.706248
H26   H     H_    0.192124 0.896126 0.409853 0.215447
H27   H     H_    0.270411 0.951856 0.494218 0.223585
H28   H     H_    0.167941 0.030495 0.504343 0.179529

loop_
_geom_bond_atom_site_label_1
_geom_bond_atom_site_label_2
_ccdc_geom_bond_type
C33   H8    S    
O11   V4    S    
O28   C39   S    
O12   V3    S    
C13   C15   A    
C5    C15   A    
O24   C35   S    
O1    C3    A    
C20   O28   S    
O2    C4    A    
C2    O7    A    
O25   H17   S    
O17   V3    S    
O13   C29   A    
O18   V4    S    
C36   H14   S    
O5    C3    A    
C35   H13   S    
C18   H4    S    
C10   H2    S    
C7    C9    A    
C37   H20   S    
C33   C34   S    
C29   O18   A    
C40   H26   S    
C4    C7    S    
C34   H10   S    
C19   O27   S    
O16   V4    S    
C21   C32   S    
C22   C31   S    
C35   C36   S    
C17   C19   S    
C6    C16   A    
C38   H22   S    
O15   C31   A    
O21   H5    S    
C13   C30   S    
O14   C30   A    
C33   H7    S    
O6    V2    S    
C22   C24   T    
C25   C27   T    
C34   H9    S    
C26   C28   T    
C40   H27   S    
O14   V4    S    
C36   H15   S    
C3    C8    S    
C30   O17   A    
C35   H12   S    
C23   C25   S    
C18   O24   S    
C37   H19   S    
O19   V4    S    
O5    V1    S    
C39   C40   S    
O20   V3    S    
O27   C37   S    
C18   C20   S    
O4    V2    S    
C34   H11   S    
C12   O22   S    
C14   C29   S    
O26   H18   S    
O6    C4    A    
C5    C19   S    
O1    V2    S    
C11   O21   S    
C38   H23   S    
C39   H25   S    
O2    V1    S    
C6    C20   S    
O4    C2    A    
C1    C28   S    
C8    C10   A    
C2    C27   S    
O9    V1    S    
O10   V2    S    
O15   V3    S    
C20   O26   S    
C40   H28   S    
O3    V1    S    
C36   H16   S    
C17   O23   S    
C9    C11   A    
O3    C1    A    
C37   C38   S    
C11   C13   A    
C12   C14   A    
C9    H1    S    
O7    V1    S    
C14   C16   A    
C21   C23   T    
O8    V2    S    
C16   C18   S    
C17   H3    S    
C24   C26   S    
C5    C7    A    
C6    C8    A    
C39   H24   S    
O13   V3    S    
O22   H6    S    
C1    O8    A    
O11   C31   A    
C15   C17   S    
O23   C33   S    
C10   C12   A    
O9    V2    S    
O12   C32   A    
O10   V1    S    
C38   H21   S    
C19   O25   S    
O16   C32   A    
