data_mof_unit_4084.cif
_audit_creation_date              2012-12-10T19:45:38-0500
_audit_creation_method            fapswitch 2.2
_symmetry_space_group_name_H-M    P1
_symmetry_Int_Tables_number       1
_space_group_crystal_system       triclinic
_cell_length_a                    10.811433
_cell_length_b                    14.948985
_cell_length_c                    14.907568
_cell_angle_alpha                 63.880412
_cell_angle_beta                  108.314408
_cell_angle_gamma                 102.356126
_cell_volume                      2045.62658817

loop_
_atom_site_label
_atom_site_type_symbol
_atom_type_description
_atom_site_fract_x
_atom_site_fract_y
_atom_site_fract_z
_atom_type_partial_charge
C1    C     C_R   0.478241 0.119420 0.311921 0.778144
C2    C     C_R   0.521298 0.880734 0.687947 0.768852
C3    C     C_R   0.870401 0.001927 0.497024 -0.074557
C4    C     C_R   0.130820 0.994152 0.509615 -0.079928
C5    C     C_R   0.899939 0.965109 0.434464 0.001321
C6    C     C_R   0.101489 0.030744 0.572700 0.004896
C7    C     C_R   0.460285 0.188077 0.202311 -0.059199
C8    C     C_R   0.537807 0.812794 0.797417 -0.053690
C9    C     C_R   0.348348 0.229746 0.022692 -0.206939
C10   C     C_R   0.648129 0.772096 0.977052 -0.209654
C11   C     C_R   0.380184 0.159285 0.123869 -0.225436
C12   C     C_R   0.618082 0.842024 0.875431 -0.228968
C13   C     C_R   0.515033 0.287146 0.177184 -0.245554
C14   C     C_R   0.480866 0.714364 0.822957 -0.246112
C15   C     C_R   0.478590 0.361491 0.076605 0.090434
C16   C     C_R   0.516021 0.640360 0.923836 0.090858
C17   C     C_R   0.393365 0.330751 0.999116 0.170127
C18   C     C_R   0.601487 0.671209 0.001182 0.169603
C19   C     C_R   0.520069 0.465260 0.051632 0.062320
C20   C     C_R   0.473598 0.536714 0.949079 0.062314
C21   C     C_R   0.388309 0.501912 0.874855 -0.227498
C22   C     C_R   0.604804 0.500175 0.125958 -0.226958
C23   C     C_R   0.263931 0.997406 0.504262 0.771973
C24   C     C_R   0.736632 0.001178 0.498258 0.771962
C25   C     C_R   0.350750 0.401043 0.899331 -0.235437
C26   C     C_R   0.642874 0.601057 0.101284 -0.236903
C27   C     C_R   0.761743 0.311887 0.614449 -0.309763
C28   C     C_R   0.237300 0.690770 0.382541 -0.336951
C29   C     C_R   0.706759 0.216069 0.622741 0.331926
C30   C     C_R   0.298268 0.786362 0.371254 0.290986
C31   C     C_R   0.503351 0.283228 0.513580 0.209733
C32   C     C_R   0.493502 0.714855 0.490650 0.209924
C33   C     C_R   0.547175 0.372011 0.533835 -0.019867
C34   C     C_R   0.447867 0.625612 0.471935 -0.024750
C35   C     C_R   0.683260 0.390434 0.567155 0.089165
C36   C     C_R   0.312003 0.609222 0.436242 0.103600
C37   C     C_R   0.467343 0.449508 0.509302 0.069893
C38   C     C_R   0.526679 0.547992 0.496434 0.068768
C39   C     C_R   0.661505 0.566434 0.503386 -0.234040
C40   C     C_R   0.331525 0.432380 0.499461 -0.237093
C41   C     C_R   0.740023 0.487979 0.547909 -0.202681
C42   C     C_R   0.253930 0.512064 0.453919 -0.201342
C43   C     C_R   0.384074 0.022525 0.803895 -0.128635
C44   C     C_R   0.624370 0.983310 0.196353 -0.140331
C45   C     C_R   0.291803 0.994212 0.728951 -0.076608
C46   C     C_R   0.715490 0.008226 0.274060 -0.082657
C47   C     C_R   0.202577 0.061259 0.650558 0.132002
C48   C     C_R   0.799777 0.937938 0.353739 0.137333
C49   C     C_R   0.205356 0.155970 0.649933 -0.181220
C50   C     C_R   0.793138 0.843324 0.353002 -0.177866
C51   C     C_R   0.298151 0.184090 0.724753 -0.146695
C52   C     C_R   0.701510 0.818607 0.275386 -0.141320
C53   C     C_R   0.387780 0.117550 0.801437 -0.125391
C54   C     C_R   0.616921 0.888449 0.197296 -0.129098
C55   C     C_R   0.970869 0.033866 0.565354 -0.243253
C56   C     C_R   0.029947 0.958815 0.444646 -0.245826
Cu1   Cu    Cu3+1 0.466270 0.918260 0.475690 0.921606
Cu2   Cu    Cu3+1 0.533730 0.081740 0.524310 0.913431
H1    H     H_    0.459251 0.139240 0.859540 0.124818
H2    H     H_    0.546378 0.869371 0.137041 0.123855
H3    H     H_    0.284000 0.205865 0.963481 0.132736
H4    H     H_    0.712513 0.796128 0.036133 0.134074
H5    H     H_    0.346955 0.550393 0.796494 0.136205
H6    H     H_    0.645451 0.451763 0.204507 0.135677
H7    H     H_    0.845317 0.504214 0.562072 0.138586
H8    H     H_    0.148396 0.497266 0.436496 0.139280
H9    H     H_    0.865299 0.324625 0.647370 0.149458
H10   H     H_    0.137703 0.681923 0.338722 0.146414
H11   H     H_    0.707243 0.641017 0.473461 0.141896
H12   H     H_    0.283967 0.358183 0.526555 0.143542
H13   H     H_    0.451975 0.970559 0.864540 0.127801
H14   H     H_    0.560169 0.037753 0.134889 0.130705
H15   H     H_    0.288901 0.919869 0.732557 0.098057
H16   H     H_    0.721208 0.082418 0.271707 0.098762
H17   H     H_    0.135745 0.207972 0.591349 0.114395
H18   H     H_    0.858922 0.788820 0.412621 0.112435
H19   H     H_    0.300189 0.257300 0.723597 0.125706
H20   H     H_    0.696486 0.745458 0.275492 0.124876
H21   H     H_    0.947550 0.058151 0.616052 0.139800
H22   H     H_    0.052190 0.929819 0.397919 0.145047
H23   H     H_    0.285196 0.378062 0.839812 0.136120
H24   H     H_    0.708251 0.624094 0.160813 0.136797
H25   H     H_    0.413125 0.697480 0.761087 0.145584
H26   H     H_    0.582317 0.304239 0.239084 0.146623
H27   H     H_    0.660405 0.918065 0.857422 0.142482
H28   H     H_    0.338824 0.083330 0.140732 0.151248
N1    N     N_R   0.584450 0.204570 0.560790 -0.210179
N2    N     N_R   0.415550 0.795430 0.439210 -0.198596
O1    O     O_R   0.455540 0.022090 0.338120 -0.582229
O2    O     O_R   0.544460 0.977910 0.661880 -0.587260
O3    O     O_R   0.512510 0.160150 0.379180 -0.592957
O4    O     O_R   0.487490 0.839850 0.620820 -0.591908
O5    O     O_R   0.291160 0.930970 0.479480 -0.579921
O6    O     O_R   0.708840 0.069030 0.520520 -0.599162
O7    O     O_R   0.348130 0.069020 0.520540 -0.591551
O8    O     O_R   0.651870 0.930980 0.479460 -0.591785
C57   C     C_3   0.614889 0.711593 0.579808 -0.349211
C58   C     C_3   0.604471 0.622294 0.682233 -0.377037
C59   C     C_3   0.718200 0.628417 0.771908 -0.829807
H29   H     H_    0.812218 0.625375 0.758312 0.250296
H30   H     H_    0.721578 0.698871 0.780853 0.256401
H31   H     H_    0.705773 0.564307 0.844627 0.253500
H32   H     H_    0.511085 0.621030 0.698728 0.224158
H33   H     H_    0.604801 0.550207 0.678128 0.236661
H34   H     H_    0.706666 0.714171 0.561296 0.162073
H35   H     H_    0.633622 0.777061 0.596458 0.260123
C60   C     C_3   0.382709 0.287050 0.423901 -0.350471
C61   C     C_3   0.392626 0.377771 0.322264 -0.382522
C62   C     C_3   0.279199 0.372383 0.232095 -0.828575
H36   H     H_    0.276713 0.302792 0.221789 0.257544
H37   H     H_    0.184917 0.374124 0.246133 0.250469
H38   H     H_    0.291233 0.437485 0.159928 0.253447
H39   H     H_    0.391626 0.449163 0.327480 0.238149
H40   H     H_    0.486174 0.380089 0.305346 0.223375
H41   H     H_    0.367175 0.223018 0.405273 0.262733
H42   H     H_    0.290353 0.282007 0.442903 0.164452
C63   C     C_3   0.255866 0.869101 0.266264 -0.388924
C64   C     C_3   0.137357 0.917405 0.254552 -0.343843
C65   C     C_3   0.059996 0.964320 0.142116 -0.877777
H43   H     H_    0.122964 0.021090 0.093549 0.253140
H44   H     H_    0.018517 0.905781 0.111311 0.252952
H45   H     H_    0.977921 0.001266 0.137402 0.251547
H46   H     H_    0.070060 0.859758 0.298466 0.212893
H47   H     H_    0.172097 0.976979 0.284277 0.232922
H48   H     H_    0.338857 0.924646 0.247563 0.208022
H49   H     H_    0.231426 0.836978 0.207422 0.180441
C66   C     C_3   0.790338 0.130705 0.696880 -0.377186
C67   C     C_3   0.800304 0.105324 0.810848 -0.387344
C68   C     C_3   0.888039 0.181351 0.851327 -0.816106
H50   H     H_    0.982779 0.199888 0.829904 0.243327
H51   H     H_    0.838595 0.250381 0.821301 0.256308
H52   H     H_    0.908350 0.149065 0.936821 0.239108
H53   H     H_    0.701099 0.096665 0.822615 0.221087
H54   H     H_    0.843285 0.032425 0.858456 0.204994
H55   H     H_    0.751093 0.061763 0.685248 0.219047
H56   H     H_    0.889847 0.149571 0.683382 0.163253

loop_
_geom_bond_atom_site_label_1
_geom_bond_atom_site_label_2
_ccdc_geom_bond_type
C1    O1    A    
Cu1   O4    S    
C27   C29   A    
C5    C56   A    
C36   C42   A    
C19   C20   A    
C18   C26   A    
C6    C55   A    
C67   C68   S    
C57   C58   S    
C53   H1    S    
C39   C41   A    
C54   H2    S    
C61   C62   S    
C29   N1    A    
C15   C19   A    
C13   H26   S    
Cu1   O1    S    
C12   H27   S    
C9    H3    S    
C28   H10   S    
C66   H55   S    
C37   C40   A    
C24   O6    A    
C62   H37   S    
C38   C39   A    
C11   H28   S    
C58   H32   S    
C32   N2    A    
C32   C57   S    
C45   H15   S    
C61   H40   S    
C2    O2    A    
C64   C65   S    
C3    C55   A    
C43   C53   A    
C29   C66   S    
C52   C54   A    
C49   C51   A    
Cu1   O8    S    
C50   C52   A    
C60   C61   S    
C49   H17   S    
C63   H49   S    
C16   C20   A    
C68   H52   S    
C57   H34   S    
C45   C47   A    
C1    O3    A    
C1    C7    S    
Cu2   N1    S    
C25   H23   S    
C3    C24   S    
C10   H4    S    
C14   H25   S    
C52   H20   S    
C44   C46   A    
C26   H24   S    
C65   H44   S    
C5    C48   S    
C46   C48   A    
C31   N1    A    
C6    C47   S    
C19   C22   A    
C43   H13   S    
C66   H56   S    
C4    C6    A    
C62   H38   S    
C4    C23   S    
C41   H7    S    
C27   C35   A    
C33   C37   A    
C23   O5    A    
C51   C53   A    
C32   C34   A    
C61   H39   S    
C7    C11   A    
Cu2   O7    S    
C51   H19   S    
C37   C38   A    
C67   H54   S    
C55   H21   S    
C59   H29   S    
C13   C15   A    
C8    C12   A    
C31   C33   A    
C39   H11   S    
C64   H47   S    
C2    O4    A    
C48   C50   A    
C43   C45   A    
C60   H41   S    
C10   C12   A    
Cu2   O2    S    
C57   H35   S    
C9    C17   A    
C59   H30   S    
C9    C11   A    
C14   C16   A    
C30   N2    A    
C66   C67   S    
C46   H16   S    
C68   H50   S    
Cu2   O3    S    
C65   H45   S    
C15   C17   A    
C21   C25   A    
C8    C14   A    
C34   C38   A    
C31   C60   S    
C2    C8    S    
C3    C5    A    
C65   H43   S    
C30   C63   S    
C47   C49   A    
C40   H12   S    
C63   C64   S    
C56   H22   S    
Cu1   N2    S    
C17   C25   A    
C24   O8    A    
Cu2   O6    S    
C28   C30   A    
C67   H53   S    
Cu1   Cu2   S    
C10   C18   A    
C58   H33   S    
C40   C42   A    
C33   C35   A    
C23   O7    A    
C44   H14   S    
C34   C36   A    
C64   H46   S    
C35   C41   A    
C60   H42   S    
C21   H5    S    
C27   H9    S    
C22   H6    S    
C44   C54   A    
C7    C13   A    
C59   H31   S    
C20   C21   A    
C28   C36   A    
C16   C18   A    
C58   C59   S    
C22   C26   A    
C42   H8    S    
Cu1   O5    S    
C62   H36   S    
C63   H48   S    
C4    C56   A    
C68   H51   S    
C50   H18   S    
