data_mof_unit_3032.cif
_audit_creation_date              2012-12-10T17:38:51-0500
_audit_creation_method            fapswitch 2.2
_symmetry_space_group_name_H-M    P1
_symmetry_Int_Tables_number       1
_space_group_crystal_system       triclinic
_cell_length_a                    12.306631
_cell_length_b                    13.089402
_cell_length_c                    23.472134
_cell_angle_alpha                 78.032105
_cell_angle_beta                  101.095924
_cell_angle_gamma                 116.483766
_cell_volume                      3289.04923727

loop_
_atom_site_label
_atom_site_type_symbol
_atom_type_description
_atom_site_fract_x
_atom_site_fract_y
_atom_site_fract_z
_atom_type_partial_charge
C1    C     C_R   0.854967 0.286266 0.505132 0.777061
C2    C     C_R   0.814472 0.297249 0.035495 -0.214710
C3    C     C_R   0.808261 0.296549 0.975346 -0.017932
C4    C     C_R   0.894524 0.390850 0.941595 -0.053915
C5    C     C_R   0.980524 0.487162 0.969018 -0.029835
C6    C     C_R   0.063585 0.584199 0.936124 -0.001485
C7    C     C_R   0.148575 0.679263 0.963649 -0.178663
C8    C     C_R   0.152362 0.678274 0.023388 -0.171116
C9    C     C_R   0.900276 0.392798 0.881743 0.502333
C10   C     C_R   0.060116 0.583750 0.876303 0.544461
C11   C     C_R   0.924542 0.549371 0.746259 0.035126
C12   C     C_R   0.998802 0.499264 0.608839 0.799670
C13   C     C_R   0.931619 0.551831 0.687205 -0.266467
C14   C     C_R   0.994392 0.497207 0.671040 -0.043567
C15   C     C_R   0.050267 0.439227 0.714463 -0.228409
C16   C     C_R   0.042720 0.435261 0.773346 -0.124169
C17   C     C_R   0.980446 0.489992 0.789587 0.335692
C18   C     C_R   0.899042 0.499050 0.228818 -0.112800
C19   C     C_R   0.901444 0.503278 0.287866 -0.226288
C20   C     C_R   0.998397 0.495718 0.328663 -0.037733
C21   C     C_R   0.092774 0.483698 0.309284 -0.228876
C22   C     C_R   0.090350 0.479946 0.250078 -0.116187
C23   C     C_R   0.144975 0.713689 0.491849 0.803508
C24   C     C_R   0.993472 0.487598 0.209728 0.363537
C25   C     C_R   0.275527 0.023584 0.424199 -0.200740
C26   C     C_R   0.227610 0.835425 0.480657 -0.057556
C27   C     C_R   0.815389 0.084257 0.543988 -0.189529
C28   C     C_R   0.735958 0.969221 0.556138 -0.150432
C29   C     C_R   0.612461 0.931817 0.535809 -0.180687
C30   C     C_R   0.566229 0.008959 0.500557 0.076895
C31   C     C_R   0.650272 0.123014 0.482489 0.071102
C32   C     C_R   0.439619 0.976603 0.482214 0.075507
C33   C     C_R   0.400299 0.054561 0.442460 0.157410
C34   C     C_R   0.999966 0.499246 0.391077 0.794682
C35   C     C_R   0.485991 0.161137 0.419982 -0.244236
C36   C     C_R   0.609244 0.193958 0.438692 -0.192799
C37   C     C_R   0.350498 0.868966 0.502328 -0.273368
C38   C     C_R   0.189403 0.913922 0.442867 -0.192243
C39   C     C_R   0.773307 0.162719 0.508607 -0.105511
C40   C     C_R   0.330654 0.307507 0.584190 -0.104627
C41   C     C_R   0.764628 0.653392 0.425284 0.019622
C42   C     C_R   0.672834 0.692944 0.412038 -0.037665
C43   C     C_R   0.566885 0.632858 0.440506 -0.239778
C44   C     C_R   0.553278 0.536030 0.483380 -0.015053
C45   C     C_R   0.072991 0.580142 0.116999 0.527790
C46   C     C_R   0.652175 0.503377 0.496726 0.264606
C47   C     C_R   0.447019 0.472710 0.514470 -0.052165
C48   C     C_R   0.441400 0.377317 0.558399 0.064360
C49   C     C_R   0.547005 0.356200 0.575394 -0.080852
C50   C     C_R   0.646608 0.415849 0.543459 -0.221612
C51   C     C_R   0.345169 0.500349 0.503570 0.017686
C52   C     C_R   0.236901 0.343590 0.572463 0.022733
C53   C     C_R   0.907398 0.392621 0.123071 0.533480
C54   C     C_R   0.901802 0.391147 0.062909 -0.025521
C55   C     C_R   0.984254 0.486847 0.029574 -0.020349
C56   C     C_R   0.070807 0.582467 0.056814 -0.009861
Cu1   Cu    Cu3+1 0.098270 0.475410 0.513370 0.930355
Cu2   Cu    Cu3+1 0.901730 0.524590 0.486630 0.917668
H1    H     H_    0.748433 0.224567 0.060640 0.186842
H2    H     H_    0.827237 0.512162 0.301514 0.159030
H3    H     H_    0.168619 0.477737 0.339728 0.154842
H4    H     H_    0.163701 0.471230 0.235475 0.136384
H5    H     H_    0.457729 0.219343 0.387533 0.147399
H6    H     H_    0.245051 0.082809 0.393931 0.135649
H7    H     H_    0.374029 0.808038 0.534345 0.148666
H8    H     H_    0.556505 0.841513 0.547567 0.130422
H9    H     H_    0.769571 0.909204 0.583163 0.142252
H10   H     H_    0.671708 0.274737 0.417205 0.176702
H11   H     H_    0.152458 0.292397 0.591932 0.127290
H12   H     H_    0.341227 0.570148 0.471034 0.127914
H13   H     H_    0.846535 0.698007 0.403406 0.129564
H14   H     H_    0.498953 0.666565 0.429966 0.136168
H15   H     H_    0.721751 0.394732 0.559229 0.215007
H16   H     H_    0.213012 0.754591 0.939191 0.177159
H17   H     H_    0.219388 0.752862 0.043245 0.185923
H18   H     H_    0.888312 0.597005 0.653830 0.160272
H19   H     H_    0.098595 0.396009 0.702895 0.149336
H20   H     H_    0.086423 0.390505 0.806645 0.137160
H21   H     H_    0.824222 0.505492 0.197723 0.138394
N1    N     N_R   0.991955 0.486242 0.148699 -0.467501
N2    N     N_R   0.979619 0.489140 0.850633 -0.461501
N3    N     N_R   0.246280 0.438190 0.533650 -0.185602
N4    N     N_R   0.754320 0.561190 0.466710 -0.207680
O1    O     O_R   0.972510 0.318130 0.516820 -0.581080
O2    O     O_2   0.829314 0.301245 0.155786 -0.561728
O3    O     O_2   0.828825 0.299608 0.854573 -0.561076
O4    O     O_2   0.137548 0.676540 0.843982 -0.568891
O5    O     O_R   0.806530 0.359650 0.494230 -0.604634
O6    O     O_R   0.082990 0.479200 0.593420 -0.579064
O7    O     O_R   0.917010 0.520720 0.570830 -0.599670
O8    O     O_R   0.193470 0.640350 0.505770 -0.583420
O9    O     O_R   0.027490 0.681870 0.483180 -0.587998
O10   O     O_R   0.082990 0.479280 0.429170 -0.581115
O11   O     O_R   0.917010 0.520800 0.406580 -0.589910
O12   O     O_2   0.154505 0.671396 0.143578 -0.547452
H22   H     H_    0.094188 0.888940 0.425752 0.143088
H23   H     H_    0.909459 0.112355 0.563669 0.150415
C57   C     C_R   0.705425 0.198758 0.949486 0.184660
C58   C     C_R   0.608360 0.215614 0.912910 -0.099143
C59   C     C_R   0.510387 0.122893 0.889084 -0.154792
C60   C     C_R   0.508456 0.012983 0.901805 -0.119244
C61   C     C_R   0.604224 0.995484 0.938618 -0.136424
C62   C     C_R   0.702289 0.087918 0.962641 -0.124589
H24   H     H_    0.609026 0.300476 0.902744 0.106485
H25   H     H_    0.436089 0.136283 0.860650 0.124816
H26   H     H_    0.432660 0.941364 0.883242 0.142079
H27   H     H_    0.602401 0.910250 0.948584 0.133375
H28   H     H_    0.775947 0.073412 0.991160 0.128127
C63   C     C_R   0.566023 0.284711 0.631014 0.135347
C64   C     C_R   0.592490 0.191009 0.630380 -0.148976
C65   C     C_R   0.614777 0.126606 0.682974 -0.145501
C66   C     C_R   0.612546 0.156220 0.736501 -0.053747
C67   C     C_R   0.588564 0.250585 0.737478 -0.103584
C68   C     C_R   0.566122 0.315170 0.685013 -0.144888
H29   H     H_    0.594592 0.167411 0.589189 0.137016
H30   H     H_    0.633984 0.053887 0.682210 0.131973
H31   H     H_    0.629896 0.106394 0.777221 0.153989
H32   H     H_    0.587524 0.273870 0.778872 0.137165
H33   H     H_    0.548806 0.388770 0.686392 0.127356
C69   C     C_R   0.301417 0.189857 0.616479 0.111949
C70   C     C_R   0.301809 0.104074 0.589140 -0.117593
C71   C     C_R   0.272134 0.992602 0.619120 -0.134249
C72   C     C_R   0.240599 0.965606 0.676216 -0.113641
C73   C     C_R   0.237991 0.049869 0.703339 -0.127154
C74   C     C_R   0.267410 0.161445 0.673510 -0.164652
H34   H     H_    0.325762 0.123815 0.544844 0.137271
H35   H     H_    0.273510 0.927101 0.598117 0.136608
H36   H     H_    0.217725 0.879276 0.699360 0.142381
H37   H     H_    0.213058 0.028682 0.747474 0.132659
H38   H     H_    0.265205 0.226041 0.695012 0.113803
C75   C     C_R   0.689954 0.800160 0.370681 0.110576
C76   C     C_R   0.802545 0.898068 0.373462 -0.151717
C77   C     C_R   0.817627 0.000215 0.335801 -0.123403
C78   C     C_R   0.720842 0.005771 0.294991 -0.094882
C79   C     C_R   0.608760 0.909139 0.291742 -0.123259
C80   C     C_R   0.593104 0.806800 0.329363 -0.140570
H39   H     H_    0.878064 0.896246 0.405476 0.114154
H40   H     H_    0.904265 0.075293 0.338468 0.134250
H41   H     H_    0.732671 0.084978 0.265923 0.163656
H42   H     H_    0.533867 0.913516 0.260054 0.147415
H43   H     H_    0.505704 0.732698 0.325915 0.127551
C81   C     C_R   0.861144 0.611483 0.761557 0.122743
C82   C     C_R   0.897807 0.729598 0.741222 -0.124391
C83   C     C_R   0.837718 0.788612 0.755044 -0.142097
C84   C     C_R   0.740397 0.730191 0.789017 -0.098475
C85   C     C_R   0.702773 0.612578 0.809048 -0.145400
C86   C     C_R   0.762544 0.553249 0.795267 -0.164463
H44   H     H_    0.973349 0.776055 0.715009 0.126312
H45   H     H_    0.866612 0.879637 0.739402 0.125730
H46   H     H_    0.693901 0.775963 0.799655 0.125008
H47   H     H_    0.626892 0.567208 0.835044 0.127632
H48   H     H_    0.730874 0.461905 0.810259 0.138641

loop_
_geom_bond_atom_site_label_1
_geom_bond_atom_site_label_2
_ccdc_geom_bond_type
C55   C56   A    
C4    C9    A    
C43   H14   S    
C41   C42   A    
C19   C20   A    
C34   O10   A    
C8    C56   A    
C84   C85   A    
Cu1   Cu2   S    
C79   C80   A    
C53   C54   A    
C1    O1    A    
C59   H25   S    
C29   C30   A    
Cu1   O6    S    
C18   C24   A    
C5    C6    A    
C22   C24   A    
C12   O7    A    
C28   C29   A    
C65   C66   A    
C67   C68   A    
C31   C36   A    
C30   C31   A    
C9    O3    S    
C46   N4    A    
C16   C17   A    
C15   C16   A    
Cu1   N3    S    
C18   C19   A    
C23   C26   S    
C71   H35   S    
C82   C83   A    
C64   C65   A    
C52   H11   S    
C74   H38   S    
C24   N1    S    
C11   C17   A    
C47   C48   A    
C45   C56   A    
C27   C39   A    
C76   C77   A    
C37   H7    S    
C65   H30   S    
C51   H12   S    
C17   N2    S    
C63   C64   A    
C21   H3    S    
C68   H33   S    
C44   C47   A    
C78   C79   A    
C41   H13   S    
C20   C34   S    
C1    O5    A    
C58   H24   S    
C77   H40   S    
Cu1   O10   S    
C13   C14   A    
C79   H42   S    
C66   C67   A    
C44   C46   A    
C7    H16   S    
C82   H44   S    
C10   O4    S    
C61   C62   A    
C60   C61   A    
C34   O11   A    
C12   O6    A    
C72   C73   A    
C28   H9    S    
C75   C80   A    
C2    C54   A    
C50   H15   S    
C78   H41   S    
C2    H1    S    
C18   H21   S    
C47   C51   A    
C76   H39   S    
C40   C52   A    
C8    H17   S    
C67   H32   S    
C35   C36   A    
C43   C44   A    
C80   H43   S    
C25   C38   A    
C22   H4    S    
C58   C59   A    
C14   C15   A    
C13   H18   S    
C29   H8    S    
C53   N1    A    
C25   C33   A    
Cu1   O1    S    
C61   H27   S    
C32   C37   A    
C52   N3    A    
Cu2   O7    S    
C51   N3    A    
C70   C71   A    
C42   C75   S    
C63   C68   A    
C48   C49   A    
C40   C69   S    
C12   C14   S    
C49   C50   A    
C77   C78   A    
C23   O8    A    
C42   C43   A    
C3    C4    A    
C45   O12   S    
C69   C70   A    
C49   C63   S    
C85   C86   A    
C60   H26   S    
C40   C48   A    
C54   C55   A    
C27   H23   S    
Cu1   O8    S    
C83   H45   S    
C81   C82   A    
C81   C86   A    
C5    C55   A    
C26   C38   A    
C84   H46   S    
C83   C84   A    
Cu2   O5    S    
C6    C10   A    
C53   O2    S    
C36   H10   S    
C26   C37   A    
C6    C7    A    
C19   H2    S    
C46   C50   A    
C10   N2    A    
C66   H31   S    
C32   C33   A    
C86   H48   S    
Cu2   O11   S    
C70   H34   S    
Cu2   N4    S    
C30   C32   A    
C11   C13   A    
C3    C57   S    
C72   H36   S    
C15   H19   S    
C59   C60   A    
C33   C35   A    
C31   C39   A    
C73   H37   S    
C2    C3    A    
C45   N1    A    
C16   H20   S    
C69   C74   A    
C75   C76   A    
C11   C81   S    
C7    C8    A    
C1    C39   S    
C85   H47   S    
C4    C5    A    
C20   C21   A    
C57   C58   A    
C38   H22   S    
C27   C28   A    
C23   O9    A    
C62   H28   S    
C35   H5    S    
C71   C72   A    
C21   C22   A    
Cu2   O9    S    
C64   H29   S    
C25   H6    S    
C57   C62   A    
C9    N2    A    
C73   C74   A    
C41   N4    A    
