data_mof_unit_3805.cif
_audit_creation_date              2012-12-10T17:43:24-0500
_audit_creation_method            fapswitch 2.2
_symmetry_space_group_name_H-M    P1
_symmetry_Int_Tables_number       1
_space_group_crystal_system       triclinic
_cell_length_a                    15.010511
_cell_length_b                    13.709062
_cell_length_c                    10.676713
_cell_angle_alpha                 90.456178
_cell_angle_beta                  88.715365
_cell_angle_gamma                 90.091392
_cell_volume                      2196.43024167

loop_
_atom_site_label
_atom_site_type_symbol
_atom_type_description
_atom_site_fract_x
_atom_site_fract_y
_atom_site_fract_z
_atom_type_partial_charge
C1    C     C_R   0.328784 0.499896 0.500705 0.866953
C2    C     C_R   0.671082 0.500016 0.497810 0.857388
C3    C     C_R   0.952930 0.503546 0.497258 0.015921
C4    C     C_R   0.046512 0.503694 0.499106 0.015443
C5    C     C_R   0.908904 0.503611 0.381447 0.035669
C6    C     C_R   0.090374 0.498111 0.614643 0.034170
C7    C     C_R   0.947449 0.500650 0.725544 -0.199193
C8    C     C_R   0.052102 0.511933 0.271235 -0.197780
C9    C     C_R   0.040112 0.498184 0.727243 -0.187924
C10   C     C_R   0.959305 0.509474 0.269197 -0.196399
C11   C     C_R   0.450251 0.793832 0.588008 0.047116
C12   C     C_R   0.549539 0.206198 0.411630 0.043063
C13   C     C_R   0.549709 0.792898 0.411825 0.029713
C14   C     C_R   0.450907 0.206910 0.588612 0.025742
C15   C     C_R   0.550637 0.895922 0.409361 -0.007847
C16   C     C_R   0.449854 0.103951 0.590787 -0.003221
C17   C     C_R   0.449484 0.896857 0.590489 -0.003020
C18   C     C_R   0.550555 0.103122 0.409247 0.001727
C19   C     C_R   0.500089 0.948162 0.499924 0.085653
C20   C     C_R   0.500146 0.051762 0.499947 0.085442
C21   C     C_R   0.600667 0.947756 0.318898 -0.183153
C22   C     C_R   0.399926 0.052153 0.681341 -0.195013
C23   C     C_R   0.399599 0.949596 0.681067 -0.166024
C24   C     C_R   0.600514 0.050359 0.318739 -0.176515
C25   C     C_R   0.501599 0.499529 0.259439 0.801971
C26   C     C_R   0.500340 0.500580 0.740621 0.813378
C27   C     C_3   0.434012 0.551702 0.045562 -0.012190
C28   C     C_3   0.571388 0.449126 0.954283 -0.020929
C29   C     C_3   0.509476 0.592495 0.962044 0.000291
C30   C     C_3   0.495969 0.408230 0.037962 -0.005259
C31   C     C_3   0.425538 0.460917 0.960065 -0.263769
C32   C     C_3   0.580001 0.539930 0.040481 -0.273937
C33   C     C_3   0.501839 0.502096 0.876932 -0.074745
C34   C     C_3   0.503140 0.498565 0.123226 -0.086939
C35   C     C_R   0.815519 0.496585 0.380805 0.379453
C36   C     C_R   0.183590 0.491183 0.614840 0.378331
C37   C     C_R   0.767385 0.499904 0.495571 -0.157187
C38   C     C_R   0.232258 0.499732 0.501363 -0.158686
C39   C     C_R   0.810898 0.502513 0.609507 -0.293042
C40   C     C_R   0.188918 0.507822 0.387613 -0.300507
C41   C     C_R   0.903528 0.502109 0.611352 0.121908
C42   C     C_R   0.096096 0.507825 0.385328 0.122430
Cu1   Cu    Cu3+1 0.500000 0.597420 0.500000 0.974935
Cu2   Cu    Cu3+1 0.500000 0.402580 0.500000 0.948603
H1    H     H_    0.361902 0.429432 0.929719 0.161924
H2    H     H_    0.643025 0.571651 0.075172 0.175632
H3    H     H_    0.772280 0.503817 0.696632 0.163086
H4    H     H_    0.227729 0.512194 0.300943 0.165072
H5    H     H_    0.910072 0.500340 0.813606 0.146700
H6    H     H_    0.089522 0.515889 0.183401 0.150204
H7    H     H_    0.072143 0.497018 0.817049 0.177162
H8    H     H_    0.927273 0.512162 0.179427 0.177941
H9    H     H_    0.411210 0.753384 0.656506 0.139652
H10   H     H_    0.588298 0.246647 0.342854 0.120265
H11   H     H_    0.588667 0.751737 0.343233 0.135729
H12   H     H_    0.412645 0.247718 0.657938 0.113468
H13   H     H_    0.639836 0.908968 0.248157 0.147662
H14   H     H_    0.361177 0.090905 0.752436 0.145215
H15   H     H_    0.360452 0.911552 0.751841 0.152714
H16   H     H_    0.639366 0.088384 0.247719 0.147233
N1    N     N_R   0.500000 0.743810 0.500000 -0.192321
N2    N     N_R   0.500000 0.256190 0.500000 -0.186820
O1    O     O_R   0.370260 0.582280 0.500030 -0.569051
O2    O     O_R   0.629740 0.417720 0.499970 -0.595254
O3    O     O_R   0.629740 0.582280 0.499970 -0.573796
O4    O     O_R   0.370260 0.417720 0.500030 -0.597584
O5    O     O_R   0.499980 0.582260 0.316850 -0.580582
O6    O     O_R   0.500020 0.417740 0.683150 -0.589769
O7    O     O_R   0.500020 0.582260 0.683150 -0.586855
O8    O     O_R   0.499980 0.417740 0.316850 -0.596273
C43   C     C_1   0.358205 0.608388 0.095893 0.233511
N3    N     N_1   0.298562 0.653260 0.135401 -0.284921
C44   C     C_1   0.645982 0.393130 0.899177 0.214389
N4    N     N_1   0.704426 0.349008 0.854784 -0.295548
C45   C     C_1   0.517025 0.694394 0.921741 0.259062
N5    N     N_1   0.523031 0.774734 0.890218 -0.290147
C46   C     C_1   0.488506 0.306144 0.077467 0.232986
N6    N     N_1   0.482574 0.225631 0.108275 -0.295451
O9    O     O_3   0.771375 0.490127 0.268296 -0.638896
C47   C     C_3   0.743855 0.392457 0.246593 0.037036
H17   H     H_    0.676023 0.394670 0.207412 0.167366
H18   H     H_    0.738994 0.346882 0.332684 0.142653
C48   C     C_3   0.806516 0.342371 0.151357 -0.364119
H19   H     H_    0.810366 0.386018 0.064181 0.236003
H20   H     H_    0.874336 0.337462 0.190216 0.217160
C49   C     C_3   0.774414 0.239376 0.120788 -0.873006
H21   H     H_    0.776141 0.193276 0.205770 0.241771
H22   H     H_    0.818763 0.206397 0.047453 0.267327
H23   H     H_    0.705311 0.240890 0.085773 0.265102
O10   O     O_3   0.226989 0.475122 0.725742 -0.630992
C50   C     C_3   0.244458 0.373983 0.737977 0.043492
H24   H     H_    0.317476 0.365114 0.745174 0.165501
H25   H     H_    0.224048 0.327593 0.656762 0.132717
C51   C     C_3   0.198209 0.335273 0.856852 -0.369875
H26   H     H_    0.209391 0.386031 0.936643 0.227008
H27   H     H_    0.125337 0.330414 0.841991 0.217073
C52   C     C_3   0.232689 0.234341 0.890182 -0.906823
H28   H     H_    0.305339 0.237285 0.907726 0.256306
H29   H     H_    0.219970 0.181878 0.812793 0.253117
H30   H     H_    0.197720 0.208269 0.976353 0.266826

loop_
_geom_bond_atom_site_label_1
_geom_bond_atom_site_label_2
_ccdc_geom_bond_type
C14   H12   S    
C27   C29   S    
C44   N4    T    
Cu2   O4    S    
C19   C20   A    
C25   O5    A    
C45   N5    T    
C2    O3    A    
C10   H8    S    
C6    C9    A    
C52   H28   S    
Cu1   O1    S    
C39   C41   A    
C46   N6    T    
Cu2   O2    S    
C23   H15   S    
C17   C23   A    
C18   C24   A    
C16   C20   A    
C35   C37   A    
C8    C42   A    
C29   C32   S    
C30   C31   S    
C49   H22   S    
C14   N2    A    
C29   C33   S    
C40   H4    S    
C30   C46   S    
C11   C17   A    
C9    H7    S    
C31   C33   S    
Cu2   O8    S    
C11   H9    S    
Cu1   O3    S    
C25   C34   S    
C40   C42   A    
Cu1   O7    S    
C47   C48   S    
C28   C44   S    
C1    O1    A    
C52   H29   S    
C2    O2    A    
C27   C34   S    
C30   C34   S    
C27   C31   S    
C28   C32   S    
C7    H5    S    
C47   H18   S    
C50   H24   S    
C49   H21   S    
C51   C52   S    
Cu2   N2    S    
C32   C34   S    
C15   C19   A    
Cu1   Cu2   S    
C21   H13   S    
C50   H25   S    
C12   N2    A    
C26   C33   S    
C48   H19   S    
C15   C21   A    
C24   H16   S    
C1    O4    A    
C51   H27   S    
C1    C38   S    
C4    C6    A    
C48   H20   S    
C28   C33   S    
C13   C15   A    
C14   C16   A    
Cu2   O6    S    
C3    C4    A    
C8    H6    S    
C52   H30   S    
C27   C43   S    
Cu1   N1    S    
C39   H3    S    
C36   O10   S    
C7    C9    A    
C3    C41   A    
C16   C22   A    
C32   H2    S    
C8    C10   A    
C47   H17   S    
C3    C5    A    
C49   H23   S    
C22   H14   S    
C29   C45   S    
C26   O6    A    
C28   C30   S    
C5    C10   A    
C37   C39   A    
C50   C51   S    
C38   C40   A    
C2    C37   S    
O10   C50   S    
C4    C42   A    
C5    C35   A    
C35   O9    S    
C17   C19   A    
C6    C36   A    
C18   C20   A    
C7    C41   A    
C11   N1    A    
C51   H26   S    
C36   C38   A    
O9    C47   S    
C43   N3    T    
C48   C49   S    
C13   N1    A    
Cu1   O5    S    
C31   H1    S    
C21   C24   A    
C12   C18   A    
C26   O7    A    
C22   C23   A    
C25   O8    A    
C12   H10   S    
C13   H11   S    
