data_mof_unit_570.cif
_audit_creation_date              2012-12-10T17:31:59-0500
_audit_creation_method            fapswitch 2.2
_symmetry_space_group_name_H-M    P1
_symmetry_Int_Tables_number       1
_space_group_crystal_system       triclinic
_cell_length_a                    11.983286
_cell_length_b                    11.553106
_cell_length_c                    12.952134
_cell_angle_alpha                 90.235891
_cell_angle_beta                  91.156398
_cell_angle_gamma                 86.246127
_cell_volume                      1788.928838

loop_
_atom_site_label
_atom_site_type_symbol
_atom_type_description
_atom_site_fract_x
_atom_site_fract_y
_atom_site_fract_z
_atom_type_partial_charge
C1    C     C_R   0.480007 0.506289 0.299816 0.929390
C2    C     C_R   0.973684 0.555590 0.507137 0.100202
C3    C     C_R   0.499852 0.281752 0.499934 0.914750
C4    C     C_R   0.500139 0.718239 0.499890 0.878339
C5    C     C_1   0.499630 0.161385 0.499744 -0.198600
C6    C     C_1   0.500362 0.838570 0.499640 -0.208280
C7    C     C_1   0.499817 0.059270 0.499589 -0.009861
C8    C     C_1   0.500198 0.940672 0.499532 -0.014202
C9    C     C_R   0.526802 0.529202 0.811048 -0.246636
C10   C     C_R   0.469063 0.527132 0.190302 -0.241006
C11   C     C_R   0.345409 0.561238 0.042941 0.552230
C12   C     C_R   0.519433 0.505413 0.700659 0.928730
C13   C     C_R   0.645666 0.546984 0.961989 0.518306
C14   C     C_R   0.362722 0.530365 0.145680 -0.415763
C15   C     C_R   0.632669 0.536091 0.856202 -0.395828
C16   C     C_R   0.561367 0.553229 0.131912 0.424199
C17   C     C_R   0.429225 0.548028 0.870725 0.438733
C18   C     C_R   0.549959 0.554640 0.024236 -0.190004
C19   C     C_R   0.440362 0.557245 0.978467 -0.158633
C20   C     C_3   0.273486 0.641418 0.795872 0.196747
C21   C     C_3   0.150086 0.625316 0.774360 -0.762080
C22   C     C_3   0.671906 0.688032 0.198939 0.187182
C23   C     C_R   0.040345 0.648525 0.526653 -0.346585
C24   C     C_3   0.790461 0.708767 0.235139 -0.798575
C25   C     C_3   0.176136 0.664706 0.073323 0.069530
C26   C     C_3   0.082162 0.734473 0.016220 -0.868950
C27   C     C_3   0.799044 0.431585 0.010202 0.151620
C28   C     C_3   0.909628 0.429138 0.070222 -0.796398
C29   C     C_R   0.959752 0.353130 0.465118 -0.339542
C30   C     C_R   0.157214 0.629679 0.530154 -0.005381
C31   C     C_R   0.842894 0.372406 0.460013 0.040352
C32   C     C_R   0.144485 0.429139 0.497683 -0.050681
C33   C     C_R   0.855492 0.570426 0.503637 -0.078949
C34   C     C_R   0.026339 0.444780 0.490256 0.092834
H1    H     H_    0.707094 0.528288 0.809857 0.200535
H2    H     H_    0.281019 0.710153 0.855689 0.129549
H3    H     H_    0.108734 0.598377 0.844902 0.285998
H4    H     H_    0.107401 0.707148 0.744959 0.182445
H5    H     H_    0.140940 0.554149 0.717996 0.261030
H6    H     H_    0.613174 0.717835 0.260594 0.114418
H7    H     H_    0.653336 0.741023 0.128094 0.124500
H8    H     H_    0.850200 0.685798 0.172698 0.266529
H9    H     H_    0.796380 0.801589 0.255727 0.190059
H10   H     H_    0.813378 0.654830 0.303891 0.254912
H11   H     H_    0.230435 0.728471 0.110628 0.134498
H12   H     H_    0.291403 0.513806 0.192021 0.191000
H13   H     H_    0.136977 0.613987 0.133995 0.157204
H14   H     H_    0.019131 0.676474 0.985511 0.262625
H15   H     H_    0.039536 0.796636 0.070518 0.217909
H16   H     H_    0.116128 0.784430 0.952369 0.251159
H17   H     H_    0.815298 0.395516 0.931699 0.122233
H18   H     H_    0.742491 0.375117 0.051369 0.145975
H19   H     H_    0.896262 0.464431 0.149226 0.273578
H20   H     H_    0.945940 0.338452 0.076353 0.200580
H21   H     H_    0.969526 0.481676 0.029889 0.255256
H22   H     H_    0.814213 0.654327 0.520355 0.134738
H23   H     H_    0.185759 0.344695 0.483196 0.133286
H24   H     H_    0.792785 0.300394 0.441875 0.139986
H25   H     H_    0.207088 0.702981 0.543293 0.144227
H26   H     H_    0.002703 0.735308 0.538230 0.148229
H27   H     H_    0.997487 0.267063 0.450227 0.144847
H28   H     H_    0.311318 0.672373 0.724351 0.124949
N1    N     N_R   0.792200 0.479100 0.480660 -0.095518
N2    N     N_R   0.207800 0.520900 0.519340 -0.097042
O1    O     O_R   0.578300 0.494420 0.341180 -0.569919
O2    O     O_3   0.663908 0.568410 0.179435 -0.557143
O3    O     O_3   0.237006 0.588180 0.004989 -0.585338
O4    O     O_3   0.752912 0.547198 0.003876 -0.582703
O5    O     O_R   0.421700 0.505580 0.658820 -0.579959
O6    O     O_R   0.390690 0.507830 0.353590 -0.630606
O7    O     O_R   0.609310 0.492170 0.646410 -0.623720
O8    O     O_R   0.593810 0.327740 0.493800 -0.631125
O9    O     O_R   0.406190 0.672260 0.506200 -0.643853
O10   O     O_R   0.406190 0.341150 0.506220 -0.617087
O11   O     O_R   0.593810 0.658850 0.493780 -0.624635
O12   O     O_3   0.324690 0.533111 0.827183 -0.552362
Zn1   Zn    Zn3+2 0.625270 0.491050 0.491710 0.955375
Zn2   Zn    Zn3+2 0.374730 0.508950 0.508290 0.946192

loop_
_geom_bond_atom_site_label_1
_geom_bond_atom_site_label_2
_ccdc_geom_bond_type
C12   O5    A    
C30   N2    A    
O6    Zn2   S    
C24   H8    S    
C25   O3    S    
C7    C8    S    
C14   H12   S    
C11   C19   A    
C13   C18   A    
C31   H24   S    
C26   H16   S    
C11   C14   A    
C22   H7    S    
C20   O12   S    
C18   C19   A    
C3    O10   A    
C22   O2    S    
C4    O11   A    
C27   O4    S    
C21   H4    S    
C11   O3    S    
C17   O12   S    
C1    O1    A    
O9    Zn2   S    
C25   H13   S    
C26   H14   S    
C2    C34   A    
C33   H22   S    
O5    Zn2   S    
C32   H23   S    
C15   H1    S    
C28   H21   S    
C27   H17   S    
C23   H26   S    
C29   H27   S    
O1    Zn1   S    
C23   C30   A    
C31   N1    A    
C32   N2    A    
C4    C6    S    
C10   C14   A    
C26   H15   S    
C5    C7    T    
C28   H20   S    
C6    C8    T    
C25   C26   S    
C29   C34   A    
C32   C34   A    
O8    Zn1   S    
C21   H5    S    
C33   N1    A    
C22   H6    S    
C30   H25   S    
C2    C23   A    
O11   Zn1   S    
C4    O9    A    
C2    C33   A    
C9    C17   A    
C12   O7    A    
C13   C15   A    
C24   H10   S    
C22   C24   S    
C16   O2    S    
C25   H11   S    
O7    Zn1   S    
C27   H18   S    
N1    Zn1   S    
N2    Zn2   S    
C1    C10   S    
C3    C5    S    
C28   H19   S    
C1    O6    A    
C3    O8    A    
C9    C15   A    
C29   C31   A    
C10   C16   A    
C17   C19   A    
C20   H28   S    
C9    C12   S    
C20   H2    S    
C21   H3    S    
C20   C21   S    
C16   C18   A    
O10   Zn2   S    
C27   C28   S    
C24   H9    S    
C13   O4    S    
