data_mof_unit_3744.cif
_audit_creation_date              2012-12-10T17:38:13-0500
_audit_creation_method            fapswitch 2.2
_symmetry_space_group_name_H-M    P1
_symmetry_Int_Tables_number       1
_space_group_crystal_system       triclinic
_cell_length_a                    12.151851
_cell_length_b                    12.801862
_cell_length_c                    19.167202
_cell_angle_alpha                 93.652918
_cell_angle_beta                  87.951943
_cell_angle_gamma                 94.870554
_cell_volume                      2963.588511

loop_
_atom_site_label
_atom_site_type_symbol
_atom_type_description
_atom_site_fract_x
_atom_site_fract_y
_atom_site_fract_z
_atom_type_partial_charge
C1    C     C_R   0.522921 0.700147 0.499430 0.896616
C2    C     C_R   0.477077 0.299853 0.500561 0.896892
C3    C     C_R   0.461959 0.187957 0.502122 -0.092253
C4    C     C_R   0.538025 0.812043 0.497846 -0.092753
C5    C     C_R   0.631867 0.967083 0.450551 0.160783
C6    C     C_R   0.368083 0.032907 0.549381 0.160475
C7    C     C_R   0.625808 0.859416 0.459627 -0.127197
C8    C     C_R   0.374143 0.140575 0.540308 -0.127256
C9    C     C_R   0.456676 0.869549 0.529842 -0.275113
C10   C     C_R   0.543306 0.130454 0.470123 -0.275143
C11   C     C_R   0.455803 0.975472 0.520169 0.092728
C12   C     C_R   0.544162 0.024523 0.479778 0.092950
C13   C     C_R   0.938682 0.369598 0.466836 -0.180726
C14   C     C_R   0.061329 0.630434 0.533099 -0.180084
C15   C     C_R   0.828040 0.387585 0.463018 -0.086591
C16   C     C_R   0.171964 0.612432 0.536951 -0.085819
C17   C     C_R   0.865493 0.558665 0.518386 0.519449
C18   C     C_R   0.134512 0.441355 0.481586 0.517392
C19   C     C_R   0.981413 0.548127 0.512819 -0.073561
C20   C     C_R   0.018590 0.451894 0.487148 -0.074276
C21   C     C_R   0.501313 0.499117 0.634126 0.906417
C22   C     C_R   0.498654 0.500653 0.365863 0.904132
C23   C     C_R   0.405958 0.486412 0.749508 -0.180400
C24   C     C_R   0.593689 0.510572 0.250251 -0.181158
C25   C     C_R   0.409041 0.481989 0.821251 -0.185010
C26   C     C_R   0.590414 0.512820 0.178393 -0.179460
C27   C     C_R   0.510515 0.486635 0.854040 -0.066083
C28   C     C_R   0.488862 0.507080 0.145597 -0.050504
C29   C     C_R   0.610657 0.492633 0.814278 0.446170
C30   C     C_R   0.388755 0.501862 0.185443 0.409362
C31   C     C_R   0.606466 0.497496 0.742111 -0.203454
C32   C     C_R   0.393198 0.499442 0.257778 -0.227671
C33   C     C_R   0.504596 0.495027 0.709645 -0.127986
C34   C     C_R   0.495164 0.503138 0.290254 -0.107619
C35   C     C_R   0.491662 0.503613 0.069991 0.344544
C36   C     C_R   0.507808 0.489655 0.929621 0.350644
H1    H     H_    0.326356 0.483410 0.725442 0.183091
H2    H     H_    0.673360 0.514371 0.274303 0.184117
H3    H     H_    0.959031 0.290020 0.454490 0.225903
H4    H     H_    0.040997 0.710030 0.545376 0.223923
H5    H     H_    0.331878 0.477409 0.851507 0.189758
H6    H     H_    0.667535 0.516843 0.148082 0.192436
H7    H     H_    0.682884 0.503229 0.711260 0.239622
H8    H     H_    0.316979 0.494629 0.288810 0.214841
H9    H     H_    0.607648 0.170811 0.439098 0.151774
H10   H     H_    0.392348 0.829199 0.560882 0.151829
H11   H     H_    0.313611 0.189442 0.564680 0.189166
H12   H     H_    0.686316 0.810543 0.435235 0.189498
H13   H     H_    0.230406 0.675440 0.555658 0.157333
H14   H     H_    0.769598 0.324584 0.444298 0.157204
N1    N     N_R   0.569717 0.565316 0.966514 -0.076841
N2    N     N_R   0.429765 0.427924 0.033100 -0.077392
N3    N     N_R   0.562493 0.571637 0.035814 -0.132835
N4    N     N_R   0.436964 0.421615 0.963786 -0.133694
N5    N     N_R   0.207800 0.519350 0.512860 -0.157105
N6    N     N_R   0.792200 0.480650 0.487140 -0.157014
O1    O     O_R   0.421690 0.658830 0.503430 -0.643720
O2    O     O_R   0.578310 0.341170 0.496570 -0.643852
O3    O     O_R   0.609320 0.646410 0.495180 -0.549729
O4    O     O_R   0.390680 0.353590 0.504820 -0.548555
O5    O     O_R   0.406160 0.506220 0.605990 -0.635433
O6    O     O_R   0.593840 0.493780 0.394010 -0.636461
O7    O     O_R   0.593780 0.493810 0.597740 -0.555437
O8    O     O_R   0.406220 0.506190 0.402260 -0.555522
Zn1   Zn    Zn3+2 0.374720 0.508290 0.505510 1.018728
Zn2   Zn    Zn3+2 0.625280 0.491710 0.494490 1.020382
S1    S     S_3+6 0.741550 0.490589 0.851798 0.055678
O9    O     O_2   0.776881 0.598610 0.882616 -0.248360
O10   O     O_2   0.734840 0.413915 0.908337 -0.273217
O11   O     O_3   0.835583 0.455115 0.790175 -0.541586
H15   H     H_    0.906444 0.459851 0.814630 0.398454
S2    S     S_3+6 0.257744 0.502308 0.147706 0.068739
O12   O     O_2   0.263621 0.579268 0.091392 -0.233783
O13   O     O_2   0.223870 0.394480 0.115927 -0.262403
O14   O     O_3   0.162032 0.536572 0.208648 -0.514901
H16   H     H_    0.135217 0.470478 0.230246 0.377859
C37   C     C_3   0.728747 0.021083 0.409665 -0.439099
C38   C     C_3   0.820656 0.952311 0.383628 -0.768979
H17   H     H_    0.857243 0.917637 0.428186 0.288522
H18   H     H_    0.788511 0.889345 0.345299 0.253715
H19   H     H_    0.887092 0.001365 0.356924 0.268929
H20   H     H_    0.696388 0.054870 0.363270 0.217548
H21   H     H_    0.767791 0.086393 0.443759 0.216637
C39   C     C_3   0.271185 0.978901 0.590248 -0.437120
C40   C     C_3   0.179249 0.047663 0.616250 -0.772802
H22   H     H_    0.211356 0.110635 0.654587 0.252510
H23   H     H_    0.142695 0.082330 0.571677 0.288821
H24   H     H_    0.112797 0.998603 0.642936 0.269022
H25   H     H_    0.232174 0.913578 0.556149 0.216658
H26   H     H_    0.303518 0.945131 0.636657 0.217373
S3    S     S_3+6 0.176435 0.329370 0.427705 0.018068
O15   O     O_2   0.164611 0.235913 0.471799 -0.358097
O16   O     O_2   0.099304 0.308829 0.367772 -0.323695
O17   O     O_3   0.302177 0.335817 0.389376 -0.530143
H27   H     H_    0.310052 0.264793 0.367021 0.374495
S4    S     S_3+6 0.823545 0.670713 0.572189 0.029838
O18   O     O_2   0.900764 0.691544 0.632054 -0.299057
O19   O     O_2   0.835116 0.764048 0.527983 -0.363377
O20   O     O_3   0.697879 0.664136 0.610631 -0.525155
H28   H     H_    0.689632 0.735370 0.632542 0.374461

loop_
_geom_bond_atom_site_label_1
_geom_bond_atom_site_label_2
_ccdc_geom_bond_type
C35   N3    A    
C19   C20   A    
C37   C38   S    
C31   H7    S    
C18   S3    S    
C24   C26   A    
C1    O3    A    
O3    Zn2   S    
C40   H22   S    
C2    O4    A    
C27   C29   A    
C37   H21   S    
S4    O20   S    
C18   C20   A    
C15   H14   S    
C29   S1    S    
O2    Zn2   S    
C28   C35   S    
C23   C33   A    
S4    O19   D    
C24   H2    S    
C31   C33   A    
O11   H15   S    
C21   O5    A    
O7    Zn2   S    
C9    H10   S    
C39   H26   S    
C4    C7    A    
N5    Zn1   S    
N2    N4    A    
C40   H23   S    
C22   C34   S    
C13   H3    S    
C6    C39   S    
O6    Zn2   S    
S1    O9    D    
C16   H13   S    
C5    C12   A    
S2    O13   D    
C3    C8    A    
C25   H5    S    
S3    O15   D    
C5    C7    A    
C38   H17   S    
C6    C8    A    
C23   H1    S    
C14   H4    S    
S3    O16   D    
C24   C34   A    
N1    N3    A    
C32   C34   A    
O14   H16   S    
C1    O1    A    
C22   O6    A    
O20   H28   S    
S4    O18   D    
C10   H9    S    
C32   H8    S    
C17   S4    S    
C39   C40   S    
C9    C11   A    
C17   N6    A    
C36   N1    A    
C10   C12   A    
C18   N5    A    
O4    Zn1   S    
C13   C15   A    
C14   C16   A    
C39   H25   S    
C5    C37   S    
C6    C11   A    
C26   H6    S    
C40   H24   S    
C13   C20   A    
C14   C19   A    
O1    Zn1   S    
S2    O12   D    
C30   S2    S    
C11   C12   A    
C2    O2    A    
C27   C36   S    
C25   C27   A    
C8    H11   S    
C26   C28   A    
C1    C4    S    
C7    H12   S    
S1    O11   S    
C28   C30   A    
C2    C3    S    
C16   N5    A    
C29   C31   A    
C3    C10   A    
O8    Zn1   S    
S3    O17   S    
C30   C32   A    
C38   H19   S    
S2    O14   S    
C37   H20   S    
N6    Zn2   S    
C17   C19   A    
C38   H18   S    
C23   C25   A    
O17   H27   S    
C15   N6    A    
C21   O7    A    
C36   N4    A    
C22   O8    A    
O5    Zn1   S    
C21   C33   S    
C35   N2    A    
S1    O10   D    
C4    C9    A    
