data_mof_unit_1667.cif
_audit_creation_date              2012-12-10T20:43:23-0500
_audit_creation_method            fapswitch 2.2
_symmetry_space_group_name_H-M    P1
_symmetry_Int_Tables_number       1
_space_group_crystal_system       triclinic
_cell_length_a                    15.783146
_cell_length_b                    10.796482
_cell_length_c                    9.899193
_cell_angle_alpha                 90.902096
_cell_angle_beta                  88.922481
_cell_angle_gamma                 90.700276
_cell_volume                      1686.21943729

loop_
_atom_site_label
_atom_site_type_symbol
_atom_type_description
_atom_site_fract_x
_atom_site_fract_y
_atom_site_fract_z
_atom_type_partial_charge
C1    C     C_R   0.504397 0.260600 0.498690 0.924511
C2    C     C_R   0.505161 0.934525 0.371077 0.332295
C3    C     C_R   0.512832 0.870991 0.494948 -0.263177
C4    C     C_R   0.339372 0.500991 0.500751 0.914915
C5    C     C_R   0.534988 0.939531 0.608943 -0.162800
C6    C     C_3   0.544441 0.929472 0.759892 0.243942
C7    C     C_3   0.536664 0.072866 0.760582 0.400442
C8    C     C_R   0.426505 0.507479 0.072803 -0.061539
C9    C     C_R   0.573848 0.511694 0.068873 0.498071
C10   C     C_R   0.573697 0.504440 0.925330 -0.238691
C11   C     C_R   0.426153 0.512438 0.932032 0.162251
C12   C     C_R   0.041049 0.576420 0.606893 -0.110780
C13   C     C_3   0.343790 0.441465 0.922885 0.791232
C14   C     C_3   0.348374 0.429010 0.079438 -0.460928
C15   C     C_R   0.502276 0.739703 0.499848 0.885246
C16   C     C_R   0.660691 0.500489 0.499067 0.844529
C17   C     C_R   0.954880 0.542547 0.624772 -0.089894
C18   C     C_R   0.913329 0.488201 0.512793 0.068419
C19   C     C_R   0.958400 0.445150 0.399572 -0.192922
C20   C     C_R   0.045644 0.454125 0.396700 -0.186396
C21   C     C_R   0.086716 0.519414 0.499270 0.052192
C22   C     C_2   0.078870 0.681806 0.686493 0.930452
C23   C     C_1   0.824181 0.489125 0.504316 0.005508
C24   C     C_3   0.686104 0.125413 0.744153 0.180280
C25   C     C_3   0.717540 0.246233 0.685141 -0.809201
C26   C     C_3   0.667742 0.659106 0.135132 0.103716
C27   C     C_3   0.759751 0.681363 0.172513 -0.831488
C28   C     C_3   0.200296 0.510337 0.932622 0.083639
C29   C     C_3   0.177261 0.628605 0.010816 -0.770578
C30   C     C_3   0.279413 0.267358 0.821189 0.128275
C31   C     C_3   0.297725 0.143446 0.752185 -0.825663
C32   C     C_2   0.363386 0.300202 0.129803 1.027079
C33   C     C_2   0.913061 0.546637 0.762477 0.922678
C34   C     C_1   0.176039 0.515271 0.498939 -0.001743
C35   C     C_3   0.598721 0.094168 0.179882 0.175261
C36   C     C_3   0.637700 0.211666 0.122031 -0.691942
C37   C     C_3   0.403059 0.873583 0.222853 0.170813
C38   C     C_3   0.390744 0.860294 0.071377 -0.810196
C39   C     C_3   0.660324 0.792413 0.738844 0.110262
C40   C     C_3   0.754301 0.787487 0.768906 -0.812251
C41   C     C_1   0.250929 0.508445 0.501001 -0.101356
C42   C     C_1   0.749283 0.494236 0.498659 -0.144472
C43   C     C_R   0.530282 0.063876 0.610044 -0.125976
C44   C     C_R   0.516122 0.129710 0.493793 -0.279008
C45   C     C_R   0.515851 0.063302 0.369732 0.373852
H1    H     H_    0.633325 0.505540 0.869994 0.179567
H2    H     H_    0.712626 0.321880 0.761965 0.295980
H3    H     H_    0.784669 0.237423 0.651090 0.213025
H4    H     H_    0.678690 0.267688 0.596771 0.233982
H5    H     H_    0.626601 0.706020 0.212012 0.203515
H6    H     H_    0.657868 0.702878 0.035533 0.137575
H7    H     H_    0.802413 0.633693 0.098555 0.267022
H8    H     H_    0.774329 0.782245 0.171924 0.211372
H9    H     H_    0.771353 0.645953 0.274863 0.257440
H10   H     H_    0.192114 0.429544 0.999941 0.084836
H11   H     H_    0.153765 0.496090 0.851073 0.185205
H12   H     H_    0.298964 0.477367 0.140111 0.159678
H13   H     H_    0.183459 0.710243 0.944681 0.284575
H14   H     H_    0.110828 0.621645 0.049145 0.237883
H15   H     H_    0.219521 0.643674 0.097873 0.216988
H16   H     H_    0.238841 0.320643 0.752852 0.159621
H17   H     H_    0.245025 0.248120 0.917799 0.108156
H18   H     H_    0.330170 0.081753 0.822837 0.243338
H19   H     H_    0.237309 0.098027 0.722105 0.215056
H20   H     H_    0.338114 0.157213 0.660405 0.252149
H21   H     H_    0.333132 0.172011 0.269085 0.329228
H22   H     H_    0.809040 0.511633 0.878696 0.340520
H23   H     H_    0.926081 0.402173 0.314906 0.157753
H24   H     H_    0.585415 0.028290 0.095284 0.210960
H25   H     H_    0.647087 0.051892 0.245595 0.082504
H26   H     H_    0.652160 0.278430 0.205152 0.255581
H27   H     H_    0.697316 0.189669 0.065864 0.197494
H28   H     H_    0.592834 0.254235 0.052038 0.294763
H29   H     H_    0.371181 0.960415 0.257188 0.119366
H30   H     H_    0.371298 0.794012 0.273688 0.148729
H31   H     H_    0.423542 0.776604 0.031624 0.248307
H32   H     H_    0.322158 0.851883 0.049479 0.210775
H33   H     H_    0.417103 0.943391 0.020075 0.256279
H34   H     H_    0.081061 0.412911 0.312859 0.157354
H35   H     H_    0.656755 0.799483 0.627477 0.140754
H36   H     H_    0.628746 0.705995 0.772683 0.185009
H37   H     H_    0.764208 0.762303 0.875517 0.259287
H38   H     H_    0.784893 0.718306 0.700826 0.244934
H39   H     H_    0.784912 0.878802 0.749739 0.244270
H40   H     H_    0.490495 0.881033 0.810702 0.081739
H41   H     H_    0.476551 0.104472 0.808550 0.116695
H42   H     H_    0.058800 0.838064 0.796823 0.336572
H43   H     H_    0.686544 0.054536 0.661669 0.158678
H44   H     H_    0.732173 0.095953 0.820382 0.169196
N1    N     N_R   0.499440 0.499140 0.142800 -0.121433
N2    N     N_R   0.499440 0.499180 0.857150 -0.119393
O1    O     O_R   0.500010 0.316790 0.614690 -0.566934
O2    O     O_R   0.026010 0.769999 0.748232 -0.782716
O3    O     O_3   0.606648 0.143583 0.811109 -0.586942
O4    O     O_3   0.649992 0.530348 0.132154 -0.604458
O5    O     O_3   0.282041 0.523256 0.871707 -0.614848
O6    O     O_3   0.356350 0.331810 0.843695 -0.584538
O7    O     O_2   0.415158 0.232784 0.073305 -0.579682
O8    O     O_R   0.317097 0.258613 0.242229 -0.823252
O9    O     O_2   0.954256 0.574120 0.862207 -0.628402
O10   O     O_R   0.828733 0.508265 0.780656 -0.840831
O11   O     O_3   0.521451 0.123648 0.247594 -0.556439
O12   O     O_R   0.500000 0.316760 0.385350 -0.556725
O13   O     O_3   0.490807 0.873204 0.249552 -0.611924
O14   O     O_3   0.624900 0.894948 0.808499 -0.619369
O15   O     O_R   0.378030 0.499990 0.614640 -0.553872
O16   O     O_R   0.378020 0.499950 0.385300 -0.623253
O17   O     O_R   0.500000 0.683240 0.614650 -0.643907
O18   O     O_R   0.499990 0.683210 0.385310 -0.594294
O19   O     O_R   0.621980 0.500050 0.614700 -0.635328
O20   O     O_R   0.621970 0.500010 0.385360 -0.575012
O21   O     O_2   0.155656 0.696880 0.690823 -0.636464
Zn1   Zn    Zn3+2 0.500010 0.500020 0.653130 1.000558
Zn2   Zn    Zn3+2 0.499990 0.499980 0.346870 1.006884

loop_
_geom_bond_atom_site_label_1
_geom_bond_atom_site_label_2
_ccdc_geom_bond_type
O17   Zn1   S    
C37   H29   S    
C40   H39   S    
C19   C20   A    
C35   O11   S    
C24   H44   S    
C28   H11   S    
C27   H9    S    
C16   O19   A    
C38   H31   S    
C27   H7    S    
C30   O6    S    
C26   C27   S    
C23   C42   T    
C33   O10   S    
C28   C29   S    
C26   H5    S    
C30   C31   S    
C7    H41   S    
C4    C41   S    
C12   C22   S    
C39   O14   S    
C18   C19   A    
C7    O3    S    
C15   O18   A    
C35   C36   S    
C35   H25   S    
C12   C17   A    
C10   H1    S    
C7    C43   S    
C15   O17   A    
O1    Zn1   S    
C9    O4    S    
C36   H26   S    
C37   H30   S    
C13   C14   S    
C13   O6    S    
C40   H38   S    
C34   C41   T    
C17   C33   S    
C28   H10   S    
C2    C45   A    
C4    O16   A    
C13   O5    S    
C18   C23   S    
C40   H37   S    
O12   Zn2   S    
C24   C25   S    
C39   H36   S    
C36   H28   S    
C39   C40   S    
C21   C34   S    
O15   Zn1   S    
C4    O15   A    
C12   C21   A    
N2    Zn1   S    
H21   O8    S    
C43   C44   A    
O16   Zn2   S    
C37   C38   S    
C24   O3    S    
C1    C44   S    
O19   Zn1   S    
C29   H15   S    
C2    O13   S    
C17   C18   A    
C19   H23   S    
C29   H13   S    
C24   H43   S    
C25   H3    S    
O18   Zn2   S    
C10   N2    A    
C1    O1    A    
C22   O21   D    
C30   H17   S    
C22   O2    S    
C8    N1    A    
C16   C42   S    
C3    C15   S    
C44   C45   A    
H22   O10   S    
C9    C10   A    
C26   O4    S    
C31   H20   S    
C14   H12   S    
C1    O12   A    
C25   H2    S    
C8    C14   S    
C20   H34   S    
C31   H19   S    
C14   C32   S    
C3    C5    A    
C9    N1    A    
C37   O13   S    
C27   H8    S    
C6    C7    S    
C38   H32   S    
C31   H18   S    
C38   H33   S    
C32   O8    S    
C28   O5    S    
C33   O9    D    
C39   H35   S    
C2    C3    A    
C26   H6    S    
C11   C13   S    
C5    C6    S    
C8    C11   A    
H42   O2    S    
C6    O14   S    
C32   O7    D    
O20   Zn2   S    
N1    Zn2   S    
C5    C43   A    
C25   H4    S    
C45   O11   S    
C11   N2    A    
C20   C21   A    
C35   H24   S    
C30   H16   S    
C6    H40   S    
C29   H14   S    
C36   H27   S    
C16   O20   A    
