data_mof_unit_3828.cif
_audit_creation_date              2012-12-10T18:41:18-0500
_audit_creation_method            fapswitch 2.2
_symmetry_space_group_name_H-M    P1
_symmetry_Int_Tables_number       1
_space_group_crystal_system       triclinic
_cell_length_a                    15.098099
_cell_length_b                    13.88356
_cell_length_c                    10.807801
_cell_angle_alpha                 89.979188
_cell_angle_beta                  90.771435
_cell_angle_gamma                 90.197758
_cell_volume                      2265.26218506

loop_
_atom_site_label
_atom_site_type_symbol
_atom_type_description
_atom_site_fract_x
_atom_site_fract_y
_atom_site_fract_z
_atom_type_partial_charge
C1    C     C_R   0.329521 0.499881 0.505074 0.839519
C2    C     C_R   0.669800 0.500021 0.502282 0.926032
C3    C     C_R   0.184056 0.412118 0.517179 0.413371
C4    C     C_R   0.809699 0.454223 0.404341 0.369415
C5    C     C_R   0.092072 0.412842 0.503915 -0.377889
C6    C     C_R   0.901988 0.455668 0.401692 -0.363246
C7    C     C_R   0.046697 0.499642 0.492459 -0.071648
C8    C     C_R   0.950289 0.498496 0.498091 -0.047249
C9    C     C_R   0.537304 0.106710 0.598184 0.356474
C10   C     C_R   0.462969 0.106655 0.400708 0.328007
C11   C     C_R   0.541344 0.208552 0.593877 0.416187
C12   C     C_R   0.458824 0.208864 0.405191 0.439564
C13   C     C_R   0.499899 0.054021 0.499559 -0.216790
C14   C     C_R   0.425748 0.891838 0.457636 -0.202697
C15   C     C_R   0.574370 0.892614 0.539995 -0.194901
C16   C     C_R   0.427624 0.790490 0.457149 0.047572
C17   C     C_R   0.572820 0.791308 0.540187 0.080688
C18   C     C_R   0.499888 0.945073 0.499366 0.273502
C19   C     C_R   0.500491 0.499980 0.262308 0.855779
C20   C     C_R   0.500615 0.499957 0.737732 0.776835
C21   C     C_R   0.505723 0.586412 0.063702 -0.068810
C22   C     C_R   0.506004 0.586384 0.936292 -0.021318
C23   C     C_R   0.506900 0.499825 0.129321 -0.020469
C24   C     C_R   0.507026 0.499788 0.870984 -0.105113
C25   C     C_R   0.518001 0.412993 0.064801 -0.222056
C26   C     C_R   0.517919 0.412986 0.936176 -0.213156
C27   C     C_3   0.441604 0.667690 0.928103 0.379312
C28   C     C_3   0.441436 0.668040 0.068486 0.376356
C29   C     C_R   0.092905 0.587428 0.491353 0.439894
C30   C     C_R   0.906943 0.538473 0.600816 0.425045
C31   C     C_R   0.184500 0.587930 0.510888 0.301725
C32   C     C_R   0.813847 0.541525 0.601252 0.269297
C33   C     C_R   0.231822 0.499820 0.511282 -0.321995
C34   C     C_R   0.766061 0.499572 0.502220 -0.263167
Cu1   Cu    Cu3+1 0.500000 0.596430 0.500000 0.982587
Cu2   Cu    Cu3+1 0.500000 0.403570 0.500000 0.994432
H1    H     H_    0.522607 0.344746 0.112864 0.191821
H2    H     H_    0.522182 0.344709 0.888582 0.215630
H3    H     H_    0.366219 0.928108 0.426191 0.176942
H4    H     H_    0.634183 0.929537 0.569808 0.155899
H5    H     H_    0.370646 0.751547 0.421918 0.186906
H6    H     H_    0.630758 0.752976 0.571200 0.120591
H7    H     H_    0.377333 0.647818 0.883478 0.091014
H8    H     H_    0.469694 0.734151 0.111789 0.135959
H9    H     H_    0.055699 0.345454 0.507462 0.174240
H10   H     H_    0.936067 0.424686 0.323646 0.177558
N1    N     N_R   0.500000 0.258690 0.500000 -0.297985
N2    N     N_R   0.500000 0.741330 0.500000 -0.178979
O1    O     O_R   0.371460 0.581430 0.500010 -0.563203
O2    O     O_R   0.628540 0.581430 0.499990 -0.601081
O3    O     O_R   0.371470 0.418560 0.500010 -0.536834
O4    O     O_R   0.628530 0.418560 0.499990 -0.577538
O5    O     O_R   0.499990 0.581450 0.319660 -0.574378
O6    O     O_R   0.500010 0.581450 0.680340 -0.574988
O7    O     O_R   0.500010 0.418580 0.319660 -0.553401
O8    O     O_R   0.499990 0.418580 0.680340 -0.550560
F1    F     F_    0.480258 0.749783 0.879814 -0.666166
F2    F     F_    0.360383 0.640093 0.115513 -0.689088
O9    O     O_3   0.048005 0.674025 0.483144 -0.587902
C35   C     C_3   0.026517 0.693723 0.357777 0.042854
H11   H     H_    0.966445 0.739713 0.356583 0.165355
H12   H     H_    0.009147 0.627924 0.303105 0.130954
C36   C     C_3   0.102068 0.748954 0.295933 -0.299525
H13   H     H_    0.118929 0.813886 0.351728 0.234626
H14   H     H_    0.161711 0.702537 0.291252 0.250744
C37   C     C_3   0.076482 0.779887 0.164919 -0.927746
H15   H     H_    0.062341 0.715718 0.106476 0.259730
H16   H     H_    0.132167 0.820803 0.123950 0.274366
H17   H     H_    0.017153 0.826944 0.166174 0.250847
O10   O     O_3   0.954506 0.579861 0.697762 -0.614704
C38   C     C_3   0.997678 0.508901 0.770425 0.057272
H18   H     H_    0.069189 0.508673 0.747342 0.147355
H19   H     H_    0.971189 0.434589 0.756021 0.130203
C39   C     C_3   0.988679 0.535612 0.906761 -0.324400
H20   H     H_    0.014997 0.609614 0.921946 0.222309
H21   H     H_    0.917479 0.534772 0.931716 0.232395
C40   C     C_3   0.039241 0.465790 0.990449 -0.948622
H22   H     H_    0.013074 0.391436 0.978514 0.257124
H23   H     H_    0.031344 0.487476 0.088600 0.257680
H24   H     H_    0.110901 0.466919 0.968318 0.262599
O11   O     O_3   0.226656 0.675827 0.527161 -0.597041
C41   C     C_3   0.245832 0.690264 0.654708 0.100471
H25   H     H_    0.306151 0.736093 0.661658 0.187110
H26   H     H_    0.261713 0.622306 0.705598 0.097248
C42   C     C_3   0.169681 0.742822 0.717711 -0.353552
H27   H     H_    0.155539 0.811090 0.667573 0.238268
H28   H     H_    0.109163 0.697248 0.714987 0.259679
C43   C     C_3   0.192330 0.765408 0.852571 -0.905541
H29   H     H_    0.203039 0.697703 0.905480 0.274441
H30   H     H_    0.136542 0.805205 0.894262 0.257558
H31   H     H_    0.252931 0.810834 0.859077 0.283363
O12   O     O_3   0.768631 0.569184 0.706326 -0.614674
C44   C     C_3   0.777858 0.669154 0.727290 0.077471
H32   H     H_    0.771526 0.711219 0.639764 0.120882
H33   H     H_    0.842912 0.685395 0.771605 0.200109
C45   C     C_3   0.705943 0.700759 0.816688 -0.350845
H34   H     H_    0.639743 0.685131 0.775471 0.269759
H35   H     H_    0.712362 0.659082 0.904209 0.228771
C46   C     C_3   0.712740 0.808018 0.846128 -0.824821
H36   H     H_    0.777388 0.824450 0.891792 0.233776
H37   H     H_    0.658795 0.828538 0.909670 0.304054
H38   H     H_    0.706260 0.851343 0.760166 0.253265
O13   O     O_3   0.226991 0.324930 0.532506 -0.599978
C47   C     C_3   0.215309 0.290175 0.654598 0.025836
H39   H     H_    0.211910 0.210320 0.649772 0.159921
H40   H     H_    0.152419 0.314108 0.698137 0.124972
C48   C     C_3   0.294628 0.318611 0.736736 -0.302582
H41   H     H_    0.356371 0.290246 0.695658 0.251419
H42   H     H_    0.299652 0.398372 0.742180 0.191468
C49   C     C_3   0.285808 0.278532 0.867370 -0.914172
H43   H     H_    0.226394 0.309009 0.912327 0.255131
H44   H     H_    0.345418 0.298477 0.922952 0.266965
H45   H     H_    0.280327 0.198749 0.865040 0.265793
O14   O     O_3   0.760912 0.414560 0.307465 -0.600267
C50   C     C_3   0.772062 0.313466 0.306602 0.071931
H46   H     H_    0.776135 0.282733 0.402001 0.121393
H47   H     H_    0.833537 0.294957 0.256365 0.142558
C51   C     C_3   0.692678 0.267558 0.239826 -0.327213
H48   H     H_    0.630781 0.290683 0.285302 0.250778
H49   H     H_    0.690588 0.292295 0.141987 0.220016
C52   C     C_3   0.697138 0.157828 0.243083 -0.904498
H50   H     H_    0.758376 0.132358 0.197819 0.255000
H51   H     H_    0.638847 0.127269 0.192910 0.291469
H52   H     H_    0.696154 0.131650 0.340243 0.238988
F3    F     F_    0.567551 0.060057 0.700745 -0.648597
F4    F     F_    0.434931 0.059317 0.297453 -0.670568
O15   O     O_3   0.580205 0.258113 0.691072 -0.560149
C53   C     C_3   0.673122 0.247581 0.687806 0.085940
H53   H     H_    0.699139 0.264861 0.594432 0.122232
H54   H     H_    0.692692 0.172888 0.712966 0.185151
C54   C     C_3   0.714900 0.316613 0.782048 -0.297092
H55   H     H_    0.694345 0.391548 0.760178 0.249934
H56   H     H_    0.691056 0.298390 0.876103 0.218227
C55   C     C_3   0.815665 0.310807 0.781664 -0.940947
H57   H     H_    0.837761 0.236686 0.804949 0.252666
H58   H     H_    0.843321 0.361172 0.852068 0.269776
H59   H     H_    0.841178 0.331084 0.689267 0.243321
O16   O     O_3   0.421107 0.260001 0.307947 -0.569283
C56   C     C_3   0.331770 0.233046 0.286780 0.130539
H60   H     H_    0.297627 0.212365 0.373753 0.160890
H61   H     H_    0.328577 0.171729 0.220892 0.201135
C57   C     C_3   0.282760 0.317794 0.227317 -0.296013
H62   H     H_    0.286655 0.381365 0.289179 0.245419
H63   H     H_    0.315030 0.337463 0.139063 0.218048
C58   C     C_3   0.185609 0.293451 0.201876 -0.939213
H64   H     H_    0.179991 0.232766 0.135261 0.255471
H65   H     H_    0.151814 0.357216 0.161677 0.264908
H66   H     H_    0.152026 0.273524 0.289073 0.276565

loop_
_geom_bond_atom_site_label_1
_geom_bond_atom_site_label_2
_ccdc_geom_bond_type
C15   C18   A    
C37   H16   S    
C36   H14   S    
C44   H32   S    
C7    C29   A    
Cu1   O5    S    
C14   C18   A    
C11   N1    A    
Cu1   Cu2   S    
C17   N2    A    
C20   O8    A    
C54   C55   S    
C53   H53   S    
C16   N2    A    
C55   H59   S    
C47   H40   S    
O14   C50   S    
C1    C33   S    
C7    C8    S    
C40   H22   S    
C39   H21   S    
C13   C18   S    
C35   C36   S    
C4    O14   S    
O11   C41   S    
C24   C26   A    
C56   C57   S    
C42   C43   S    
C37   H17   S    
C3    C33   A    
C19   O7    A    
C50   H46   S    
C45   C46   S    
Cu2   N1    S    
C35   H12   S    
C9    C13   A    
C49   H43   S    
C52   H52   S    
C2    O2    A    
C30   O10   S    
C14   H3    S    
C17   H6    S    
C20   C24   S    
C50   H47   S    
C39   C40   S    
C45   H35   S    
Cu1   O1    S    
C48   H41   S    
C31   C33   A    
O10   C38   S    
Cu2   O4    S    
C25   H1    S    
C2    C34   S    
C40   H23   S    
C37   H15   S    
C36   C37   S    
O9    C35   S    
C44   H33   S    
C21   C22   A    
C51   H48   S    
Cu1   O6    S    
C48   H42   S    
C57   C58   S    
C12   N1    A    
Cu1   N2    S    
C47   H39   S    
C58   H65   S    
C58   H64   S    
C51   H49   S    
C42   H28   S    
C4    C34   A    
C39   H20   S    
C29   O9    S    
C4    C6    A    
C27   F1    S    
C5    C7    A    
C19   C23   S    
C26   H2    S    
C12   O16   S    
C55   H58   S    
C3    C5    A    
C25   C26   A    
C42   H27   S    
C5    H9    S    
C28   H8    S    
C9    F3    S    
C35   H11   S    
C51   C52   S    
C32   C34   A    
C11   O15   S    
Cu2   O8    S    
C9    C11   A    
C46   H36   S    
C43   H31   S    
C50   C51   S    
C45   H34   S    
Cu1   O2    S    
C1    O3    A    
C49   H45   S    
C52   H50   S    
Cu2   O3    S    
C10   C12   A    
C20   O6    A    
C46   H37   S    
C21   C28   S    
C43   H30   S    
C44   C45   S    
C41   H26   S    
C22   C27   S    
C21   C23   A    
C48   C49   S    
C14   C16   A    
O15   C53   S    
C53   C54   S    
O13   C47   S    
C58   H66   S    
C38   H19   S    
C40   H24   S    
C3    O13   S    
C15   C17   A    
C6    H10   S    
C54   H56   S    
C10   C13   A    
C53   H54   S    
C38   C39   S    
C6    C8    A    
C56   H60   S    
C55   H57   S    
C28   F2    S    
C41   C42   S    
C31   O11   S    
C2    O4    A    
C8    C30   A    
C38   H18   S    
C29   C31   A    
Cu2   O7    S    
C30   C32   A    
C56   H61   S    
C19   O5    A    
C32   O12   S    
O12   C44   S    
C22   C24   A    
C23   C25   A    
C49   H44   S    
C15   H4    S    
C52   H51   S    
O16   C56   S    
C36   H13   S    
C27   H7    S    
C46   H38   S    
C43   H29   S    
C41   H25   S    
C27   C28   S    
C57   H62   S    
C10   F4    S    
C1    O1    A    
C16   H5    S    
C47   C48   S    
C57   H63   S    
C54   H55   S    
