data_mof_unit_390.cif
_audit_creation_date              2012-12-11T14:36:19-0500
_audit_creation_method            fapswitch 2.2
_symmetry_space_group_name_H-M    P1
_symmetry_Int_Tables_number       1
_space_group_crystal_system       triclinic
_cell_length_a                    13.48666
_cell_length_b                    13.494172
_cell_length_c                    27.514365
_cell_angle_alpha                 90.709987
_cell_angle_beta                  89.960342
_cell_angle_gamma                 60.033964
_cell_volume                      4337.52770169

loop_
_atom_site_label
_atom_site_type_symbol
_atom_type_description
_atom_site_fract_x
_atom_site_fract_y
_atom_site_fract_z
_atom_type_partial_charge
C1    C     C_R   0.619393 0.100607 0.570662 0.564895
C2    C     C_1   0.645024 0.714870 0.660004 -0.051682
C3    C     C_2   0.469751 0.738466 0.117092 0.342535
C4    C     C_2   0.104992 0.060912 0.399264 0.237137
C5    C     C_2   0.537486 0.339424 0.401688 0.241933
C6    C     C_2   0.744069 0.449803 0.777662 0.209243
C7    C     C_3   0.113716 0.115449 0.740169 -0.083648
C8    C     C_R   0.599013 0.780689 0.569104 0.550908
C9    C     C_3   0.207538 0.053713 0.778256 0.281500
C10   C     C_1   0.102251 0.198453 0.902904 0.013968
C11   C     C_1   0.236022 0.135407 0.618749 -0.003843
C12   C     C_3   0.066537 0.226994 0.771211 -0.124890
C13   C     C_3   0.160947 0.162669 0.809061 0.096043
C14   C     C_3   0.146919 0.259516 0.744257 -0.128996
C15   C     C_3   0.194053 0.148132 0.714032 0.008268
C16   C     C_1   0.628154 0.738004 0.617541 -0.007643
C17   C     C_3   0.241226 0.195117 0.782644 -0.142908
C18   C     C_3   0.289513 0.083245 0.751536 -0.104550
C19   C     C_1   0.134383 0.177213 0.861219 0.010302
C20   C     C_R   0.278740 0.121452 0.569985 0.562668
C21   C     C_1   0.212940 0.142264 0.661403 -0.053365
C22   C     C_3   0.644649 0.257356 0.741292 -0.083112
C23   C     C_3   0.554473 0.265901 0.778838 -0.121422
C24   C     C_1   0.687450 0.204801 0.904384 0.023681
C25   C     C_1   0.630921 0.129013 0.619949 -0.003037
C26   C     C_3   0.739456 0.168909 0.773657 0.290104
C27   C     C_3   0.702593 0.573590 0.769224 0.045998
C28   C     C_3   0.651463 0.177789 0.810946 0.086618
C29   C     C_3   0.737398 0.068896 0.747603 -0.094705
C30   C     C_3   0.640367 0.157563 0.715714 0.005774
C31   C     C_3   0.646910 0.078132 0.785153 -0.146668
C32   C     C_R   0.622056 0.099091 0.431112 0.594264
C33   C     C_3   0.549544 0.166043 0.752261 -0.130752
C34   C     C_1   0.666888 0.191130 0.862970 0.013949
C35   C     C_1   0.635965 0.144775 0.662882 -0.053865
C36   C     C_R   0.728998 0.689339 0.357484 -0.137744
C37   C     C_R   0.744347 0.674265 0.306579 -0.033849
C38   C     C_3   0.674510 0.667649 0.807564 0.061333
C39   C     C_R   0.766473 0.653861 0.204306 -0.025023
C40   C     C_R   0.865655 0.596923 0.233848 0.042287
C41   C     C_R   0.854291 0.607769 0.285242 0.003959
C42   C     C_R   0.772405 0.653087 0.153142 -0.030555
C43   C     C_R   0.680370 0.658236 0.126989 -0.098054
C44   C     C_R   0.599125 0.780869 0.428932 0.544110
C45   C     C_R   0.523543 0.798580 0.347407 -0.122124
C46   C     C_R   0.536059 0.787439 0.297500 -0.019582
C47   C     C_R   0.646014 0.724159 0.276603 0.028112
C48   C     C_R   0.439127 0.842253 0.268544 -0.128748
C49   C     C_3   0.591317 0.652837 0.742136 -0.113353
C50   C     C_R   0.447945 0.828758 0.218063 0.270287
C51   C     C_R   0.556401 0.755016 0.196577 0.061636
C52   C     C_R   0.656483 0.710568 0.225914 -0.036522
C53   C     C_R   0.569088 0.719011 0.147265 0.000411
C54   C     C_R   0.619145 0.749943 0.377549 0.012523
C55   C     C_R   0.159523 0.103657 0.364627 -0.008518
C56   C     C_R   0.280253 0.119772 0.430704 0.595694
C57   C     C_R   0.132439 0.114887 0.314554 -0.011939
C58   C     C_R   0.076754 0.145085 0.215381 -0.001056
C59   C     C_R   0.023054 0.104722 0.246368 -0.122336
C60   C     C_3   0.658141 0.696463 0.712546 0.035748
C61   C     C_R   0.050018 0.090241 0.295455 -0.126798
C62   C     C_R   0.046698 0.163614 0.166901 -0.115724
C63   C     C_R   0.095241 0.210664 0.136291 0.000489
C64   C     C_R   0.292912 0.173272 0.348877 -0.134167
C65   C     C_R   0.268018 0.183513 0.300083 0.029976
C66   C     C_R   0.187032 0.155519 0.282653 0.065899
C67   C     C_R   0.322580 0.222676 0.268666 -0.089388
C68   C     C_3   0.769844 0.616058 0.738949 -0.122060
C69   C     C_R   0.294561 0.237694 0.219720 -0.075007
C70   C     C_R   0.212008 0.213323 0.201829 0.038719
C71   C     C_3   0.563028 0.748094 0.780880 -0.120215
C72   C     C_R   0.159165 0.170551 0.233250 0.066969
C73   C     C_R   0.178587 0.234337 0.153391 -0.125754
C74   C     C_R   0.239053 0.135235 0.381163 0.021568
C75   C     C_R   0.588956 0.242567 0.365981 -0.008155
C76   C     C_R   0.589590 0.262456 0.315516 -0.023156
C77   C     C_R   0.598938 0.297042 0.215085 0.004475
C78   C     C_R   0.547498 0.390613 0.247207 -0.116491
C79   C     C_R   0.543305 0.373770 0.296826 -0.128019
C80   C     C_3   0.741278 0.711397 0.777810 -0.117428
C81   C     C_R   0.612880 0.313094 0.166205 -0.130196
C82   C     C_3   0.629446 0.792376 0.750411 -0.110411
C83   C     C_R   0.675446 0.218283 0.135256 -0.010116
C84   C     C_R   0.689838 0.036501 0.348745 -0.157675
C85   C     C_R   0.689839 0.055006 0.299523 -0.003319
C86   C     C_R   0.640148 0.167745 0.282588 0.040250
C87   C     C_R   0.738540 0.961560 0.267003 -0.121895
C88   C     C_R   0.742715 0.979102 0.217592 -0.122824
C89   C     C_R   0.698295 0.090187 0.200271 0.002417
C90   C     C_R   0.644201 0.185157 0.232578 0.056934
C91   C     C_R   0.713440 0.107521 0.151699 -0.136248
C92   C     C_1   0.694825 0.614305 0.901461 0.024642
C93   C     C_1   0.684314 0.644509 0.859823 -0.001038
C94   C     C_R   0.638885 0.128268 0.381991 0.014625
C95   C     C_R   0.050070 0.235769 0.950004 0.552840
C96   C     C_R   0.711190 0.564057 0.948514 0.550393
C97   C     C_R   0.721752 0.225067 0.951155 0.552209
C98   C     C_R   0.046565 0.245514 0.088490 0.540976
C99   C     C_R   0.706191 0.579638 0.084846 0.506235
C100  C     C_R   0.718028 0.234729 0.089246 0.535295
C101  C     C_2   0.859611 0.670231 0.126935 0.215596
C102  C     C_2   0.978539 0.516762 0.210894 0.339166
C103  C     C_2   0.955736 0.544843 0.316909 0.280946
Cr1   Cr    Cr6+3 0.417550 0.169090 0.500530 1.065138
Cr2   Cr    Cr6+3 0.669180 0.913420 0.499920 1.037167
Cr3   Cr    Cr6+3 0.413260 0.917540 0.499520 1.059352
Cr4   Cr    Cr6+3 0.909170 0.177380 0.020380 1.059431
Cr5   Cr    Cr6+3 0.912710 0.429210 0.018220 1.029523
Cr6   Cr    Cr6+3 0.657170 0.432570 0.019030 1.057046
H1    H     H_    0.802224 0.736255 0.792864 0.113428
H2    H     H_    0.854595 0.560937 0.721437 0.101985
H3    H     H_    0.800839 0.654997 0.382016 0.110972
H4    H     H_    0.355935 0.895976 0.285338 0.093965
H5    H     H_    0.438269 0.850113 0.362814 0.130812
H6    H     H_    0.980407 0.147187 0.153641 0.144613
H7    H     H_    0.958570 0.086080 0.232770 0.131746
H8    H     H_    0.599299 0.883183 0.741821 0.107209
H9    H     H_    0.003738 0.061805 0.318011 0.116882
H10   H     H_    0.214993 0.271217 0.129397 0.128149
H11   H     H_    0.336034 0.269957 0.196089 0.128090
H12   H     H_    0.293090 0.227973 0.800512 0.109261
H13   H     H_    0.385546 0.243505 0.282149 0.118147
H14   H     H_    0.357230 0.193089 0.361809 0.124796
H15   H     H_    0.583858 0.398934 0.153367 0.155016
H16   H     H_    0.513314 0.477026 0.234117 0.141034
H17   H     H_    0.505688 0.449001 0.320074 0.114824
H18   H     H_    0.760869 0.034688 0.127403 0.140188
H19   H     H_    0.478532 0.802833 0.798571 0.148706
H20   H     H_    0.783256 0.905812 0.193139 0.171837
H21   H     H_    0.775363 0.874742 0.279910 0.127170
H22   H     H_    0.725067 0.949180 0.361006 0.136458
H23   H     H_    0.121212 0.345212 0.729552 0.120319
H24   H     H_    0.530441 0.627724 0.727194 0.109564
H25   H     H_    0.064014 0.080381 0.722145 0.108389
H26   H     H_    0.380962 0.022634 0.743052 0.097603
H27   H     H_    0.874378 0.170965 0.754368 0.300294
H28   H     H_    0.865820 0.664871 0.087639 0.135411
H29   H     H_    0.982308 0.466607 0.179082 0.105096
H30   H     H_    0.974030 0.590174 0.345117 0.093569
H31   H     H_    0.463031 0.768187 0.080114 0.097192
H32   H     H_    0.283922 0.931644 0.210545 0.328971
H33   H     H_    0.087161 0.993970 0.388322 0.094631
H34   H     H_    0.975429 0.286771 0.780113 0.154780
H35   H     H_    0.460297 0.418427 0.393051 0.096578
H36   H     H_    0.773139 0.390728 0.746970 0.084118
H37   H     H_    0.264855 0.893218 0.768837 0.313432
H38   H     H_    0.478995 0.346188 0.792151 0.119260
H39   H     H_    0.643892 0.329881 0.722451 0.097702
H40   H     H_    0.470445 0.164753 0.742373 0.117625
H41   H     H_    0.646918 0.005376 0.803548 0.108370
H42   H     H_    0.813731 0.989043 0.734510 0.116829
O1    O     O_R   0.301710 0.195650 0.554160 -0.503638
O2    O     O_R   0.635520 0.542770 0.964420 -0.497294
O3    O     O_R   0.665950 0.325030 0.970100 -0.489013
O4    O     O_R   0.522390 0.158990 0.550460 -0.483967
O5    O     O_R   0.816620 0.158530 0.074540 -0.518240
O6    O     O_R   0.004460 0.188870 0.069750 -0.499382
O7    O     O_R   0.025800 0.341780 0.072300 -0.515972
O8    O     O_R   0.807650 0.528950 0.067500 -0.518322
O9    O     O_R   0.633420 0.550490 0.071810 -0.505013
O10   O     O_R   0.664000 0.332180 0.069640 -0.497801
O11   O     O_3   0.826350 0.346390 0.019210 -0.250902
O12   O     O_R   0.658900 0.818120 0.449760 -0.506656
O13   O     O_R   0.694390 0.003530 0.554040 -0.500851
O14   O     O_R   0.657700 0.819660 0.549320 -0.494683
O15   O     O_R   0.501930 0.803280 0.552920 -0.500097
O16   O     O_R   0.318170 0.023580 0.549580 -0.483731
O17   O     O_R   0.303010 0.193990 0.446760 -0.515096
O18   O     O_R   0.523600 0.157450 0.450900 -0.481599
O19   O     O_R   0.695690 0.001860 0.446640 -0.517629
O20   O     O_3   0.839767 0.169261 0.785859 -0.660144
O21   O     O_2   0.919623 0.699990 0.148589 -0.505074
O22   O     O_2   0.067063 0.509706 0.225808 -0.453152
O23   O     O_R   0.503220 0.801620 0.445520 -0.513173
O24   O     O_2   0.017382 0.441362 0.312604 -0.466959
O25   O     O_2   0.399418 0.714205 0.132159 -0.448667
O26   O     O_3   0.352744 0.890565 0.189507 -0.665984
O27   O     O_2   0.078356 0.100999 0.440370 -0.474895
O28   O     O_2   0.581808 0.332004 0.441170 -0.477958
O29   O     O_2   0.746447 0.414703 0.818538 -0.474518
O30   O     O_3   0.238923 0.946462 0.797208 -0.692527
O31   O     O_R   0.319370 0.022040 0.450020 -0.485442
O32   O     O_3   0.499990 0.000010 0.499990 -0.276658
O33   O     O_R   0.818720 0.150820 0.967160 -0.497316
O34   O     O_R   0.006410 0.181720 0.970200 -0.480112
O35   O     O_R   0.027890 0.334070 0.964920 -0.507619
O36   O     O_R   0.809600 0.521790 0.967960 -0.498519

loop_
_geom_bond_atom_site_label_1
_geom_bond_atom_site_label_2
_ccdc_geom_bond_type
C58   C62   A    
C15   C18   S    
C32   C94   S    
C32   O18   A    
C67   H13   S    
C68   C80   S    
C73   H10   S    
C99   O8    A    
Cr5   O36   S    
C96   O36   A    
C76   C79   A    
C57   C66   A    
C87   C88   A    
Cr5   O8    S    
C14   H23   S    
C45   C46   A    
C102  O22   D    
C12   C13   S    
C62   C63   A    
C49   C60   S    
C91   H18   S    
C30   C35   S    
H32   O26   S    
Cr3   O15   S    
C87   H21   S    
Cr5   O35   S    
C36   C37   A    
C43   C99   S    
C63   C98   S    
Cr6   O11   S    
C4    H33   S    
C2    C60   S    
Cr5   O7    S    
C27   C38   S    
C92   C96   S    
C101  O21   D    
C102  H29   S    
C1    O4    A    
C9    C13   S    
C5    O28   D    
C49   H24   S    
C27   C68   S    
Cr4   O6    S    
C38   C71   S    
C55   C74   A    
C60   C82   S    
C45   H5    S    
C43   C53   A    
C66   C72   A    
C98   O7    A    
C1    O13   A    
C59   H7    S    
C23   C33   S    
C36   H3    S    
Cr2   O12   S    
C100  O10   A    
C44   O12   A    
C37   C47   A    
C2    C16   T    
Cr4   O5    S    
C30   C33   S    
C71   C82   S    
C100  O5    A    
C7    C15   S    
C39   C52   A    
C28   C34   S    
C8    C16   S    
C99   O9    A    
C1    C25   S    
C14   C17   S    
C88   H20   S    
C81   C83   A    
C17   C18   S    
C39   C42   A    
C85   C87   A    
C96   O2    A    
C7    C12   S    
C11   C20   S    
C46   C48   A    
C77   C90   A    
C59   C61   A    
C56   C74   S    
Cr2   O19   S    
C13   C19   S    
C81   H15   S    
C51   C52   A    
C50   O26   S    
C9    O30   S    
C84   C85   A    
C7    H25   S    
C80   C82   S    
C86   C90   A    
C4    O27   D    
C39   C40   A    
C31   H41   S    
C101  H28   S    
C78   C79   A    
C5    H35   S    
C63   C73   A    
C65   C67   A    
C58   C59   A    
C77   C78   A    
Cr5   O11   S    
C11   C21   T    
C24   C34   T    
C24   C97   S    
C51   C53   A    
C68   H2    S    
C5    C75   S    
C75   C76   A    
Cr3   O31   S    
C29   C30   S    
C103  H30   S    
Cr1   O17   S    
C9    C18   S    
C6    C27   S    
C98   O6    A    
C77   C81   A    
C10   C19   T    
C56   O17   A    
C70   C73   A    
C103  O24   D    
C50   C51   A    
Cr3   O23   S    
Cr2   O13   S    
C18   H26   S    
C84   C94   A    
C23   C28   S    
Cr2   O32   S    
Cr6   O3    S    
C78   H16   S    
C85   C86   A    
C8    O15   A    
C25   C35   T    
C17   H12   S    
C40   C41   A    
C79   H17   S    
C22   H39   S    
C45   C54   A    
C83   C100  S    
C55   C57   A    
C4    C55   S    
C49   C71   S    
C71   H19   S    
C89   C91   A    
C42   C43   A    
C95   O35   A    
C42   C101  S    
C76   C86   A    
Cr6   O2    S    
C95   O34   A    
C97   O33   A    
C7    C9    S    
C20   O16   A    
C32   O19   A    
C46   C47   A    
C31   C33   S    
C22   C30   S    
H37   O30   S    
C6    O29   D    
C61   H9    S    
C14   C15   S    
C84   H22   S    
C28   C31   S    
C29   H42   S    
C44   O23   A    
C12   C14   S    
C56   O31   A    
C97   O3    A    
C26   O20   S    
C70   C72   A    
C57   C61   A    
C47   C52   A    
C64   H14   S    
C83   C91   A    
Cr4   O34   S    
C69   H11   S    
C26   C28   S    
C12   H34   S    
C13   C17   S    
Cr4   O33   S    
C64   C65   A    
Cr1   O1    S    
H27   O20   S    
C62   H6    S    
C29   C31   S    
C33   H40   S    
Cr3   O16   S    
C41   C103  S    
C3    C53   S    
C58   C72   A    
C23   H38   S    
C10   C95   S    
C38   C93   S    
C48   C50   A    
C92   C93   T    
Cr2   O14   S    
Cr1   O4    S    
C37   C41   A    
C69   C70   A    
Cr3   O32   S    
C6    H36   S    
C36   C54   A    
C8    O14   A    
C40   C102  S    
C44   C54   S    
C3    O25   D    
C15   C21   S    
Cr1   O32   S    
C20   O1    A    
C88   C89   A    
C60   C68   S    
C26   C29   S    
C65   C66   A    
C22   C26   S    
Cr4   O11   S    
C80   H1    S    
C64   C74   A    
C22   C23   S    
C48   H4    S    
Cr6   O10   S    
C3    H31   S    
C38   C80   S    
C82   H8    S    
C67   C69   A    
C89   C90   A    
Cr6   O9    S    
C27   C49   S    
C75   C94   A    
Cr1   O18   S    
