data_mof_unit_2729.cif
_audit_creation_date              2012-10-26T19:55:35-0400
_audit_creation_method            fapswitch 2.2
_symmetry_space_group_name_H-M    P1
_symmetry_Int_Tables_number       1
_space_group_crystal_system       triclinic
_cell_length_a                    12.960471
_cell_length_b                    15.823447
_cell_length_c                    17.109151
_cell_angle_alpha                 96.217417
_cell_angle_beta                  90.502274
_cell_angle_gamma                 86.032882
_cell_volume                      3479.73446838

loop_
_atom_site_label
_atom_site_type_symbol
_atom_type_description
_atom_site_fract_x
_atom_site_fract_y
_atom_site_fract_z
_atom_type_partial_charge
C1    C     C_R   0.498813 0.489823 0.348632 0.548820
C2    C     C_R   0.526448 0.590989 0.782429 -0.165008
C3    C     C_R   0.457218 0.752993 0.455714 0.019318
C4    C     C_R   0.542389 0.247036 0.544506 0.019250
C5    C     C_R   0.451503 0.842690 0.458890 -0.022959
C6    C     C_R   0.548019 0.157347 0.541388 -0.023012
C7    C     C_R   0.505622 0.890328 0.519542 0.191570
C8    C     C_R   0.494293 0.109666 0.480528 0.191558
C9    C     C_R   0.561375 0.844939 0.574204 -0.157637
C10   C     C_R   0.438942 0.155027 0.425645 -0.157784
C11   C     C_R   0.564635 0.755565 0.568051 0.018665
C12   C     C_R   0.501196 0.510176 0.651367 0.548878
C13   C     C_R   0.435705 0.244399 0.431769 0.018671
C14   C     C_R   0.301495 0.516590 0.503578 0.547488
C15   C     C_R   0.698507 0.483410 0.496415 0.547458
C16   C     C_R   0.810887 0.472589 0.490181 -0.023861
C17   C     C_R   0.189120 0.527415 0.509793 -0.023872
C18   C     C_R   0.028953 0.603135 0.558831 -0.020108
C19   C     C_R   0.971062 0.396858 0.441157 -0.020096
C20   C     C_R   0.137699 0.598057 0.554281 -0.035031
C21   C     C_R   0.862317 0.401906 0.445750 -0.035054
C22   C     C_R   0.133506 0.463201 0.471366 -0.148462
C23   C     C_R   0.515660 0.551862 0.143534 -0.092281
C24   C     C_R   0.866497 0.536846 0.528548 -0.148422
C25   C     C_R   0.026357 0.464591 0.478110 0.011196
C26   C     C_R   0.973649 0.535432 0.521834 0.011186
C27   C     C_R   0.496832 0.484758 0.262684 0.004907
C28   C     C_R   0.503208 0.515234 0.737314 0.004914
C29   C     C_R   0.517407 0.556207 0.225074 -0.164600
C30   C     C_R   0.482613 0.443790 0.774925 -0.164587
C31   C     C_R   0.803088 0.335281 0.401613 0.057463
C32   C     C_R   0.750860 0.352330 0.332198 -0.072107
C33   C     C_R   0.695108 0.289638 0.290420 -0.100641
C34   C     C_R   0.484393 0.448128 0.856464 -0.092254
C35   C     C_R   0.690305 0.210085 0.318022 -0.098372
C36   C     C_R   0.742240 0.192752 0.387006 -0.101684
C37   C     C_R   0.798672 0.255029 0.428811 -0.068010
C38   C     C_R   0.196942 0.664565 0.598575 0.057479
C39   C     C_R   0.201524 0.744871 0.571520 -0.067924
C40   C     C_R   0.257945 0.807038 0.613497 -0.101630
C41   C     C_R   0.309702 0.789543 0.682508 -0.098366
C42   C     C_R   0.304727 0.709936 0.709968 -0.100703
C43   C     C_R   0.248992 0.647351 0.668017 -0.072265
C44   C     C_R   0.973312 0.678764 0.602509 0.024456
C45   C     C_R   0.492957 0.475510 0.098089 0.226598
C46   C     C_R   0.974919 0.689963 0.685010 -0.086574
C47   C     C_R   0.916422 0.758023 0.725801 -0.111702
C48   C     C_R   0.855441 0.814615 0.684522 -0.114762
C49   C     C_R   0.854010 0.803980 0.602355 -0.124294
C50   C     C_R   0.913447 0.736780 0.561366 -0.105514
C51   C     C_R   0.026727 0.321212 0.397512 0.024469
C52   C     C_R   0.086863 0.263374 0.438668 -0.105605
C53   C     C_R   0.146409 0.196234 0.397693 -0.124290
C54   C     C_R   0.144779 0.185444 0.315531 -0.114727
C55   C     C_R   0.083502 0.241835 0.274242 -0.111744
C56   C     C_R   0.507147 0.524467 0.901907 0.226591
C57   C     C_R   0.024922 0.309859 0.315015 -0.086533
C58   C     C_R   0.615534 0.117689 0.599412 0.047768
C59   C     C_R   0.596102 0.137646 0.680208 -0.099828
C60   C     C_R   0.663380 0.104912 0.735539 -0.113109
C61   C     C_R   0.751263 0.053219 0.710675 -0.112314
C62   C     C_R   0.771481 0.033551 0.630439 -0.128179
C63   C     C_R   0.703544 0.065006 0.574872 -0.072549
C64   C     C_R   0.383394 0.882406 0.401243 0.047666
C65   C     C_R   0.295814 0.935356 0.426307 -0.072593
C66   C     C_R   0.227204 0.966773 0.371156 -0.128121
C67   C     C_R   0.472011 0.404582 0.135853 -0.119434
C68   C     C_R   0.246329 0.946823 0.290802 -0.112351
C69   C     C_R   0.333795 0.894891 0.265406 -0.113224
C70   C     C_R   0.401733 0.862185 0.320330 -0.099996
C71   C     C_R   0.528117 0.595388 0.864143 -0.119502
C72   C     C_R   0.473650 0.408989 0.217567 -0.164976
Cu1   Cu    Cu3+1 0.494970 0.415610 0.496200 0.940194
Cu2   Cu    Cu3+1 0.505030 0.584390 0.503800 0.940204
H1    H     H_    0.824378 0.588381 0.564186 0.141675
H2    H     H_    0.532136 0.608211 0.116501 0.131013
H3    H     H_    0.454257 0.345662 0.101683 0.110524
H4    H     H_    0.545908 0.654300 0.898311 0.110546
H5    H     H_    0.456672 0.353185 0.245337 0.121978
H6    H     H_    0.543437 0.646789 0.754658 0.122127
H7    H     H_    0.585591 0.283651 0.589041 0.130505
H8    H     H_    0.413742 0.716387 0.411351 0.130474
H9    H     H_    0.753725 0.413923 0.310465 0.094206
H10   H     H_    0.655953 0.302573 0.236494 0.107132
H11   H     H_    0.646702 0.161745 0.285800 0.103665
H12   H     H_    0.175628 0.411708 0.435678 0.141705
H13   H     H_    0.738924 0.130934 0.407793 0.099069
H14   H     H_    0.838493 0.240994 0.482301 0.101401
H15   H     H_    0.161837 0.759034 0.518014 0.101487
H16   H     H_    0.261386 0.868899 0.592826 0.099030
H17   H     H_    0.353290 0.837802 0.714865 0.103629
H18   H     H_    0.343731 0.696879 0.763921 0.107273
H19   H     H_    0.245992 0.585716 0.689643 0.094198
H20   H     H_    0.020031 0.645312 0.717530 0.105495
H21   H     H_    0.917276 0.766239 0.789423 0.103818
H22   H     H_    0.808823 0.866301 0.716234 0.104255
H23   H     H_    0.602470 0.878975 0.621778 0.113468
H24   H     H_    0.805980 0.847099 0.570306 0.110163
H25   H     H_    0.910865 0.728499 0.497718 0.110240
H26   H     H_    0.089607 0.271776 0.502310 0.110238
H27   H     H_    0.194693 0.153292 0.429748 0.110365
H28   H     H_    0.191483 0.133802 0.283831 0.104391
H29   H     H_    0.082499 0.233504 0.210622 0.103813
H30   H     H_    0.979608 0.354373 0.282480 0.105500
H31   H     H_    0.529155 0.178832 0.700242 0.094445
H32   H     H_    0.647992 0.120408 0.797700 0.103935
H33   H     H_    0.804019 0.028854 0.753588 0.102679
H34   H     H_    0.398124 0.120969 0.377927 0.113321
H35   H     H_    0.840406 0.994633 0.611319 0.104933
H36   H     H_    0.720313 0.049261 0.512998 0.106227
H37   H     H_    0.279879 0.951326 0.488278 0.106512
H38   H     H_    0.158595 0.005874 0.390700 0.105045
H39   H     H_    0.193047 0.971154 0.248213 0.102874
H40   H     H_    0.348335 0.879178 0.203154 0.104010
H41   H     H_    0.468329 0.820797 0.299891 0.094430
H42   H     H_    0.607544 0.721868 0.611000 0.126573
H43   H     H_    0.393084 0.278066 0.388660 0.126555
H44   H     H_    0.464646 0.384526 0.741419 0.123843
H45   H     H_    0.535332 0.615482 0.258582 0.123923
H46   H     H_    0.467894 0.391784 0.883498 0.131000
N1    N     N_2   0.490186 0.467159 0.014784 -0.256208
N2    N     N_2   0.509929 0.532816 0.985213 -0.256205
N3    N     N_R   0.512580 0.711160 0.509520 -0.227839
N4    N     N_R   0.487420 0.288840 0.490480 -0.227783
N5    N     N_2   0.503131 0.981872 0.530804 -0.235612
N6    N     N_2   0.496765 0.018115 0.469285 -0.235551
O1    O     O_R   0.495300 0.420890 0.382510 -0.503376
O2    O     O_R   0.504700 0.579110 0.617490 -0.503223
O3    O     O_R   0.503790 0.563430 0.388930 -0.514186
O4    O     O_R   0.496210 0.436570 0.611070 -0.514301
O5    O     O_R   0.345440 0.440310 0.497300 -0.505049
O6    O     O_R   0.654560 0.559690 0.502700 -0.505128
O7    O     O_R   0.353930 0.582840 0.503720 -0.488746
O8    O     O_R   0.646070 0.417160 0.496280 -0.488596

loop_
_geom_bond_atom_site_label_1
_geom_bond_atom_site_label_2
_ccdc_geom_bond_type
C66   C68   A    
Cu1   O5    S    
C34   C56   A    
C16   C21   A    
C23   C45   A    
Cu2   O6    S    
C27   C29   A    
Cu1   Cu2   S    
C6    C58   S    
C37   H14   S    
C10   H34   S    
C35   C36   A    
C18   C26   A    
C23   H2    S    
C15   O8    A    
C53   C54   A    
C29   H45   S    
C50   H25   S    
C59   H31   S    
C12   O4    A    
C12   C28   S    
C23   C29   A    
C36   C37   A    
C19   C21   A    
C24   C26   A    
C72   H5    S    
C1    O3    A    
C38   C39   A    
C15   C16   S    
Cu2   O7    S    
C55   H29   S    
C17   C20   A    
C4    N4    A    
C67   C72   A    
C41   C42   A    
C57   H30   S    
C65   H37   S    
C43   H19   S    
C49   H24   S    
Cu1   O4    S    
Cu2   O2    S    
C15   O6    A    
C47   C48   A    
C53   H27   S    
C68   C69   A    
C22   C25   A    
C67   H3    S    
C45   C67   A    
C51   C57   A    
C64   C70   A    
C42   H18   S    
C68   H39   S    
Cu1   N4    S    
Cu2   N3    S    
C59   C60   A    
C16   C24   A    
C3    N3    A    
C14   C17   S    
C61   C62   A    
C61   H33   S    
C44   C46   A    
C14   O5    A    
C36   H13   S    
C34   H46   S    
C69   H40   S    
C30   C34   A    
C51   C52   A    
C4    C6    A    
C39   C40   A    
C5    C7    A    
C13   N4    A    
C6    C8    A    
C30   H44   S    
C45   N1    S    
C25   C26   A    
Cu1   O1    S    
C52   H26   S    
C31   C37   A    
C5    C64   S    
C60   C61   A    
C56   N2    S    
C62   C63   A    
C18   C44   S    
C20   C38   S    
C31   C32   A    
C46   H20   S    
C56   C71   A    
C21   C31   S    
C3    H8    S    
C7    N5    S    
C11   H42   S    
C9    C11   A    
N1    N2    D    
C8    N6    S    
C40   C41   A    
C41   H17   S    
C49   C50   A    
C55   C57   A    
N5    N6    D    
C42   C43   A    
C2    C71   A    
C60   H32   S    
C52   C53   A    
C44   C50   A    
C58   C63   A    
C7    C9    A    
C32   H9    S    
C46   C47   A    
C48   C49   A    
C9    H23   S    
C48   H22   S    
C54   H28   S    
C11   N3    A    
C1    O1    A    
C3    C5    A    
C10   C13   A    
C54   C55   A    
C13   H43   S    
C24   H1    S    
C12   O2    A    
C14   O7    A    
C70   H41   S    
C17   C22   A    
C66   H38   S    
C64   C65   A    
C63   H36   S    
C28   C30   A    
C58   C59   A    
C38   C43   A    
C32   C33   A    
C35   H11   S    
C62   H35   S    
C4    H7    S    
C33   C35   A    
C18   C20   A    
C22   H12   S    
C69   C70   A    
C19   C25   A    
C33   H10   S    
C2    H6    S    
C19   C51   S    
Cu1   O8    S    
C8    C10   A    
C65   C66   A    
Cu2   O3    S    
C1    C27   S    
C47   H21   S    
C2    C28   A    
C40   H16   S    
C39   H15   S    
C71   H4    S    
C27   C72   A    
