data_mof_unit_1363.cif
_audit_creation_date              2012-12-11T15:26:33-0500
_audit_creation_method            fapswitch 2.2
_symmetry_space_group_name_H-M    P1
_symmetry_Int_Tables_number       1
_space_group_crystal_system       triclinic
_cell_length_a                    7.220119
_cell_length_b                    12.107835
_cell_length_c                    29.071898
_cell_angle_alpha                 90.024855
_cell_angle_beta                  88.937602
_cell_angle_gamma                 89.977044
_cell_volume                      2541.02825999

loop_
_atom_site_label
_atom_site_type_symbol
_atom_type_description
_atom_site_fract_x
_atom_site_fract_y
_atom_site_fract_z
_atom_type_partial_charge
O1    O     O_R   0.647170 0.849180 0.201220 -0.539295
O2    O     O_R   0.352830 0.150820 0.798780 -0.539806
O3    O     O_R   0.352830 0.150820 0.701220 -0.532049
O4    O     O_R   0.647170 0.849180 0.298780 -0.532950
O5    O     O_R   0.147170 0.650820 0.298780 -0.538596
O6    O     O_R   0.852830 0.349180 0.701220 -0.531786
O7    O     O_R   0.852830 0.349180 0.798780 -0.540704
O8    O     O_R   0.147170 0.650820 0.201220 -0.533043
O9    O     O_R   0.317430 0.862210 0.298450 -0.540755
O10   O     O_R   0.682570 0.137790 0.701550 -0.541236
O11   O     O_R   0.682570 0.137790 0.798450 -0.533303
O12   O     O_R   0.317430 0.862210 0.201550 -0.534090
O13   O     O_R   0.817430 0.637790 0.201550 -0.540573
O14   O     O_R   0.182570 0.362210 0.798450 -0.533125
O15   O     O_R   0.182570 0.362210 0.701550 -0.542489
O16   O     O_R   0.817430 0.637790 0.298450 -0.534807
H1    H     H_    0.975198 0.224235 0.456838 0.138152
H2    H     H_    0.021729 0.778606 0.544119 0.138878
H3    H     H_    0.935453 0.776015 0.956192 0.139190
H4    H     H_    0.066021 0.226477 0.042967 0.138282
H5    H     H_    0.633701 0.266600 0.042734 0.139401
H6    H     H_    0.373833 0.732341 0.957233 0.141862
H7    H     H_    0.591110 0.726879 0.542389 0.141045
H8    H     H_    0.402031 0.272491 0.457672 0.138947
C1    C     C_R   0.484213 0.888512 0.313308 0.667136
C2    C     C_R   0.515763 0.111482 0.686694 0.667516
C3    C     C_R   0.512591 0.111605 0.813274 0.668589
C4    C     C_R   0.487438 0.888389 0.186726 0.668421
C5    C     C_R   0.986701 0.612174 0.186493 0.676130
C6    C     C_R   0.012854 0.388557 0.813196 0.670497
C7    C     C_R   0.015375 0.388564 0.686762 0.669556
C8    C     C_R   0.984875 0.612326 0.313583 0.676130
H9    H     H_    0.007522 0.258574 0.375625 0.152101
H10   H     H_    0.053555 0.743012 0.624890 0.152341
H11   H     H_    0.911996 0.738774 0.875271 0.152069
H12   H     H_    0.023142 0.258684 0.124105 0.151627
H13   H     H_    0.636710 0.231592 0.123944 0.150919
H14   H     H_    0.366509 0.767899 0.876103 0.150779
H15   H     H_    0.606272 0.761502 0.623459 0.150630
H16   H     H_    0.391327 0.238249 0.376512 0.150447
H17   H     H_    0.958158 0.342385 0.601038 0.118882
H18   H     H_    0.957852 0.662057 0.400624 0.115570
H19   H     H_    0.014213 0.663266 0.099672 0.115588
H20   H     H_    0.072603 0.345673 0.898993 0.118823
H21   H     H_    0.576874 0.152743 0.899073 0.119292
H22   H     H_    0.422162 0.847630 0.100907 0.118609
H23   H     H_    0.550101 0.844398 0.398869 0.118620
H24   H     H_    0.450531 0.155828 0.601155 0.119455
O17   O     O_3   0.480630 0.680630 0.250000 -0.372736
O18   O     O_3   0.519370 0.319370 0.750000 -0.372314
O19   O     O_3   0.980630 0.819370 0.250000 -0.371850
O20   O     O_3   0.019370 0.180630 0.750000 -0.371240
V1    V     V_3+5 0.205800 0.762860 0.250000 1.464154
V2    V     V_3+5 0.794200 0.237140 0.750000 1.463531
V3    V     V_3+5 0.705800 0.737140 0.250000 1.461428
V4    V     V_3+5 0.294200 0.262860 0.750000 1.461973
H25   H     H_    0.967820 0.285323 0.534228 0.126207
H26   H     H_    0.996692 0.718153 0.466943 0.127701
H27   H     H_    0.967567 0.717093 0.033375 0.127903
H28   H     H_    0.067642 0.287945 0.965669 0.126383
H29   H     H_    0.598181 0.208398 0.965681 0.126444
H30   H     H_    0.408731 0.790681 0.034294 0.126267
H31   H     H_    0.561417 0.787105 0.465447 0.125736
H32   H     H_    0.432142 0.212338 0.534610 0.126082
C9    C     C_R   0.991001 0.533253 0.351969 -0.138442
C10   C     C_R   0.011474 0.469247 0.648949 -0.139293
C11   C     C_R   0.000118 0.468824 0.851103 -0.138532
C12   C     C_R   0.996873 0.533092 0.148084 -0.137580
C13   C     C_R   0.503485 0.968641 0.148846 -0.137595
C14   C     C_R   0.496880 0.031369 0.851169 -0.137266
C15   C     C_R   0.515173 0.030605 0.648831 -0.138247
C16   C     C_R   0.484522 0.969409 0.351164 -0.138183
C17   C     C_R   0.998029 0.346753 0.381851 -0.156933
C18   C     C_R   0.033760 0.655400 0.618911 -0.150694
C19   C     C_R   0.946004 0.652741 0.881221 -0.151316
C20   C     C_R   0.019822 0.347038 0.118007 -0.158331
C21   C     C_R   0.590234 0.147634 0.118153 -0.153005
C22   C     C_R   0.412647 0.851957 0.881864 -0.151071
C23   C     C_R   0.571918 0.847629 0.617848 -0.152180
C24   C     C_R   0.425786 0.152163 0.382151 -0.155462
C25   C     C_R   0.011250 0.418563 0.344487 0.367729
C26   C     C_R   0.042757 0.583261 0.656173 0.373909
C27   C     C_R   0.950278 0.580400 0.843883 0.372773
C28   C     C_R   0.993103 0.417744 0.155380 0.365519
C29   C     C_R   0.568635 0.077517 0.155873 0.375310
C30   C     C_R   0.432855 0.922256 0.844155 0.374518
C31   C     C_R   0.563456 0.918475 0.655624 0.375577
C32   C     C_R   0.435465 0.081419 0.344360 0.376053
C33   C     C_R   0.973801 0.573970 0.397004 -0.259918
C34   C     C_R   0.981627 0.429856 0.604341 -0.259437
C35   C     C_R   0.034472 0.431293 0.895730 -0.259128
C36   C     C_R   0.011164 0.574676 0.103164 -0.259226
C37   C     C_R   0.469690 0.931542 0.104068 -0.259297
C38   C     C_R   0.530976 0.068512 0.895924 -0.260247
C39   C     C_R   0.483899 0.069477 0.604183 -0.259950
C40   C     C_R   0.515385 0.930564 0.395837 -0.259018
C41   C     C_R   0.976715 0.502334 0.435546 0.083189
C42   C     C_R   0.986136 0.501408 0.565768 0.080731
C43   C     C_R   0.016684 0.502175 0.934342 0.080450
C44   C     C_R   0.020839 0.503284 0.064552 0.083419
C45   C     C_R   0.503192 0.999896 0.065192 0.079118
C46   C     C_R   0.499573 0.999823 0.934793 0.078444
C47   C     C_R   0.503432 0.999561 0.565214 0.079105
C48   C     C_R   0.493976 0.000283 0.434820 0.079922
C49   C     C_R   0.981403 0.387126 0.426928 0.040824
C50   C     C_R   0.007352 0.615978 0.574165 0.037254
C51   C     C_R   0.977233 0.615008 0.926002 0.036956
C52   C     C_R   0.033169 0.388271 0.073034 0.041192
C53   C     C_R   0.560536 0.110018 0.073298 0.041418
C54   C     C_R   0.443233 0.889510 0.926692 0.039851
C55   C     C_R   0.544625 0.886790 0.573134 0.040151
C56   C     C_R   0.452003 0.112947 0.426896 0.041843
C57   C     C_R   0.978270 0.540945 0.482137 0.069652
C58   C     C_R   0.975263 0.463011 0.519252 0.070573
C59   C     C_R   0.031881 0.464451 0.980828 0.070999
C60   C     C_R   0.015149 0.541785 0.018011 0.069504
C61   C     C_R   0.484298 0.962447 0.018708 0.069348
C62   C     C_R   0.519427 0.037131 0.981272 0.069289
C63   C     C_R   0.486697 0.037887 0.518791 0.069740
C64   C     C_R   0.509775 0.961867 0.481251 0.069794
C65   C     C_R   0.969481 0.349199 0.508507 -0.188912
C66   C     C_R   0.991404 0.654534 0.492776 -0.191221
C67   C     C_R   0.984180 0.654151 0.007471 -0.191985
C68   C     C_R   0.054992 0.351403 0.991456 -0.188907
C69   C     C_R   0.571218 0.146804 0.991605 -0.187510
C70   C     C_R   0.434084 0.852518 0.008372 -0.188199
C71   C     C_R   0.545310 0.849824 0.491440 -0.188915
C72   C     C_R   0.449712 0.149771 0.508609 -0.188003
C73   C     C_R   0.974048 0.312462 0.463325 -0.182200
C74   C     C_R   0.007006 0.690783 0.537791 -0.183079
C75   C     C_R   0.964232 0.689440 0.962458 -0.183858
C76   C     C_R   0.053928 0.314422 0.036582 -0.183438
C77   C     C_R   0.591585 0.181962 0.036612 -0.180116
C78   C     C_R   0.414168 0.817274 0.963365 -0.179016
C79   C     C_R   0.562076 0.813522 0.536381 -0.178881
C80   C     C_R   0.432622 0.186028 0.463668 -0.180030
O21   O     O_3   0.081421 0.628232 0.698579 -0.607380
H33   H     H_    0.109761 0.568590 0.720535 0.290059
O22   O     O_3   0.044256 0.373181 0.301624 -0.605750
H34   H     H_    0.094861 0.431171 0.281005 0.292253
O23   O     O_3   0.963933 0.370602 0.198050 -0.606417
H35   H     H_    0.903978 0.425658 0.218583 0.293847
O24   O     O_3   0.905621 0.622705 0.801410 -0.608315
H36   H     H_    0.886119 0.561466 0.779552 0.288508
O25   O     O_3   0.387550 0.880521 0.801596 -0.610011
H37   H     H_    0.386009 0.940742 0.778710 0.285704
O26   O     O_3   0.613752 0.119198 0.198455 -0.608623
H38   H     H_    0.614166 0.059059 0.221383 0.285102
O27   O     O_3   0.394972 0.125744 0.301939 -0.607561
H39   H     H_    0.388939 0.066448 0.278701 0.287326
O28   O     O_3   0.604293 0.874128 0.698020 -0.608767
H40   H     H_    0.611149 0.933459 0.721226 0.287946

loop_
_geom_bond_atom_site_label_1
_geom_bond_atom_site_label_2
_ccdc_geom_bond_type
C7    C10   S    
O14   V4    S    
C11   C27   A    
C60   C67   A    
C32   O27   S    
C4    C13   S    
C44   C60   A    
C19   C27   A    
C20   C28   A    
C23   C31   A    
O4    C1    A    
C64   C71   A    
O9    C1    A    
C10   C34   A    
C9    C33   A    
H11   C19   S    
H6    C78   S    
O8    C5    A    
O5    V1    S    
C14   C38   A    
C56   C80   A    
C26   O21   S    
C13   C37   A    
C72   C80   A    
C43   C59   A    
C42   C58   A    
O27   H39   S    
C10   C26   A    
C45   C53   A    
O24   H36   S    
C68   C76   A    
C47   C55   A    
H5    C77   S    
H28   C68   S    
H12   C20   S    
C58   C65   A    
C9    C25   A    
C57   C66   A    
O26   H38   S    
C39   C47   A    
H32   C72   S    
O1    C4    A    
H23   C40   S    
H16   C24   S    
O2    C3    A    
C62   C69   A    
C61   C70   A    
C6    C11   S    
C46   C62   A    
O5    C8    A    
C41   C49   A    
C63   C72   A    
H8    C80   S    
H17   C34   S    
C21   C29   A    
C20   C52   A    
O7    C6    A    
C31   O28   S    
H3    C75   S    
C2    C15   S    
H4    C76   S    
H21   C38   S    
C17   C25   A    
C16   C32   A    
O20   V2    S    
O25   H37   S    
H27   C67   S    
O22   H34   S    
C44   C52   A    
H26   C66   S    
C53   C77   A    
C12   C28   A    
C29   O26   S    
C19   C51   A    
C51   C75   A    
H24   C39   S    
C37   C45   A    
C48   C56   A    
C49   C73   A    
H14   C22   S    
O17   V3    S    
H13   C21   S    
O18   V4    S    
C33   C41   A    
O19   V1    S    
H15   C23   S    
C18   C50   A    
C5    C12   S    
O3    V4    S    
C17   C49   A    
O11   C3    A    
O28   H40   S    
C69   C77   A    
C24   C56   A    
C11   C35   A    
O10   C2    A    
C22   C54   A    
C1    C16   S    
C21   C53   A    
C3    C14   S    
C38   C46   A    
H20   C35   S    
H10   C18   S    
C15   C31   A    
H9    C17   S    
O12   C4    A    
O6    V2    S    
C40   C48   A    
O4    V3    S    
C46   C54   A    
O9    V1    S    
C41   C57   A    
C14   C30   A    
C30   O25   S    
C13   C29   A    
C36   C44   A    
H30   C70   S    
C57   C58   A    
C18   C26   A    
O13   C5    A    
C50   C74   A    
C65   C73   A    
C59   C68   A    
C67   C75   A    
O3    C2    A    
C47   C63   A    
O12   V1    S    
C71   C79   A    
C42   C50   A    
O8    V1    S    
C63   C64   A    
O15   C7    A    
H7    C79   S    
O16   C8    A    
C43   C51   A    
O21   H33   S    
H19   C36   S    
C25   O22   S    
H2    C74   S    
C23   C55   A    
H18   C33   S    
C45   C61   A    
O15   V4    S    
O1    V3    S    
O16   V3    S    
O14   C6    A    
C24   C32   A    
O2    V4    S    
O23   H35   S    
C27   O24   S    
C55   C79   A    
H22   C37   S    
C28   O23   S    
C12   C36   A    
C34   C42   A    
O6    C7    A    
O10   V2    S    
O13   V3    S    
C52   C76   A    
C54   C78   A    
H25   C65   S    
C16   C40   A    
C15   C39   A    
C70   C78   A    
C22   C30   A    
O11   V2    S    
H29   C69   S    
O7    V2    S    
C35   C43   A    
C61   C62   A    
C66   C74   A    
H1    C73   S    
H31   C71   S    
C59   C60   A    
C8    C9    S    
C48   C64   A    
