data_mof_unit_1227.cif
_audit_creation_date              2012-12-10T19:48:36-0500
_audit_creation_method            fapswitch 2.2
_symmetry_space_group_name_H-M    P1
_symmetry_Int_Tables_number       1
_space_group_crystal_system       triclinic
_cell_length_a                    10.863295
_cell_length_b                    10.634255
_cell_length_c                    9.433439
_cell_angle_alpha                 89.204912
_cell_angle_beta                  91.534017
_cell_angle_gamma                 88.354908
_cell_volume                      1088.82309395

loop_
_atom_site_label
_atom_site_type_symbol
_atom_type_description
_atom_site_fract_x
_atom_site_fract_y
_atom_site_fract_z
_atom_type_partial_charge
C1    C     C_R   0.500173 0.259396 0.500613 0.777415
C2    C     C_R   0.499827 0.740604 0.499387 0.777415
C3    C     C_R   0.871670 0.494493 0.504049 -0.086270
C4    C     C_R   0.128330 0.505505 0.495950 -0.086270
C5    C     C_R   0.945324 0.437484 0.613954 -0.010505
C6    C     C_R   0.054676 0.562514 0.386045 -0.010505
C7    C     C_3   0.588883 0.037362 0.590094 -0.163155
C8    C     C_3   0.411116 0.962638 0.409907 -0.163154
C9    C     C_3   0.610219 0.955838 0.458078 -0.174561
C10   C     C_3   0.389781 0.044162 0.541923 -0.174559
C11   C     C_3   0.500096 0.877660 0.498943 0.035305
C12   C     C_3   0.499904 0.122340 0.501057 0.035306
C13   C     C_3   0.478871 0.956952 0.631149 -0.140665
C14   C     C_3   0.521129 0.043048 0.368852 -0.140665
C15   C     C_3   0.537115 0.603911 0.048107 0.604390
C16   C     C_3   0.462885 0.396089 0.951892 0.604390
C17   C     C_3   0.427468 0.589575 0.945043 -0.204393
C18   C     C_3   0.572532 0.410425 0.054957 -0.204395
C19   C     C_3   0.610184 0.516392 0.952523 -0.162997
C20   C     C_3   0.389816 0.483608 0.047477 -0.162993
C21   C     C_R   0.262367 0.504884 0.498079 0.780339
C22   C     C_R   0.737633 0.495116 0.501921 0.780338
C23   C     C_R   0.149592 0.842990 0.171906 -0.146030
C24   C     C_R   0.850407 0.157011 0.828098 -0.146031
C25   C     C_R   0.129456 0.764391 0.288698 -0.149771
C26   C     C_R   0.870545 0.235608 0.711306 -0.149771
C27   C     C_R   0.102747 0.637562 0.268245 0.146767
C28   C     C_R   0.897253 0.362437 0.731755 0.146768
C29   C     C_R   0.096593 0.590727 0.130021 -0.158177
C30   C     C_R   0.903409 0.409275 0.869979 -0.158176
C31   C     C_R   0.120671 0.668523 0.013970 -0.159499
C32   C     C_R   0.879330 0.331480 0.986031 -0.159498
C33   C     C_R   0.146690 0.794800 0.034857 -0.121671
C34   C     C_R   0.853308 0.205204 0.965145 -0.121671
C35   C     C_R   0.927390 0.555610 0.391459 -0.238670
C36   C     C_R   0.072610 0.444387 0.608540 -0.238669
Cu1   Cu    Cu3+1 0.500030 0.499990 0.643150 0.973649
Cu2   Cu    Cu3+1 0.499970 0.500010 0.356850 0.973650
H1    H     H_    0.162783 0.855588 0.944692 0.124012
H2    H     H_    0.837214 0.144417 0.055311 0.124012
H3    H     H_    0.368836 0.665369 0.893850 0.131798
H4    H     H_    0.631164 0.334631 0.106150 0.131798
H5    H     H_    0.699794 0.539621 0.907765 0.148327
H6    H     H_    0.300206 0.460379 0.092236 0.148328
H7    H     H_    0.164801 0.941962 0.187393 0.120126
H8    H     H_    0.835199 0.058038 0.812613 0.120125
H9    H     H_    0.128827 0.803601 0.394061 0.106863
H10   H     H_    0.871175 0.196397 0.605943 0.106864
H11   H     H_    0.072326 0.494121 0.112419 0.120268
H12   H     H_    0.927677 0.505881 0.887580 0.120268
H13   H     H_    0.117485 0.631415 0.907707 0.133789
H14   H     H_    0.882518 0.368589 0.092294 0.133790
H15   H     H_    0.871083 0.601810 0.308176 0.175714
H16   H     H_    0.128917 0.398187 0.691823 0.175715
H17   H     H_    0.700377 0.916658 0.424130 0.130956
H18   H     H_    0.299623 0.083342 0.575870 0.130955
H19   H     H_    0.659812 0.071600 0.664804 0.135533
H20   H     H_    0.340189 0.928399 0.335196 0.135534
H21   H     H_    0.462053 0.917966 0.738248 0.119080
H22   H     H_    0.537946 0.082035 0.261753 0.119078
N1    N     N_3   0.500090 0.499970 0.858290 -0.196998
N2    N     N_3   0.499910 0.500030 0.141710 -0.196997
O1    O     O_R   0.500060 0.316850 0.620870 -0.520951
O2    O     O_R   0.499940 0.683150 0.379130 -0.520950
O3    O     O_R   0.500000 0.316860 0.379090 -0.611325
O4    O     O_R   0.500000 0.683140 0.620910 -0.611325
O5    O     O_R   0.319670 0.500010 0.620890 -0.570414
O6    O     O_R   0.680330 0.499990 0.379110 -0.570414
O7    O     O_R   0.319620 0.500010 0.379110 -0.581806
O8    O     O_R   0.680380 0.499990 0.620890 -0.581806
O9    O     O_3   0.584712 0.713835 0.107537 -0.556114
C37   C     C_3   0.585992 0.809997 0.003054 0.031961
H23   H     H_    0.495065 0.860656 0.998955 0.150205
H24   H     H_    0.606484 0.774352 0.895228 0.142004
C38   C     C_3   0.685210 0.902084 0.041947 -0.830764
H25   H     H_    0.777752 0.855887 0.034114 0.248595
H26   H     H_    0.678152 0.984031 0.967973 0.195391
H27   H     H_    0.673802 0.935275 0.151665 0.252245
O10   O     O_3   0.415287 0.286165 0.892463 -0.556114
C39   C     C_3   0.414013 0.190000 0.996942 0.031963
H28   H     H_    0.393529 0.225642 0.104772 0.142004
H29   H     H_    0.504940 0.139341 0.001031 0.150210
C40   C     C_3   0.314790 0.097915 0.958055 -0.830786
H30   H     H_    0.326187 0.064730 0.848335 0.252250
H31   H     H_    0.321853 0.015965 0.032023 0.195395
H32   H     H_    0.222252 0.144110 0.965903 0.248596

loop_
_geom_bond_atom_site_label_1
_geom_bond_atom_site_label_2
_ccdc_geom_bond_type
C4    C36   A    
C23   H7    S    
C35   H15   S    
C9    C14   S    
C29   H11   S    
C15   C19   S    
C33   H1    S    
C34   H2    S    
C24   C26   A    
C18   H4    S    
C39   H28   S    
C27   C29   A    
C5    C36   A    
C17   C20   S    
C6    C35   A    
C7    C9    S    
C18   C19   S    
C32   H14   S    
C8    H20   S    
Cu1   O1    S    
C6    C27   S    
C19   H5    S    
C23   C33   A    
C1    O3    A    
C31   C33   A    
C9    H17   S    
C10   H18   S    
C25   H9    S    
C26   H10   S    
C17   N1    S    
C30   H12   S    
Cu2   O7    S    
Cu1   O8    S    
C21   O5    A    
C1    C12   S    
C39   C40   S    
C2    C11   S    
C1    O1    A    
C20   H6    S    
C2    O2    A    
Cu2   O2    S    
C7    C12   S    
C37   H24   S    
C18   N2    S    
C3    C5    A    
C24   C34   A    
C21   O7    A    
C32   C34   A    
C38   H25   S    
Cu1   Cu2   S    
C5    C28   S    
C9    C11   S    
C40   H30   S    
Cu2   O3    S    
C3    C35   A    
C16   C20   S    
Cu1   O4    S    
C16   C18   S    
C38   H26   S    
C22   O6    A    
C10   C12   S    
C39   H29   S    
C40   H31   S    
Cu2   O6    S    
C4    C6    A    
C16   N1    S    
C14   H22   S    
C15   C17   S    
C8    C14   S    
C31   H13   S    
C37   H23   S    
C2    O4    A    
C10   C13   S    
Cu1   N1    S    
C13   H21   S    
C25   C27   A    
C15   O9    S    
C26   C28   A    
C16   O10   S    
C24   H8    S    
C28   C30   A    
C12   C14   S    
O9    C37   S    
C29   C31   A    
C30   C32   A    
C4    C21   S    
C11   C13   S    
C37   C38   S    
C19   N1    S    
C8    C11   S    
Cu1   O5    S    
C15   N2    S    
C7    H19   S    
C23   C25   A    
C20   N2    S    
C38   H27   S    
C17   H3    S    
C36   H16   S    
O10   C39   S    
C7    C13   S    
C40   H32   S    
C8    C10   S    
C3    C22   S    
C22   O8    A    
Cu2   N2    S    
