data_mof_unit_987.cif
_audit_creation_date              2012-12-10T16:58:30-0500
_audit_creation_method            fapswitch 2.2
_symmetry_space_group_name_H-M    P1
_symmetry_Int_Tables_number       1
_space_group_crystal_system       triclinic
_cell_length_a                    7.849672
_cell_length_b                    8.590229
_cell_length_c                    23.368158
_cell_angle_alpha                 92.4513
_cell_angle_beta                  85.611018
_cell_angle_gamma                 92.536253
_cell_volume                      1568.33893979

loop_
_atom_site_label
_atom_site_type_symbol
_atom_type_description
_atom_site_fract_x
_atom_site_fract_y
_atom_site_fract_z
_atom_type_partial_charge
C1    C     C_R   0.543491 0.793743 0.500041 0.947409
C2    C     C_R   0.606644 0.399200 0.293472 0.553398
C3    C     C_R   0.393526 0.602269 0.766407 0.090336
C4    C     C_R   0.606222 0.396904 0.233636 0.090466
C5    C     C_R   0.507129 0.507631 0.791330 0.140436
C6    C     C_R   0.492667 0.491471 0.208665 0.140432
C7    C     C_2   0.559423 0.955820 0.510301 -0.037347
C8    C     C_2   0.440575 0.044180 0.489699 -0.037289
C9    C     C_R   0.501734 0.501305 0.610379 0.980261
C10   C     C_R   0.498262 0.498663 0.389622 0.980353
C11   C     C_R   0.375495 0.403844 0.120453 0.531101
C12   C     C_R   0.456508 0.206257 0.499958 0.947407
C13   C     C_R   0.624449 0.595104 0.879535 0.531086
C14   C     C_R   0.610624 0.591166 0.119153 0.527710
C15   C     C_R   0.389319 0.407797 0.880833 0.527735
C16   C     C_R   0.616703 0.594154 0.059397 -0.028804
C17   C     C_R   0.383286 0.404772 0.940588 -0.028832
C18   C     C_R   0.498104 0.499121 0.030063 -0.018462
C19   C     C_R   0.501896 0.499793 0.969923 -0.018461
C20   C     C_R   0.375682 0.403465 0.060731 -0.027491
C21   C     C_R   0.624312 0.595451 0.939256 -0.027460
C22   C     C_R   0.738349 0.688757 0.028484 -0.157936
C23   C     C_R   0.620163 0.415302 0.757358 -0.197713
C24   C     C_R   0.261655 0.310158 0.971501 -0.157942
C25   C     C_R   0.742227 0.689296 0.968859 -0.159149
C26   C     C_R   0.257782 0.309610 0.031126 -0.159135
C27   C     C_3   0.275062 0.704359 0.803691 -0.690596
C28   C     C_3   0.724576 0.294575 0.196400 -0.690538
C29   C     C_3   0.685726 0.013057 0.553729 -0.766954
C30   C     C_3   0.314261 0.986942 0.446274 -0.766962
C31   C     C_3   0.018685 0.396996 0.429712 -0.403490
C32   C     C_3   0.981316 0.603004 0.570288 -0.403388
C33   C     C_R   0.379733 0.584009 0.242593 -0.197863
C34   C     C_R   0.620098 0.414037 0.698087 0.535925
C35   C     C_R   0.379881 0.585580 0.301868 0.535973
C36   C     C_R   0.505461 0.505315 0.672486 -0.353868
C37   C     C_R   0.494497 0.494406 0.327514 -0.353813
C38   C     C_R   0.393179 0.600283 0.706573 0.553516
F1    F     F_    0.727903 0.319974 0.665981 -0.653527
F2    F     F_    0.272199 0.679847 0.333930 -0.653475
F3    F     F_    0.286464 0.692621 0.681476 -0.658359
F4    F     F_    0.713318 0.306939 0.318618 -0.658418
H1    H     H_    0.830878 0.762366 0.050205 0.191151
H2    H     H_    0.648588 0.213447 0.169071 0.226103
H3    H     H_    0.813068 0.367687 0.168412 0.243546
H4    H     H_    0.803107 0.223651 0.222032 0.289281
H5    H     H_    0.728870 0.915526 0.577940 0.216734
H6    H     H_    0.800815 0.069583 0.531511 0.264111
H7    H     H_    0.624993 0.095508 0.586204 0.275671
H8    H     H_    0.271124 0.084471 0.422060 0.216742
H9    H     H_    0.374976 0.904475 0.413801 0.275655
H10   H     H_    0.199169 0.930431 0.468497 0.264066
H11   H     H_    0.918349 0.321878 0.410267 0.224183
H12   H     H_    0.169123 0.236554 0.949779 0.191147
H13   H     H_    0.053135 0.493626 0.400447 0.242940
H14   H     H_    0.125755 0.321229 0.434407 0.187982
H15   H     H_    0.081654 0.678120 0.589734 0.224125
H16   H     H_    0.874247 0.678772 0.565593 0.187963
H17   H     H_    0.946864 0.506374 0.599553 0.243005
H18   H     H_    0.837468 0.763470 0.946114 0.189490
H19   H     H_    0.162544 0.235432 0.053871 0.189496
H20   H     H_    0.706855 0.343120 0.777229 0.197400
H21   H     H_    0.293084 0.656141 0.222686 0.197403
H22   H     H_    0.186613 0.631058 0.831614 0.243629
H23   H     H_    0.350955 0.785388 0.831082 0.226020
H24   H     H_    0.196502 0.775376 0.778100 0.289318
N1    N     N_R   0.492614 0.495810 0.147951 -0.327791
N2    N     N_R   0.507290 0.503175 0.852038 -0.327781
N3    N     N_2   0.950330 0.457950 0.484560 -0.031624
N4    N     N_2   0.049670 0.542050 0.515440 -0.031648
O1    O     O_R   0.389250 0.738570 0.503790 -0.611707
O2    O     O_2   0.739489 0.686187 0.849039 -0.548402
O3    O     O_2   0.721735 0.681909 0.148447 -0.544208
O4    O     O_2   0.278195 0.317078 0.851538 -0.544211
O5    O     O_R   0.610750 0.261430 0.496210 -0.611648
O6    O     O_R   0.678390 0.711620 0.493890 -0.636975
O7    O     O_R   0.321610 0.288380 0.506110 -0.636988
O8    O     O_R   0.355400 0.513520 0.588790 -0.575862
O9    O     O_R   0.644600 0.486480 0.411210 -0.575872
O10   O     O_R   0.644550 0.486570 0.578900 -0.615321
O11   O     O_R   0.355450 0.513430 0.421100 -0.615372
O12   O     O_2   0.260442 0.312762 0.150951 -0.548358
Zn1   Zn    Zn3+2 0.306930 0.518000 0.506610 0.990147
Zn2   Zn    Zn3+2 0.693070 0.482000 0.493390 0.990191

loop_
_geom_bond_atom_site_label_1
_geom_bond_atom_site_label_2
_ccdc_geom_bond_type
C30   H9    S    
C7    C29   S    
C32   H16   S    
O10   Zn2   S    
O6    Zn2   S    
C7    C8    D    
C29   H7    S    
C28   H4    S    
C1    O1    A    
C29   H5    S    
C10   C37   S    
C35   C37   A    
C26   H19   S    
C24   C26   A    
O9    Zn2   S    
O5    Zn2   S    
O7    Zn1   S    
C24   H12   S    
C18   C19   A    
C30   H10   S    
C4    C28   S    
O8    Zn1   S    
C23   H20   S    
C3    C38   A    
C22   C25   A    
C9    C36   S    
C14   N1    A    
C25   H18   S    
C31   H14   S    
C34   C36   A    
C8    C12   S    
C30   H8    S    
C32   H15   S    
C5    N2    S    
O11   Zn1   S    
C11   N1    A    
O1    Zn1   S    
C11   O12   S    
C28   H3    S    
C11   C20   A    
C17   C24   A    
C29   H6    S    
C34   F1    S    
C14   O3    S    
C38   F3    S    
C4    C6    A    
C17   C19   A    
C32   N4    S    
C28   H2    S    
C9    O10   A    
C2    C4    A    
C27   H23   S    
C22   H1    S    
C5    C23   A    
C33   H21   S    
C23   C34   A    
C12   O7    A    
C13   C21   A    
C31   H11   S    
N4    Zn1   S    
C6    N1    S    
C14   C16   A    
C15   C17   A    
C21   C25   A    
C16   C22   A    
C19   C21   A    
C1    C7    S    
C1    O6    A    
C3    C5    A    
C10   O9    A    
C13   O2    S    
C10   O11   A    
C6    C33   A    
C8    C30   S    
C36   C38   A    
C35   F2    S    
C27   H24   S    
C2    C37   A    
C20   C26   A    
C2    F4    S    
C15   N2    A    
C3    C27   S    
C33   C35   A    
C18   C20   A    
C9    O8    A    
N3    N4    D    
C27   H22   S    
C31   N3    S    
C15   O4    S    
C16   C18   A    
C12   O5    A    
N3    Zn2   S    
C32   H17   S    
C31   H13   S    
C13   N2    A    
