data_mof_unit_4969.cif
_audit_creation_date              2012-10-26T20:59:12-0400
_audit_creation_method            fapswitch 2.2
_symmetry_space_group_name_H-M    P1
_symmetry_Int_Tables_number       1
_space_group_crystal_system       triclinic
_cell_length_a                    15.888449
_cell_length_b                    9.194474
_cell_length_c                    7.809387
_cell_angle_alpha                 89.480114
_cell_angle_beta                  89.760705
_cell_angle_gamma                 90.696132
_cell_volume                      1140.69992557

loop_
_atom_site_label
_atom_site_type_symbol
_atom_type_description
_atom_site_fract_x
_atom_site_fract_y
_atom_site_fract_z
_atom_type_partial_charge
C1    C     C_1   0.499988 0.065181 0.500638 -0.044971
C2    C     C_3   0.977213 0.629079 0.556303 0.274396
C3    C     C_1   0.249954 0.492828 0.501666 -0.012890
C4    C     C_1   0.750046 0.507172 0.498334 -0.012890
C5    C     C_3   0.027918 0.518453 0.664274 -0.179466
C6    C     C_3   0.972081 0.481547 0.335726 -0.179466
C7    C     C_3   0.083068 0.492118 0.503594 0.003925
C8    C     C_3   0.916932 0.507882 0.496406 0.003924
C9    C     C_1   0.174554 0.489983 0.503027 -0.002964
C10   C     C_1   0.825446 0.510016 0.496974 -0.002965
C11   C     C_3   0.987373 0.149421 0.328878 -0.009871
C12   C     C_1   0.500012 0.934819 0.499362 -0.044971
C13   C     C_3   0.024164 0.031069 0.219662 -0.364031
C14   C     C_3   0.012627 0.850579 0.671122 -0.009870
C15   C     C_3   0.975837 0.968930 0.780338 -0.364031
C16   C     C_3   0.904349 0.342556 0.861483 -0.026521
C17   C     C_3   0.834043 0.248899 0.938646 -0.376508
C18   C     C_3   0.095650 0.657445 0.138516 -0.026523
C19   C     C_3   0.165958 0.751098 0.061355 -0.376508
C20   C     C_R   0.499963 0.219951 0.500473 0.549376
C21   C     C_R   0.500037 0.780049 0.499527 0.549376
C22   C     C_R   0.339482 0.497756 0.500392 0.540951
C23   C     C_R   0.660518 0.502243 0.499608 0.540952
C24   C     C_3   0.967407 0.397259 0.601518 0.257380
C25   C     C_3   0.032593 0.602741 0.398482 0.257380
C26   C     C_3   0.022787 0.370921 0.443697 0.274396
Cu1   Cu    Cu3+1 0.500010 0.500000 0.669080 1.030206
Cu2   Cu    Cu3+1 0.499990 0.500000 0.330920 1.030206
H1    H     H_    0.947551 0.469572 0.204026 0.075794
H2    H     H_    0.953746 0.921254 0.903575 0.130798
H3    H     H_    0.024008 0.054864 0.803226 0.143243
H4    H     H_    0.920766 0.016443 0.714837 0.217478
H5    H     H_    0.880487 0.456022 0.852614 0.148178
H6    H     H_    0.959443 0.340066 0.948536 0.132053
H7    H     H_    0.856644 0.137395 0.965346 0.141420
H8    H     H_    0.812567 0.297040 0.060990 0.106710
H9    H     H_    0.780008 0.243450 0.849052 0.177181
H10   H     H_    0.040556 0.659939 0.051464 0.132054
H11   H     H_    0.119510 0.543977 0.147382 0.148177
H12   H     H_    0.052449 0.530428 0.795974 0.075794
H13   H     H_    0.219994 0.756542 0.150948 0.177181
H14   H     H_    0.187433 0.702958 0.939009 0.106709
H15   H     H_    0.143359 0.862605 0.034658 0.141421
H16   H     H_    0.941400 0.209579 0.248854 0.115266
H17   H     H_    0.953562 0.099042 0.439110 0.184868
H18   H     H_    0.079234 0.983557 0.285163 0.217478
H19   H     H_    0.975992 0.945136 0.196774 0.143242
H20   H     H_    0.046255 0.078746 0.096425 0.130799
H21   H     H_    0.046438 0.900957 0.560889 0.184868
H22   H     H_    0.058600 0.790421 0.751146 0.115266
N1    N     N_1   0.499990 0.500000 0.076820 -0.080728
N2    N     N_1   0.500010 0.500000 0.923180 -0.080728
O1    O     O_R   0.500000 0.288400 0.642760 -0.496336
O2    O     O_3   0.945867 0.762508 0.612574 -0.557443
O3    O     O_3   0.928170 0.286725 0.700685 -0.582733
O4    O     O_3   0.071830 0.713275 0.299316 -0.582733
O5    O     O_R   0.500000 0.711600 0.357240 -0.496336
O6    O     O_R   0.500000 0.288400 0.357240 -0.495414
O7    O     O_R   0.500000 0.711600 0.642760 -0.495413
O8    O     O_R   0.379080 0.500000 0.642760 -0.500748
O9    O     O_R   0.620920 0.500000 0.357240 -0.500748
O10   O     O_R   0.379070 0.500000 0.357190 -0.498600
O11   O     O_R   0.620930 0.500000 0.642810 -0.498600
O12   O     O_3   0.054133 0.237492 0.387426 -0.557443

loop_
_geom_bond_atom_site_label_1
_geom_bond_atom_site_label_2
_ccdc_geom_bond_type
C13   H20   S    
C18   H11   S    
Cu1   O1    S    
C21   O5    A    
C3    C9    T    
C17   H8    S    
Cu2   O6    S    
C16   H5    S    
C22   O10   A    
C2    C5    S    
C3    C22   S    
C7    C25   S    
C25   O4    S    
C18   O4    S    
C16   H6    S    
Cu2   O9    S    
C23   O11   A    
C18   H10   S    
C16   O3    S    
C15   H4    S    
C6    C26   S    
Cu2   O5    S    
C24   O3    S    
C15   H3    S    
C11   C13   S    
C19   H14   S    
C14   H22   S    
C7    C26   S    
Cu1   O11   S    
C8    C10   S    
C14   O2    S    
C19   H15   S    
C21   O7    A    
C2    C25   S    
C5    C7    S    
Cu1   O8    S    
C22   O8    A    
C13   H18   S    
Cu2   N1    S    
C2    C8    S    
C11   H17   S    
C6    C25   S    
C16   C17   S    
C17   H9    S    
C4    C10   T    
N1    N2    T    
C14   H21   S    
C11   H16   S    
C23   O9    A    
C6    H1    S    
C17   H7    S    
Cu1   N2    S    
C15   H2    S    
C7    C9    S    
C18   C19   S    
C2    O2    S    
C5    H12   S    
Cu1   Cu2   S    
C13   H19   S    
C4    C23   S    
C26   O12   S    
C14   C15   S    
C5    C24   S    
C1    C20   S    
C6    C8    S    
Cu1   O7    S    
C8    C24   S    
C20   O6    A    
C12   C21   S    
C1    C12   T    
C19   H13   S    
C24   C26   S    
C20   O1    A    
C11   O12   S    
Cu2   O10   S    
