data_mof_unit_3035.cif
_audit_creation_date              2012-12-10T17:31:19-0500
_audit_creation_method            fapswitch 2.2
_symmetry_space_group_name_H-M    P1
_symmetry_Int_Tables_number       1
_space_group_crystal_system       triclinic
_cell_length_a                    19.267485
_cell_length_b                    18.672033
_cell_length_c                    12.310956
_cell_angle_alpha                 88.761558
_cell_angle_beta                  129.949097
_cell_angle_gamma                 91.161232
_cell_volume                      3394.44910525

loop_
_atom_site_label
_atom_site_type_symbol
_atom_type_description
_atom_site_fract_x
_atom_site_fract_y
_atom_site_fract_z
_atom_type_partial_charge
C1    C     C_R   0.617953 0.903480 0.661997 0.807869
C2    C     C_R   0.610603 0.103404 0.650666 0.821110
C3    C     C_R   0.117953 0.403481 0.661998 0.807856
C4    C     C_R   0.110603 0.603404 0.650666 0.821095
C5    C     C_R   0.228448 0.784995 0.023405 -0.015977
C6    C     C_R   0.244976 0.220001 0.033090 0.021909
C7    C     C_R   0.728448 0.284994 0.023406 -0.015980
C8    C     C_R   0.744976 0.719999 0.033085 0.021917
C9    C     C_R   0.660053 0.266016 0.029979 0.038556
C10   C     C_R   0.660825 0.682143 0.949992 0.030538
C11   C     C_R   0.160053 0.766018 0.029978 0.038555
C12   C     C_R   0.160826 0.182143 0.949992 0.030534
C13   C     C_R   0.586385 0.225349 0.920665 -0.170936
C14   C     C_R   0.592282 0.701339 0.807442 -0.106162
C15   C     C_R   0.086385 0.725350 0.920664 -0.170951
C16   C     C_R   0.092282 0.201341 0.807443 -0.106210
C17   C     C_R   0.585041 0.199053 0.814316 -0.172625
C18   C     C_R   0.603726 0.759904 0.748489 -0.156310
C19   C     C_R   0.085041 0.699054 0.814316 -0.172631
C20   C     C_R   0.103728 0.259907 0.748493 -0.156306
C21   C     C_R   0.285993 0.841891 0.106254 0.087205
C22   C     C_R   0.311789 0.200608 0.178071 0.076469
C23   C     C_R   0.785993 0.341891 0.106255 0.087194
C24   C     C_R   0.811791 0.700607 0.178066 0.076490
C25   C     C_R   0.240405 0.833177 0.248291 -0.293235
C26   C     C_R   0.219526 0.099548 0.145121 -0.281873
C27   C     C_R   0.740405 0.333175 0.248293 -0.293244
C28   C     C_R   0.719525 0.599552 0.145127 -0.281885
C29   C     C_R   0.670669 0.166098 0.732795 -0.149406
C30   C     C_R   0.696971 0.859777 0.772364 -0.134209
C31   C     C_R   0.170671 0.666097 0.732797 -0.149415
C32   C     C_R   0.196973 0.359780 0.772369 -0.134192
C33   C     C_R   0.685814 0.989614 0.292514 0.147693
C34   C     C_R   0.185819 0.489653 0.292516 0.147712
C35   C     C_R   0.346928 0.018942 0.624538 -0.041116
C36   C     C_R   0.846923 0.518926 0.624533 -0.041139
C37   C     C_R   0.317357 0.043928 0.694701 0.410985
C38   C     C_R   0.817342 0.543900 0.694690 0.410983
C39   C     C_R   0.383000 0.096689 0.339242 0.852789
C40   C     C_R   0.380398 0.904431 0.337060 0.834267
C41   C     C_R   0.883000 0.596689 0.339242 0.852797
C42   C     C_R   0.880398 0.404430 0.337061 0.834265
C43   C     C_R   0.379861 0.051100 0.842596 0.129366
C44   C     C_R   0.879843 0.551080 0.842584 0.129388
C45   C     C_R   0.467084 0.020526 0.921925 -0.133602
C46   C     C_R   0.967076 0.520525 0.921920 -0.133613
C47   C     C_R   0.492568 0.996184 0.843183 0.115237
C48   C     C_R   0.992569 0.496193 0.843184 0.115244
C49   C     C_R   0.530434 0.011356 0.074102 -0.083376
C50   C     C_R   0.030430 0.511364 0.074099 -0.083382
C51   C     C_R   0.622127 0.993579 0.142258 -0.044882
C52   C     C_R   0.122132 0.493614 0.142260 -0.044875
C53   C     C_R   0.643903 0.974145 0.056690 0.401266
C54   C     C_R   0.143919 0.474204 0.056694 0.401291
C55   C     C_R   0.571830 0.957987 0.915233 0.136989
C56   C     C_R   0.071851 0.458021 0.915247 0.136962
C57   C     C_R   0.505089 0.011832 0.159715 0.088106
C58   C     C_R   0.005085 0.511825 0.159713 0.088104
C59   C     C_R   0.655041 0.991908 0.368446 0.054950
C60   C     C_R   0.155044 0.491927 0.368447 0.054933
C61   C     C_R   0.664797 0.291507 0.141584 0.501500
C62   C     C_R   0.646582 0.625468 0.011126 0.513670
C63   C     C_R   0.164796 0.791508 0.141582 0.501498
C64   C     C_R   0.146583 0.125465 0.011121 0.513659
C65   C     C_R   0.303100 0.857390 0.232271 -0.159656
C66   C     C_R   0.302514 0.135836 0.225902 -0.120067
C67   C     C_R   0.803101 0.357388 0.232273 -0.159649
C68   C     C_R   0.802515 0.635838 0.225903 -0.120067
C69   C     C_R   0.742893 0.185161 0.733359 0.180347
C70   C     C_R   0.785510 0.886114 0.841263 0.107059
C71   C     C_R   0.242897 0.685159 0.733366 0.180356
C72   C     C_R   0.285511 0.386121 0.841274 0.107054
C73   C     C_R   0.311568 0.730813 0.836152 -0.180553
C74   C     C_R   0.359765 0.352203 0.962185 -0.131556
C75   C     C_R   0.811562 0.230819 0.836140 -0.180569
C76   C     C_R   0.859765 0.852190 0.962163 -0.131619
C77   C     C_R   0.309288 0.760358 0.935620 -0.190593
C78   C     C_R   0.347235 0.297182 0.025017 -0.138082
C79   C     C_R   0.809283 0.260364 0.935609 -0.190590
C80   C     C_R   0.847236 0.797169 0.024994 -0.138147
C81   C     C_R   0.733193 0.250952 0.926786 0.121789
C82   C     C_R   0.759747 0.773388 0.966131 0.156664
C83   C     C_R   0.233195 0.750950 0.926789 0.121786
C84   C     C_R   0.259747 0.273394 0.966141 0.156653
C85   C     C_R   0.662274 0.204427 0.823582 0.051721
C86   C     C_R   0.685837 0.798306 0.828526 0.083314
C87   C     C_R   0.162276 0.704426 0.823584 0.051708
C88   C     C_R   0.185838 0.298309 0.828531 0.083319
Cu1   Cu    Cu3+1 0.526340 0.000000 0.421010 0.998421
Cu2   Cu    Cu3+1 0.026340 0.500000 0.421010 0.998420
Cu3   Cu    Cu3+1 0.473640 1.000000 0.578990 0.955797
Cu4   Cu    Cu3+1 0.973640 0.500000 0.578990 0.955790
H1    H     H_    0.246343 0.850865 0.337138 0.178176
H2    H     H_    0.211975 0.049969 0.184260 0.163581
H3    H     H_    0.746343 0.350864 0.337140 0.178167
H4    H     H_    0.711974 0.549975 0.184271 0.163578
H5    H     H_    0.436235 0.017542 0.114252 0.187533
H6    H     H_    0.936230 0.517522 0.114250 0.187533
H7    H     H_    0.301232 0.020180 0.510010 0.152099
H8    H     H_    0.801228 0.520159 0.510005 0.152092
H9    H     H_    0.528459 0.215192 0.914737 0.203938
H10   H     H_    0.528152 0.672777 0.742232 0.206640
H11   H     H_    0.028459 0.715194 0.914735 0.203930
H12   H     H_    0.028153 0.172779 0.742230 0.206626
H13   H     H_    0.367367 0.791818 0.018475 0.179853
H14   H     H_    0.407008 0.270595 0.114702 0.182338
H15   H     H_    0.867361 0.291826 0.018460 0.179848
H16   H     H_    0.907008 0.770577 0.114673 0.182353
H17   H     H_    0.368520 0.742987 0.840608 0.184334
H18   H     H_    0.427855 0.370441 0.011633 0.203526
H19   H     H_    0.868512 0.242996 0.840591 0.184314
H20   H     H_    0.927855 0.870425 0.011604 0.203551
H21   H     H_    0.521839 0.175741 0.724856 0.196581
H22   H     H_    0.547972 0.774996 0.639815 0.146098
H23   H     H_    0.021840 0.675741 0.724856 0.196584
H24   H     H_    0.047975 0.274998 0.639817 0.146090
H25   H     H_    0.702370 0.986167 0.481674 0.196663
H26   H     H_    0.202374 0.486191 0.481676 0.196666
N1    N     N_R   0.566260 1.000000 0.302220 -0.211842
N2    N     N_R   0.066260 0.500000 0.302220 -0.211843
N3    N     N_R   0.434410 1.000000 0.697680 -0.210209
N4    N     N_R   0.934410 0.500000 0.697680 -0.210208
O1    O     O_R   0.608610 0.924520 0.551740 -0.555232
O2    O     O_R   0.608610 0.075480 0.551740 -0.533420
O3    O     O_R   0.108610 0.424520 0.551740 -0.555221
O4    O     O_R   0.108610 0.575480 0.551740 -0.533425
O5    O     O_R   0.564110 0.924510 0.685150 -0.559656
O6    O     O_R   0.564110 0.075490 0.685150 -0.604879
O7    O     O_R   0.064110 0.424510 0.685150 -0.559655
O8    O     O_R   0.064110 0.575490 0.685150 -0.604889
O9    O     O_R   0.435880 0.075470 0.314850 -0.566537
O10   O     O_R   0.435880 0.924530 0.314850 -0.557049
O11   O     O_R   0.935880 0.575470 0.314850 -0.566533
O12   O     O_R   0.935880 0.424530 0.314850 -0.557054
O13   O     O_R   0.391380 0.075460 0.448260 -0.596261
O14   O     O_R   0.391380 0.924540 0.448260 -0.583537
O15   O     O_R   0.891380 0.575460 0.448260 -0.596255
O16   O     O_R   0.891380 0.424540 0.448260 -0.583546
O17   O     O_3   0.728121 0.947424 0.116559 -0.527271
C89   C     C_3   0.763900 0.987191 0.063462 -0.220084
H27   H     H_    0.770962 0.044950 0.089998 0.149408
H28   H     H_    0.721949 0.980988 0.947119 0.156140
H29   H     H_    0.832437 0.966776 0.114164 0.205331
O18   O     O_3   0.228156 0.447527 0.116567 -0.527273
C90   C     C_3   0.263881 0.487295 0.063384 -0.220077
H30   H     H_    0.270864 0.545069 0.089791 0.149366
H31   H     H_    0.221936 0.481028 0.947055 0.156178
H32   H     H_    0.332448 0.466932 0.114130 0.205301
I1    I     I_    0.828941 0.979880 0.420710 -0.208649
I2    I     I_    0.328950 0.479949 0.420716 -0.208585
I3    I     I_    0.344161 0.125964 0.925052 -0.356181
I4    I     I_    0.844119 0.625931 0.925025 -0.356144
O19   O     O_3   0.231415 0.071943 0.617455 -0.553482
C91   C     C_3   0.168475 0.014821 0.560828 -0.225579
H33   H     H_    0.184140 0.977457 0.645671 0.196578
H34   H     H_    0.165258 0.985261 0.480175 0.133239
H35   H     H_    0.100317 0.037142 0.507131 0.206241
O20   O     O_3   0.731391 0.571898 0.617439 -0.553477
C92   C     C_3   0.668466 0.514764 0.560800 -0.225561
H36   H     H_    0.684141 0.477387 0.645634 0.196563
H37   H     H_    0.665258 0.485220 0.480139 0.133225
H38   H     H_    0.600302 0.537069 0.507108 0.206262
I5    I     I_    0.537824 0.848419 0.896131 -0.372706
I6    I     I_    0.037901 0.348444 0.896232 -0.372710
O21   O     O_3   0.592197 0.280656 0.138390 -0.598750
C93   C     C_3   0.618024 0.234379 0.250245 -0.274695
H39   H     H_    0.652472 0.185615 0.255192 0.178546
H40   H     H_    0.556302 0.216008 0.232269 0.211304
H41   H     H_    0.661245 0.263380 0.352271 0.194204
O22   O     O_3   0.562917 0.592349 0.936283 -0.553132
C94   C     C_3   0.520339 0.618581 0.987026 -0.244918
H42   H     H_    0.448448 0.601740 0.914322 0.231436
H43   H     H_    0.521081 0.678263 0.989291 0.159005
H44   H     H_    0.552077 0.595969 0.093928 0.163235
O23   O     O_3   0.092198 0.780655 0.138390 -0.598761
C95   C     C_3   0.118027 0.734377 0.250246 -0.274696
H45   H     H_    0.152478 0.685614 0.255193 0.178542
H46   H     H_    0.056306 0.716003 0.232270 0.211297
H47   H     H_    0.161247 0.763377 0.352272 0.194218
O24   O     O_3   0.062920 0.092344 0.936275 -0.553138
C96   C     C_3   0.020329 0.118590 0.986987 -0.244927
H48   H     H_    0.021059 0.178273 0.989212 0.159008
H49   H     H_    0.052065 0.095997 0.093902 0.163238
H50   H     H_    0.948441 0.101740 0.914285 0.231449
I7    I     I_    0.282957 0.928795 0.987933 -0.365199
I8    I     I_    0.413305 0.271988 0.342378 -0.327633
I9    I     I_    0.782937 0.428798 0.987926 -0.365177
I10   I     I_    0.913319 0.771984 0.342365 -0.327645
I11   I     I_    0.759660 0.152221 0.587326 -0.407673
I12   I     I_    0.816608 0.980040 0.783926 -0.372732
I13   I     I_    0.259662 0.652223 0.587329 -0.407640
I14   I     I_    0.316609 0.480041 0.783922 -0.372735

loop_
_geom_bond_atom_site_label_1
_geom_bond_atom_site_label_2
_ccdc_geom_bond_type
C28   H4    S    
C26   H2    S    
C54   O18   S    
C94   H42   S    
C25   H1    S    
O21   C93   S    
C42   O16   A    
C14   C18   A    
C53   C55   A    
C27   H3    S    
C58   H6    S    
C89   H29   S    
Cu4   O16   S    
C18   H22   S    
Cu3   O13   S    
C41   O11   A    
C90   H30   S    
C34   I2    S    
C17   H21   S    
C32   C72   A    
C39   O13   A    
C96   H48   S    
C15   C19   A    
C40   O14   A    
C18   C86   A    
Cu1   O10   S    
Cu3   O5    S    
C2    C29   S    
C9    C61   A    
C28   C68   A    
C89   H28   S    
C5    C11   A    
C19   C87   A    
C48   N4    A    
C28   C62   A    
C64   O24   S    
C14   H10   S    
O22   C94   S    
C77   C83   A    
C20   H24   S    
C6    C22   A    
C49   C57   A    
C48   C56   A    
C25   C63   A    
C23   C67   A    
C9    C13   A    
C22   C66   A    
C26   C64   A    
C27   C61   A    
C30   C70   A    
C11   C15   A    
C16   H12   S    
C95   H47   S    
Cu3   O14   S    
C12   C16   A    
C52   C54   A    
C49   C51   A    
C50   C52   A    
C76   C80   A    
C92   H37   S    
C60   H26   S    
C45   C49   A    
C30   C86   A    
C29   C85   A    
C76   H20   S    
C57   N1    A    
C21   C65   A    
C31   C71   A    
C40   O10   A    
C59   H25   S    
C3    O7    A    
C34   C60   A    
C75   H19   S    
C93   H39   S    
C10   C62   A    
C35   H7    S    
Cu4   O15   S    
C6    C12   A    
C90   H31   S    
C44   C46   A    
C41   C68   S    
C29   C69   A    
C45   C47   A    
C2    O6    A    
C62   O22   S    
C94   H44   S    
C54   C56   A    
C6    C84   A    
Cu3   O6    S    
C79   H15   S    
C26   C66   A    
Cu2   O12   S    
Cu1   N1    S    
C35   N3    A    
C93   H40   S    
C31   C87   A    
C89   H27   S    
C38   O20   S    
C91   H35   S    
C72   C74   A    
C10   C14   A    
C96   H49   S    
C69   I11   S    
C79   C81   A    
Cu2   O11   S    
C4    O8    A    
Cu1   O1    S    
C82   C86   A    
C51   C53   A    
C84   C88   A    
C22   I8    S    
C36   N4    A    
C1    O1    A    
C38   C44   A    
Cu4   N4    S    
C94   H43   S    
Cu2   Cu4   S    
C92   H36   S    
C19   H23   S    
C16   C20   A    
C57   H5    S    
C58   N2    A    
C80   H16   S    
Cu2   O4    S    
C92   H38   S    
C25   C65   A    
C36   H8    S    
C27   C67   A    
C44   I4    S    
C63   O23   S    
C43   C45   A    
C91   H33   S    
C80   C82   A    
C95   H45   S    
C7    C81   A    
C40   C65   S    
C70   C76   A    
C42   C67   S    
C39   C66   S    
C17   C85   A    
C37   C43   A    
Cu1   Cu3   S    
C13   H9    S    
C90   H32   S    
C43   I3    S    
O24   C96   S    
C70   I12   S    
C47   C55   A    
C96   H50   S    
C41   O15   A    
C7    C9    A    
C12   C64   A    
C46   C50   A    
C59   N1    A    
C35   C37   A    
C53   O17   S    
C91   H34   S    
C8    C10   A    
C1    O5    A    
O18   C90   S    
C83   C87   A    
C74   H18   S    
O17   C89   S    
C3    O3    A    
C5    C83   A    
C21   I7    S    
Cu1   O2    S    
C2    O2    A    
C33   C51   A    
C56   I6    S    
C34   C52   A    
Cu1   O9    S    
C4    O4    A    
C24   I10   S    
C71   I13   S    
C37   O19   S    
C77   H13   S    
Cu4   O7    S    
C55   I5    S    
O23   C95   S    
C33   I1    S    
C23   I9    S    
O20   C92   S    
C39   O9    A    
C42   O12   A    
C7    C23   A    
C20   C88   A    
C36   C38   A    
C1    C30   S    
C8    C24   A    
Cu2   O3    S    
C78   H14   S    
C69   C75   A    
C61   O21   S    
C73   H17   S    
C3    C32   S    
C4    C31   S    
C47   N3    A    
C24   C68   A    
C60   N2    A    
C13   C17   A    
C46   C48   A    
C78   C84   A    
C8    C82   A    
Cu3   N3    S    
C5    C21   A    
C93   H41   S    
C33   C59   A    
C74   C78   A    
C71   C73   A    
C73   C77   A    
Cu4   O8    S    
C15   H11   S    
O19   C91   S    
C11   C63   A    
C75   C79   A    
C72   I14   S    
C81   C85   A    
C50   C58   A    
Cu2   N2    S    
C95   H46   S    
C32   C88   A    
