data_mof_unit_191.cif
_audit_creation_date              2012-12-10T18:36:09-0500
_audit_creation_method            fapswitch 2.2
_symmetry_space_group_name_H-M    P1
_symmetry_Int_Tables_number       1
_space_group_crystal_system       triclinic
_cell_length_a                    14.932051
_cell_length_b                    15.294094
_cell_length_c                    19.105973
_cell_angle_alpha                 90.817968
_cell_angle_beta                  105.791945
_cell_angle_gamma                 81.548965
_cell_volume                      4151.48117285

loop_
_atom_site_label
_atom_site_type_symbol
_atom_type_description
_atom_site_fract_x
_atom_site_fract_y
_atom_site_fract_z
_atom_type_partial_charge
C1    C     C_R   0.440664 0.663358 0.489945 0.909291
C2    C     C_R   0.559204 0.336631 0.510747 0.877998
C3    C     C_R   0.403373 0.757855 0.492944 -0.163614
C4    C     C_R   0.596913 0.241814 0.524411 -0.156940
C5    C     C_R   0.280199 0.880897 0.497327 0.160020
C6    C     C_R   0.722730 0.115937 0.557646 0.186519
C7    C     C_R   0.307320 0.790275 0.485162 0.148327
C8    C     C_R   0.694033 0.208036 0.544097 0.136434
C9    C     C_R   0.468910 0.815599 0.510747 -0.247836
C10   C     C_R   0.531917 0.184484 0.521590 -0.252021
C11   C     C_R   0.446044 0.900764 0.533403 0.031288
C12   C     C_R   0.559756 0.097923 0.548880 0.014404
C13   C     C_R   0.350410 0.935775 0.525472 -0.035671
C14   C     C_R   0.656395 0.061367 0.565413 -0.004936
C15   C     C_R   0.517455 0.953666 0.558399 -0.023173
C16   C     C_R   0.491456 0.045252 0.554226 -0.036134
C17   C     C_R   0.399347 0.080191 0.558496 0.152821
C18   C     C_R   0.613694 0.918351 0.588452 0.136489
C19   C     C_R   0.328936 0.024447 0.546206 0.158326
C20   C     C_R   0.683722 0.972432 0.591633 0.143757
C21   C     C_R   0.853214 0.615101 0.625827 0.079834
C22   C     C_R   0.158049 0.359274 0.389013 0.064134
C23   C     C_R   0.503443 0.497552 0.634801 0.935345
C24   C     C_R   0.496132 0.503089 0.364399 0.906412
C25   C     C_R   0.760187 0.599077 0.601292 -0.042293
C26   C     C_R   0.248861 0.381803 0.412218 -0.025949
C27   C     C_R   0.790258 0.519937 0.501069 -0.082261
C28   C     C_R   0.204026 0.492284 0.488851 -0.066647
C29   C     C_R   0.883769 0.537612 0.519032 -0.056140
C30   C     C_R   0.109819 0.476898 0.467181 -0.055775
C31   C     C_R   0.913409 0.592600 0.579549 0.052377
C32   C     C_R   0.085243 0.411813 0.413538 0.051006
C33   C     C_R   0.948567 0.500879 0.479794 0.061246
C34   C     C_R   0.040950 0.522434 0.499161 0.056805
C35   C     C_R   0.061166 0.590473 0.548879 -0.273860
C36   C     C_R   0.923721 0.443869 0.421420 -0.301278
C37   C     C_R   0.999750 0.625175 0.589228 0.200061
C38   C     C_R   0.989044 0.401841 0.387271 0.210590
C39   C     C_R   0.443802 0.548910 0.737729 0.113510
C40   C     C_R   0.530850 0.585622 0.267120 0.119280
C41   C     C_R   0.452586 0.551441 0.812396 0.145900
C42   C     C_R   0.535725 0.593908 0.195451 0.150229
C43   C     C_R   0.535278 0.507981 0.861832 -0.052554
C44   C     C_R   0.494289 0.535985 0.143191 -0.081541
C45   C     C_R   0.605596 0.453880 0.836711 0.119728
C46   C     C_R   0.432183 0.480832 0.157390 0.108190
C47   C     C_R   0.590416 0.443120 0.760622 0.072147
C48   C     C_R   0.427453 0.471625 0.230366 0.096119
C49   C     C_R   0.512021 0.495123 0.712359 -0.182283
C50   C     C_R   0.484703 0.518842 0.286050 -0.210601
C51   C     C_R   0.519520 0.531196 0.074421 0.330982
C52   C     C_R   0.543037 0.517420 0.939627 0.339785
H1    H     H_    0.229521 0.539264 0.528988 0.158590
H2    H     H_    0.760619 0.481215 0.455779 0.146280
H3    H     H_    0.305812 0.348266 0.392773 0.167321
H4    H     H_    0.710773 0.619487 0.632699 0.155679
H5    H     H_    0.123248 0.620997 0.555584 0.149471
H6    H     H_    0.852694 0.431352 0.398957 0.136309
H7    H     H_    0.457992 0.208353 0.498530 0.193753
H8    H     H_    0.539653 0.793120 0.507313 0.195489
N1    N     N_R   0.560963 0.444864 0.983800 -0.205286
N2    N     N_R   0.504970 0.604349 0.031461 -0.142352
N3    N     N_R   0.551137 0.451812 0.050670 -0.206184
N4    N     N_R   0.517200 0.597613 0.965269 -0.148182
N5    N     N_R   0.731690 0.552730 0.540620 -0.112876
N6    N     N_R   0.268310 0.447270 0.459380 -0.123621
O1    O     O_R   0.383120 0.605620 0.479520 -0.574297
O2    O     O_R   0.616880 0.394380 0.520480 -0.572357
O3    O     O_R   0.531890 0.639510 0.505590 -0.616715
O4    O     O_R   0.468110 0.360490 0.494410 -0.630797
O5    O     O_R   0.425590 0.483060 0.588820 -0.591110
O6    O     O_R   0.574410 0.516940 0.411180 -0.591304
O7    O     O_R   0.574360 0.516950 0.614890 -0.627800
O8    O     O_R   0.425640 0.483050 0.385110 -0.626925
Zn1   Zn    Zn3+2 0.400660 0.477370 0.482600 0.930574
Zn2   Zn    Zn3+2 0.599340 0.522630 0.517400 0.933053
N7    N     N_2   0.365522 0.599271 0.687172 -0.296963
H9    H     H_    0.301559 0.598736 0.697719 0.230441
C53   C     C_3   0.381136 0.686461 0.669462 -0.803144
H10   H     H_    0.391896 0.728057 0.718314 0.229159
H11   H     H_    0.318937 0.718749 0.627057 0.230467
H12   H     H_    0.443753 0.681962 0.648103 0.250715
N8    N     N_2   0.562895 0.650100 0.319087 -0.283203
H13   H     H_    0.524291 0.712446 0.309678 0.215352
C54   C     C_3   0.663348 0.647523 0.349245 -0.734306
H14   H     H_    0.687636 0.702606 0.325744 0.208802
H15   H     H_    0.703127 0.583395 0.339202 0.229621
H16   H     H_    0.678438 0.656968 0.408715 0.255847
N9    N     N_2   0.017641 0.703190 0.628991 -0.326763
H17   H     H_    0.001938 0.758933 0.595700 0.227343
C55   C     C_3   0.108083 0.698959 0.682545 -0.868067
H18   H     H_    0.104060 0.752526 0.721860 0.252917
H19   H     H_    0.163277 0.708953 0.655849 0.237460
H20   H     H_    0.127505 0.634539 0.713106 0.254988
N10   N     N_2   0.954699 0.353801 0.323724 -0.332076
H21   H     H_    0.904099 0.316349 0.327764 0.223262
C56   C     C_3   0.926005 0.407218 0.257269 -0.819856
H22   H     H_    0.906281 0.364232 0.209908 0.242436
H23   H     H_    0.984744 0.440888 0.251341 0.247725
H24   H     H_    0.864219 0.457570 0.257367 0.245470
C57   C     C_3   0.885617 0.646325 0.703578 -0.407477
C58   C     C_3   0.869350 0.583305 0.758852 -0.921740
H25   H     H_    0.793106 0.585248 0.753120 0.259769
H26   H     H_    0.901596 0.514696 0.751768 0.272361
H27   H     H_    0.902448 0.603534 0.814887 0.255331
H28   H     H_    0.961564 0.649527 0.721186 0.261317
H29   H     H_    0.847120 0.712897 0.708477 0.202033
C59   C     C_3   0.141213 0.278388 0.341874 -0.373437
C60   C     C_3   0.229245 0.215287 0.337403 -0.971204
H30   H     H_    0.268253 0.246210 0.304935 0.260329
H31   H     H_    0.276082 0.196140 0.392589 0.259796
H32   H     H_    0.207897 0.154277 0.309731 0.262123
H33   H     H_    0.098650 0.238426 0.364462 0.224561
H34   H     H_    0.101840 0.300547 0.285436 0.240192
N11   N     N_2   0.378532 0.598152 0.838547 -0.289788
H35   H     H_    0.345566 0.656804 0.811350 0.235099
C61   C     C_3   0.313290 0.543591 0.852028 -0.795991
H36   H     H_    0.274683 0.516051 0.800341 0.226828
H37   H     H_    0.261637 0.584138 0.876001 0.242555
H38   H     H_    0.351185 0.488509 0.891059 0.252128
N12   N     N_2   0.587578 0.656277 0.175903 -0.291977
H39   H     H_    0.655054 0.655295 0.208532 0.233827
C62   C     C_3   0.536096 0.744143 0.155904 -0.758728
H40   H     H_    0.527943 0.780568 0.204894 0.219929
H41   H     H_    0.465466 0.740980 0.118141 0.253347
H42   H     H_    0.575560 0.781275 0.128001 0.239119
C63   C     C_3   0.696792 0.410836 0.890748 -0.389238
C64   C     C_3   0.759410 0.479599 0.924561 -0.859132
H43   H     H_    0.827413 0.445698 0.959591 0.245058
H44   H     H_    0.773882 0.518543 0.881308 0.259279
H45   H     H_    0.725926 0.525429 0.958729 0.264743
H46   H     H_    0.682169 0.372174 0.933749 0.215247
H47   H     H_    0.739467 0.361108 0.866159 0.211174
C65   C     C_3   0.372127 0.432773 0.094340 -0.363779
C66   C     C_3   0.267018 0.469015 0.075109 -0.871778
H48   H     H_    0.230509 0.432765 0.105979 0.261937
H49   H     H_    0.255547 0.541030 0.084986 0.264266
H50   H     H_    0.233944 0.458976 0.016560 0.241561
H51   H     H_    0.391089 0.439230 0.042961 0.217774
H52   H     H_    0.384526 0.360394 0.105567 0.184896
C67   C     C_3   0.650458 0.370370 0.730499 -0.376228
C68   C     C_3   0.743693 0.396309 0.725328 -0.821904
H53   H     H_    0.787427 0.337651 0.710581 0.232393
H54   H     H_    0.731816 0.448284 0.682783 0.288653
H55   H     H_    0.783982 0.420821 0.777432 0.253678
H56   H     H_    0.611644 0.350951 0.675677 0.193487
H57   H     H_    0.663676 0.308611 0.763903 0.181772
C69   C     C_3   0.362830 0.411625 0.248286 -0.335043
C70   C     C_3   0.268554 0.464158 0.252796 -0.830705
H58   H     H_    0.216678 0.418167 0.249794 0.231615
H59   H     H_    0.274824 0.500568 0.303835 0.275958
H60   H     H_    0.239825 0.514037 0.207836 0.254401
H61   H     H_    0.347343 0.360095 0.207531 0.189957
H62   H     H_    0.398085 0.371670 0.298816 0.187553
N13   N     N_2   0.243912 0.053369 0.566077 -0.287794
H63   H     H_    0.218169 0.006734 0.590570 0.233179
C71   C     C_3   0.173011 0.117678 0.518822 -0.786918
H64   H     H_    0.107218 0.089016 0.496624 0.250032
H65   H     H_    0.197075 0.139688 0.472830 0.243771
H66   H     H_    0.156484 0.176028 0.550755 0.235321
N14   N     N_2   0.779359 0.941637 0.629499 -0.276547
H67   H     H_    0.789592 0.925998 0.683719 0.221406
C72   C     C_3   0.831979 0.878077 0.592987 -0.790930
H68   H     H_    0.895924 0.903932 0.588768 0.263307
H69   H     H_    0.789543 0.863352 0.537785 0.233602
H70   H     H_    0.855442 0.815430 0.625217 0.219715
N15   N     N_2   0.762356 0.266444 0.554148 -0.277593
H71   H     H_    0.817538 0.253219 0.600481 0.205434
C73   C     C_3   0.792203 0.285216 0.490751 -0.768494
H72   H     H_    0.836351 0.226860 0.476576 0.224426
H73   H     H_    0.836600 0.338347 0.503510 0.235747
H74   H     H_    0.730585 0.306969 0.443675 0.240026
N16   N     N_2   0.238535 0.732206 0.465398 -0.290935
H75   H     H_    0.187408 0.738155 0.492811 0.197317
C74   C     C_3   0.206317 0.713481 0.388858 -0.732074
H76   H     H_    0.135225 0.751192 0.364876 0.216983
H77   H     H_    0.201622 0.641884 0.382907 0.245924
H78   H     H_    0.255240 0.730582 0.358240 0.229431
N17   N     N_2   0.183519 0.918729 0.473764 -0.301071
H79   H     H_    0.136658 0.881041 0.484213 0.212704
C75   C     C_3   0.154563 0.955500 0.400247 -0.773081
H80   H     H_    0.080112 0.987712 0.387314 0.226079
H81   H     H_    0.160811 0.902788 0.360624 0.239514
H82   H     H_    0.198761 0.005944 0.394512 0.252930
N18   N     N_2   0.814418 0.077125 0.554766 -0.271916
H83   H     H_    0.867728 0.113501 0.576572 0.221214
C76   C     C_3   0.817278 0.042749 0.484108 -0.788956
H84   H     H_    0.889915 0.011103 0.486391 0.227047
H85   H     H_    0.795116 0.096190 0.441671 0.229110
H86   H     H_    0.769087 0.992846 0.467623 0.250980
N19   N     N_2   0.382579 0.166667 0.585880 -0.302373
H87   H     H_    0.315797 0.200901 0.566621 0.250241
C77   C     C_3   0.421565 0.173741 0.663444 -0.759780
H88   H     H_    0.410123 0.244040 0.678632 0.233938
H89   H     H_    0.498539 0.150221 0.679420 0.243280
H90   H     H_    0.386529 0.134191 0.693462 0.240677
N20   N     N_2   0.638291 0.831806 0.621650 -0.312291
H91   H     H_    0.703315 0.798345 0.622137 0.235871
C78   C     C_3   0.615027 0.823569 0.689721 -0.794764
H92   H     H_    0.632033 0.753255 0.708754 0.237077
H93   H     H_    0.538683 0.845190 0.682651 0.257091
H94   H     H_    0.656437 0.864011 0.731608 0.232068

loop_
_geom_bond_atom_site_label_1
_geom_bond_atom_site_label_2
_ccdc_geom_bond_type
C57   H29   S    
C66   H50   S    
N7    H9    S    
C57   C58   S    
C27   C29   A    
C19   N13   S    
C73   H72   S    
C15   C18   A    
C2    C4    S    
N10   H21   S    
C68   H55   S    
C25   H4    S    
O6    Zn2   S    
C64   H43   S    
C56   H22   S    
C27   H2    S    
C70   H58   S    
C66   H48   S    
C47   C49   A    
N16   H75   S    
C17   N19   S    
C21   C31   A    
C6    N18   S    
C71   H64   S    
N5    Zn2   S    
C22   C32   A    
O3    Zn2   S    
C27   N5    A    
C39   N7    S    
C72   H69   S    
C23   O7    A    
C2    O2    A    
C52   N1    A    
C61   H37   S    
C65   H52   S    
C22   C59   S    
C43   C52   S    
C23   C49   S    
N13   C71   S    
C20   N14   S    
N11   H35   S    
C29   C33   A    
C33   C36   A    
C59   C60   S    
C74   H77   S    
C58   H27   S    
N1    N3    A    
C34   C35   A    
C59   H34   S    
N20   C78   S    
C63   H46   S    
C5    N17   S    
C76   H86   S    
N2    N4    A    
C62   H41   S    
C56   H23   S    
C11   C15   A    
C12   C16   A    
C16   C17   A    
N11   C61   S    
C38   N10   S    
C78   H94   S    
C32   C38   A    
N9    C55   S    
C5    C13   A    
C4    C8    A    
C21   C57   S    
C54   H15   S    
C78   H92   S    
C71   H65   S    
C70   H59   S    
C26   H3    S    
C41   C43   A    
C40   N8    S    
C58   H25   S    
C51   N2    A    
C42   C44   A    
C65   H51   S    
C41   N11   S    
N14   C72   S    
C44   C46   A    
N14   H67   S    
C74   H78   S    
C45   C47   A    
C24   C50   S    
C75   H81   S    
C46   C48   A    
N13   H63   S    
C76   H85   S    
O8    Zn1   S    
C30   C34   A    
C36   H6    S    
N19   H87   S    
C26   N6    A    
C23   O5    A    
C62   H40   S    
C72   H70   S    
C51   N3    A    
C69   C70   S    
C39   C41   A    
C52   N4    A    
C60   H32   S    
N15   H71   S    
C5    C7    A    
C13   C19   A    
C17   C19   A    
C62   H42   S    
C6    C8    A    
C77   H89   S    
C54   H14   S    
C55   H19   S    
C1    O3    A    
C31   C37   A    
N15   C73   S    
C1    C3    S    
C59   H33   S    
C75   H80   S    
C28   N6    A    
N19   C77   S    
C3    C9    A    
C8    N15   S    
C14   C20   A    
C6    C14   A    
C43   C45   A    
N8    H13   S    
C77   H90   S    
C18   N20   S    
N10   C56   S    
C33   C34   A    
N7    C53   S    
C25   N5    A    
C58   H26   S    
C9    C11   A    
N12   H39   S    
N16   C74   S    
C10   C12   A    
C67   H56   S    
C44   C51   S    
N8    C54   S    
C12   C14   A    
C71   H66   S    
O7    Zn2   S    
C68   H54   S    
C53   H10   S    
C70   H60   S    
O1    Zn1   S    
C69   H61   S    
C4    C10   A    
C63   C64   S    
C64   H45   S    
C55   H18   S    
C56   H24   S    
C36   C38   A    
C24   O6    A    
C53   H11   S    
C73   H73   S    
C54   H16   S    
C57   H28   S    
C66   H49   S    
C21   C25   A    
C30   C32   A    
C75   H82   S    
C35   C37   A    
C48   C69   S    
C63   H47   S    
C40   C42   A    
C64   H44   S    
C53   H12   S    
C28   H1    S    
C39   C49   A    
C65   C66   S    
C46   C65   S    
O2    Zn2   S    
C47   C67   S    
C3    C7    A    
C37   N9    S    
C35   H5    S    
C9    H8    S    
C60   H31   S    
C10   H7    S    
C28   C30   A    
C29   C31   A    
C74   H76   S    
C2    O4    A    
C67   C68   S    
C55   H20   S    
O5    Zn1   S    
C11   C13   A    
C24   O8    A    
N18   H83   S    
C45   C63   S    
C69   H62   S    
C40   C50   A    
N6    Zn1   S    
C7    N16   S    
C48   C50   A    
C1    O1    A    
C61   H38   S    
C18   C20   A    
N20   H91   S    
N12   C62   S    
C72   H68   S    
N18   C76   S    
C67   H57   S    
N17   H79   S    
C76   H84   S    
C77   H88   S    
C22   C26   A    
C60   H30   S    
O4    Zn1   S    
C78   H93   S    
C68   H53   S    
C73   H74   S    
N9    H17   S    
C61   H36   S    
C15   C16   A    
C42   N12   S    
N17   C75   S    
