data_mof_unit_814.cif
_audit_creation_date              2012-12-11T14:03:55-0500
_audit_creation_method            fapswitch 2.2
_symmetry_space_group_name_H-M    P1
_symmetry_Int_Tables_number       1
_space_group_crystal_system       triclinic
_cell_length_a                    19.387053
_cell_length_b                    11.091224
_cell_length_c                    18.897281
_cell_angle_alpha                 90.528757
_cell_angle_beta                  91.27491
_cell_angle_gamma                 90.135485
_cell_volume                      4062.21721686

loop_
_atom_site_label
_atom_site_type_symbol
_atom_type_description
_atom_site_fract_x
_atom_site_fract_y
_atom_site_fract_z
_atom_type_partial_charge
C1    C     C_R   0.238648 0.465928 0.647998 0.560379
C2    C     C_R   0.992225 0.658549 0.575409 -0.023827
C3    C     C_3   0.062138 0.332946 0.067474 -0.372338
C4    C     C_3   0.158655 0.082142 0.569440 0.013171
C5    C     C_3   0.153776 0.166429 0.508344 -0.391960
C6    C     C_3   0.833398 0.066119 0.436568 0.023696
C7    C     C_3   0.836172 0.155747 0.496453 -0.383464
C8    C     C_3   0.694645 0.623149 0.580448 0.000595
C9    C     C_3   0.623771 0.679022 0.581033 -0.371316
C10   C     C_3   0.335281 0.595819 0.425353 0.015377
C11   C     C_3   0.344040 0.684586 0.485177 -0.380468
C12   C     C_3   0.088671 0.883582 0.355760 -0.014776
C13   C     C_R   0.503004 0.169671 0.427408 -0.046114
C14   C     C_3   0.101061 0.883329 0.276477 -0.329273
C15   C     C_3   0.931987 0.967803 0.689514 -0.009067
C16   C     C_3   0.998061 0.011728 0.726897 -0.364005
C17   C     C_3   0.587489 0.387337 0.357186 -0.016848
C18   C     C_3   0.599749 0.385652 0.277851 -0.327237
C19   C     C_3   0.430433 0.463748 0.691206 -0.008224
C20   C     C_3   0.496888 0.504191 0.729175 -0.365503
C21   C     C_R   0.490952 0.157698 0.575837 -0.013884
C22   C     C_R   0.004336 0.894585 0.437323 0.313828
C23   C     C_R   0.970453 0.876514 0.581588 0.331648
C24   C     C_R   0.502803 0.394745 0.438405 0.309050
C25   C     C_R   0.468231 0.374803 0.582391 0.321696
C26   C     C_R   0.997081 0.996750 0.479276 -0.100752
C27   C     C_R   0.981501 0.988648 0.550133 -0.122044
C28   C     C_R   0.495765 0.496498 0.480823 -0.100797
C29   C     C_R   0.761930 0.468503 0.353156 0.539928
C30   C     C_R   0.479295 0.487430 0.551490 -0.119573
C31   C     C_R   0.986128 0.771163 0.541705 -0.005305
C32   C     C_R   0.997077 0.778387 0.467418 -0.018299
C33   C     C_R   0.484355 0.270169 0.542219 -0.012716
C34   C     C_R   0.495522 0.278043 0.467990 -0.022150
C35   C     C_R   0.994152 0.551967 0.533285 -0.023876
C36   C     C_R   0.016262 0.561441 0.462915 -0.025682
C37   C     C_R   0.492028 0.051124 0.533606 -0.024318
C38   C     C_R   0.514476 0.060908 0.463265 -0.024788
C39   C     C_R   0.977657 0.435116 0.559023 0.140515
C40   C     C_R   0.739840 0.963779 0.649955 0.568396
C41   C     C_R   0.040548 0.457168 0.427189 0.145358
C42   C     C_R   0.478361 0.933442 0.559995 0.131406
C43   C     C_R   0.541851 0.957572 0.428606 0.139655
C44   C     C_R   0.992132 0.334049 0.517749 -0.126886
C45   C     C_R   0.025160 0.344538 0.453725 -0.120401
C46   C     C_R   0.495359 0.833206 0.519355 -0.138259
C47   C     C_R   0.529448 0.844530 0.456052 -0.120977
C48   C     C_2   0.258770 0.927820 0.915813 0.243293
C49   C     C_2   0.740695 0.931839 0.085834 0.250547
C50   C     C_2   0.759889 0.434408 0.913677 0.252845
C51   C     C_R   0.261887 0.968607 0.352813 0.537261
C52   C     C_2   0.241767 0.425118 0.083749 0.242318
C53   C     C_2   0.252441 0.934192 0.074856 -0.079641
C54   C     C_2   0.746228 0.936200 0.925621 -0.064848
C55   C     C_2   0.754383 0.437240 0.073583 -0.065592
C56   C     C_2   0.248030 0.433328 0.924377 -0.079303
C57   C     C_R   0.224129 0.873229 0.647866 0.556683
C58   C     C_R   0.789297 0.838037 0.359601 0.584190
C59   C     C_R   0.725307 0.375578 0.648888 0.556183
C60   C     C_R   0.275570 0.374801 0.351787 0.553309
C61   C     C_2   0.231108 0.020532 0.029773 -0.123625
C62   C     C_2   0.292930 0.923552 0.546705 -0.161045
C63   C     C_2   0.769330 0.021190 0.971537 -0.125883
C64   C     C_2   0.732156 0.523240 0.028887 -0.124341
C65   C     C_2   0.269840 0.518884 0.970733 -0.126447
C66   C     C_2   0.218736 0.999123 0.954707 -0.138303
C67   C     C_2   0.782947 0.996857 0.045885 -0.137042
C68   C     C_2   0.718044 0.499553 0.954358 -0.137196
C69   C     C_2   0.281916 0.496805 0.045621 -0.138804
C70   C     C_2   0.990890 0.665409 0.910581 -0.047408
C71   C     C_2   0.015957 0.666303 0.093974 -0.066448
C72   C     C_2   0.485720 0.168072 0.907485 -0.065817
C73   C     C_2   0.718284 0.868177 0.462008 -0.126055
C74   C     C_2   0.510795 0.163495 0.090988 -0.046079
C75   C     C_2   0.991527 0.617813 0.034065 0.058804
C76   C     C_2   0.027601 0.638988 0.968608 0.076889
C77   C     C_2   0.474030 0.139284 0.032359 0.081478
C78   C     C_2   0.510043 0.118764 0.966630 0.054814
C79   C     C_R   0.027194 0.653784 0.646348 0.572265
C80   C     C_R   0.971342 0.656711 0.354867 0.541456
C81   C     C_R   0.527346 0.153558 0.646181 0.586481
C82   C     C_R   0.471460 0.156688 0.354815 0.541929
C83   C     C_R   0.238582 0.469670 0.851518 0.533567
C84   C     C_2   0.795189 0.412106 0.546440 -0.151054
C85   C     C_R   0.762010 0.470890 0.147611 0.532664
C86   C     C_R   0.738086 0.970958 0.852157 0.535865
C87   C     C_R   0.261485 0.969562 0.148265 0.527155
C88   C     C_R   0.228830 0.875318 0.851235 0.551228
C89   C     C_R   0.771185 0.875160 0.148805 0.544439
C90   C     C_R   0.728868 0.375870 0.851032 0.540895
C91   C     C_R   0.271240 0.374553 0.148593 0.545305
C92   C     C_R   0.024630 0.653646 0.844615 0.574593
C93   C     C_R   0.975821 0.653326 0.156090 0.560935
C94   C     C_R   0.524904 0.153690 0.844758 0.581017
C95   C     C_2   0.207784 0.412055 0.455078 -0.134986
C96   C     C_R   0.476207 0.153293 0.156408 0.552542
C97   C     C_2   0.233600 0.923751 0.578563 0.255566
C98   C     C_2   0.777995 0.883224 0.430356 0.262884
C99   C     C_2   0.740044 0.435426 0.583150 0.244181
C100  C     C_2   0.264458 0.429509 0.420172 0.258805
C101  C     C_2   0.257045 0.921705 0.423264 -0.024227
C102  C     C_2   0.750555 0.902251 0.584339 -0.024691
C103  C     C_2   0.756787 0.418546 0.423536 -0.023580
C104  C     C_2   0.243465 0.415180 0.577947 -0.003354
C105  C     C_2   0.296307 0.971826 0.475422 0.101725
C106  C     C_R   0.003948 0.669853 0.427022 -0.048285
C107  C     C_2   0.708781 0.928946 0.529462 0.078724
C108  C     C_2   0.799438 0.461089 0.475215 0.104649
C109  C     C_2   0.203891 0.463026 0.526049 0.102513
C110  C     C_3   0.375957 0.906114 0.902183 -0.008678
C111  C     C_3   0.438047 0.834797 0.928841 -0.372569
C112  C     C_3   0.624570 0.903236 0.113324 -0.001500
C113  C     C_3   0.584679 0.784761 0.113909 -0.354885
C114  C     C_3   0.875677 0.406710 0.884715 0.001405
C115  C     C_3   0.915927 0.288902 0.882983 -0.355339
C116  C     C_3   0.124486 0.402947 0.096003 -0.010404
Cr1   Cr    Cr6+3 0.113970 0.508630 0.747920 1.001605
Cr2   Cr    Cr6+3 0.887700 0.820070 0.250200 1.048402
Cr3   Cr    Cr6+3 0.612300 0.320070 0.749800 1.006244
Cr4   Cr    Cr6+3 0.387700 0.320070 0.250200 1.059030
Cr5   Cr    Cr6+3 0.886030 0.508630 0.252080 1.008286
Cr6   Cr    Cr6+3 0.613970 0.008630 0.747920 1.003038
Cr7   Cr    Cr6+3 0.386030 0.008630 0.252080 1.007785
Cr8   Cr    Cr6+3 0.269200 0.666740 0.749850 0.997105
Cr9   Cr    Cr6+3 0.730800 0.666740 0.250150 0.987684
Cr10  Cr    Cr6+3 0.769200 0.166740 0.749850 0.979353
Cr11  Cr    Cr6+3 0.230800 0.166740 0.250150 1.002803
Cr12  Cr    Cr6+3 0.112300 0.820070 0.749800 1.010722
H1    H     H_    0.172867 0.040819 0.931771 0.115304
H2    H     H_    0.936208 0.686028 0.911003 0.028132
H3    H     H_    0.619082 0.457851 0.384021 0.181082
H4    H     H_    0.590332 0.476506 0.255436 0.164521
H5    H     H_    0.653519 0.357837 0.267312 0.106924
H6    H     H_    0.564478 0.319787 0.251193 0.146800
H7    H     H_    0.392923 0.441235 0.732658 0.169123
H8    H     H_    0.406480 0.538564 0.661394 0.154074
H9    H     H_    0.541017 0.500330 0.693205 0.177070
H10   H     H_    0.491080 0.598047 0.749087 0.057998
H11   H     H_    0.507825 0.445193 0.774980 0.172584
H12   H     H_    0.093974 0.552103 0.351332 0.214295
H13   H     H_    0.565768 0.182177 0.091316 0.022952
H14   H     H_    0.055686 0.421137 0.321842 0.252139
H15   H     H_    0.920779 0.495949 0.644034 0.236766
H16   H     H_    0.971110 0.371210 0.659788 0.246350
H17   H     H_    0.597471 0.055142 0.356289 0.212301
H18   H     H_    0.561900 0.924509 0.324683 0.249586
H19   H     H_    0.423628 0.990112 0.647496 0.238353
H20   H     H_    0.476480 0.867265 0.660785 0.247085
H21   H     H_    0.442844 0.230884 0.907255 0.045801
H22   H     H_    0.337161 0.884484 0.571623 0.141913
H23   H     H_    0.675257 0.821512 0.436375 0.139375
H24   H     H_    0.834927 0.355275 0.567960 0.140487
H25   H     H_    0.166341 0.359435 0.432169 0.137066
H26   H     H_    0.224012 0.844454 0.432534 0.060711
H27   H     H_    0.792281 0.837437 0.580455 0.096408
H28   H     H_    0.720747 0.345695 0.433131 0.045147
H29   H     H_    0.832417 0.029015 0.066677 0.117010
H30   H     H_    0.275634 0.336561 0.569088 0.083234
H31   H     H_    0.002535 0.084041 0.455781 0.095551
H32   H     H_    0.978855 0.071120 0.579790 0.059813
H33   H     H_    0.502341 0.584115 0.457815 0.099946
H34   H     H_    0.475948 0.569422 0.581412 0.065933
H35   H     H_    0.978074 0.246713 0.536133 0.103887
H36   H     H_    0.038668 0.265286 0.423629 0.107512
H37   H     H_    0.484450 0.745465 0.539019 0.103368
H38   H     H_    0.546959 0.765394 0.427965 0.111906
H39   H     H_    0.217231 0.109677 0.049171 0.179927
H40   H     H_    0.668380 0.531012 0.934273 0.114953
H41   H     H_    0.785666 0.109064 0.952973 0.157958
H42   H     H_    0.716610 0.611253 0.048640 0.158981
H43   H     H_    0.284156 0.608108 0.952560 0.177021
H44   H     H_    0.350355 0.118049 0.512471 0.225206
H45   H     H_    0.379354 0.052724 0.438620 0.259948
H46   H     H_    0.657566 0.068614 0.482427 0.233368
H47   H     H_    0.618968 0.003896 0.552850 0.261939
H48   H     H_    0.854249 0.605703 0.513295 0.223811
H49   H     H_    0.883895 0.538463 0.440089 0.261973
H50   H     H_    0.156398 0.613550 0.486660 0.221250
H51   H     H_    0.327495 0.539415 0.069295 0.116333
H52   H     H_    0.127298 0.563776 0.564178 0.256195
H53   H     H_    0.387231 0.003824 0.905181 0.120437
H54   H     H_    0.368130 0.882825 0.845404 0.145261
H55   H     H_    0.427059 0.736675 0.924154 0.151664
H56   H     H_    0.483657 0.855914 0.896703 0.135593
H57   H     H_    0.449664 0.857356 0.985207 0.151087
H58   H     H_    0.587487 0.974640 0.100494 0.130659
H59   H     H_    0.643582 0.927140 0.167679 0.124359
H60   H     H_    0.619534 0.708870 0.127311 0.183338
H61   H     H_    0.543566 0.789817 0.153820 0.098180
H62   H     H_    0.265927 0.843753 0.057839 0.139066
H63   H     H_    0.560412 0.767167 0.061016 0.135335
H64   H     H_    0.912617 0.479046 0.897465 0.130772
H65   H     H_    0.856006 0.429322 0.830673 0.120112
H66   H     H_    0.881215 0.212153 0.869469 0.183342
H67   H     H_    0.956611 0.294157 0.842660 0.094267
H68   H     H_    0.940777 0.272386 0.935502 0.134649
H69   H     H_    0.114056 0.500901 0.094117 0.118753
H70   H     H_    0.131341 0.378891 0.152513 0.146405
H71   H     H_    0.072245 0.234606 0.070851 0.152895
H72   H     H_    0.016304 0.354523 0.099327 0.136846
H73   H     H_    0.729803 0.847562 0.942561 0.135540
H74   H     H_    0.051380 0.356259 0.011321 0.149922
H75   H     H_    0.890697 0.591300 0.002992 0.246535
H76   H     H_    0.938730 0.462729 0.013970 0.249059
H77   H     H_    0.126161 0.678385 0.003619 0.214111
H78   H     H_    0.113332 0.534570 0.973691 0.266873
H79   H     H_    0.375858 0.181278 0.997654 0.214276
H80   H     H_    0.387211 0.036892 0.025667 0.267989
H81   H     H_    0.610743 0.090743 0.997322 0.246054
H82   H     H_    0.561999 0.962824 0.984121 0.248355
H83   H     H_    0.196182 0.121199 0.609320 0.109773
H84   H     H_    0.770028 0.348461 0.055405 0.134376
H85   H     H_    0.107690 0.077567 0.594453 0.150969
H86   H     H_    0.131380 0.251657 0.527914 0.102488
H87   H     H_    0.206177 0.181103 0.487786 0.182500
H88   H     H_    0.120945 0.127793 0.465172 0.161133
H89   H     H_    0.788877 0.091279 0.401015 0.119431
H90   H     H_    0.881179 0.075241 0.405701 0.175908
H91   H     H_    0.860384 0.238593 0.476158 0.096543
H92   H     H_    0.783109 0.173913 0.514514 0.170435
H93   H     H_    0.867056 0.122340 0.541975 0.177834
H94   H     H_    0.727921 0.673603 0.544428 0.148060
H95   H     H_    0.234044 0.342846 0.940100 0.140387
H96   H     H_    0.716919 0.629381 0.635450 0.111005
H97   H     H_    0.626186 0.774375 0.598484 0.127634
H98   H     H_    0.601277 0.672363 0.526949 0.152993
H99   H     H_    0.590780 0.629810 0.617965 0.144666
H100  H     H_    0.294554 0.630871 0.388113 0.098229
H101  H     H_    0.384458 0.589830 0.396522 0.176659
H102  H     H_    0.367482 0.767932 0.464647 0.111880
H103  H     H_    0.292693 0.701265 0.507732 0.181750
H104  H     H_    0.377393 0.648038 0.527872 0.170245
H105  H     H_    0.103396 0.793254 0.376010 0.094982
H106  H     H_    0.059377 0.728373 0.095203 0.041045
H107  H     H_    0.121138 0.951859 0.383240 0.179285
H108  H     H_    0.092093 0.974755 0.254695 0.168875
H109  H     H_    0.154755 0.855074 0.265891 0.100961
H110  H     H_    0.065519 0.818475 0.249331 0.146580
H111  H     H_    0.894957 0.945210 0.731397 0.168055
H112  H     H_    0.907111 0.040819 0.658904 0.148953
H113  H     H_    0.040606 0.020666 0.689258 0.150660
H114  H     H_    0.988816 0.100954 0.752031 0.057389
H115  H     H_    0.013579 0.947669 0.768858 0.183612
H116  H     H_    0.603269 0.297966 0.378179 0.094204
N1    N     N_3   0.334978 0.079911 0.463826 -0.602480
N2    N     N_3   0.939864 0.415839 0.622661 -0.661123
N3    N     N_3   0.586152 0.965735 0.368567 -0.646382
N4    N     N_3   0.443414 0.911349 0.625078 -0.660726
N5    N     N_3   0.665462 0.033185 0.532960 -0.605585
N6    N     N_3   0.839504 0.567742 0.464422 -0.612161
N7    N     N_3   0.171625 0.578394 0.535700 -0.597988
N8    N     N_3   0.928543 0.548681 0.033819 -0.575832
N9    N     N_3   0.101373 0.624802 0.965088 -0.591207
N10   N     N_3   0.400078 0.126797 0.035415 -0.589870
N11   N     N_3   0.572638 0.049067 0.965757 -0.577450
N12   N     N_3   0.081490 0.463522 0.364414 -0.661198
O1    O     O_R   0.043230 0.549300 0.667990 -0.545650
O2    O     O_R   0.832470 0.905110 0.169660 -0.539516
O3    O     O_R   0.667530 0.405110 0.830340 -0.553794
O4    O     O_R   0.332470 0.405110 0.169660 -0.540692
O5    O     O_R   0.054010 0.748440 0.822860 -0.493938
O6    O     O_R   0.945990 0.748440 0.177140 -0.501136
O7    O     O_R   0.554010 0.248440 0.822860 -0.510532
O8    O     O_R   0.445990 0.248440 0.177140 -0.485425
O9    O     O_3   0.165160 0.665150 0.749190 -0.245220
O10   O     O_3   0.834840 0.665150 0.250810 -0.266377
O11   O     O_3   0.665160 0.165150 0.749190 -0.245537
O12   O     O_R   0.956770 0.549300 0.332010 -0.538048
O13   O     O_3   0.334840 0.165150 0.250810 -0.247774
O14   O     O_R   0.178620 0.457600 0.674100 -0.512965
O15   O     O_R   0.821380 0.457600 0.325900 -0.500691
O16   O     O_R   0.678620 0.957600 0.674100 -0.506749
O17   O     O_R   0.321380 0.957600 0.325900 -0.503875
O18   O     O_R   0.284680 0.542100 0.669460 -0.523829
O19   O     O_R   0.715320 0.542100 0.330540 -0.533471
O20   O     O_R   0.784680 0.042100 0.669460 -0.531465
O21   O     O_R   0.215320 0.042100 0.330540 -0.529270
O22   O     O_R   0.262860 0.790390 0.676650 -0.519077
O23   O     O_R   0.543230 0.049300 0.667990 -0.544602
O24   O     O_R   0.737140 0.790390 0.323350 -0.523610
O25   O     O_R   0.762860 0.290390 0.676650 -0.524900
O26   O     O_R   0.237140 0.290390 0.323350 -0.518775
O27   O     O_R   0.167460 0.907030 0.670940 -0.522247
O28   O     O_R   0.832540 0.907030 0.329060 -0.511789
O29   O     O_R   0.667460 0.407030 0.670940 -0.502771
O30   O     O_R   0.332540 0.407030 0.329060 -0.497883
O31   O     O_R   0.053950 0.750220 0.675100 -0.453497
O32   O     O_R   0.946050 0.750220 0.324900 -0.443844
O33   O     O_R   0.553950 0.250220 0.675100 -0.457005
O34   O     O_R   0.456770 0.049300 0.332010 -0.538265
O35   O     O_R   0.446050 0.250220 0.324900 -0.433618
O36   O     O_R   0.043300 0.547370 0.827390 -0.515079
O37   O     O_R   0.956700 0.547370 0.172610 -0.496642
O38   O     O_R   0.543300 0.047370 0.827390 -0.497333
O39   O     O_R   0.456700 0.047370 0.172610 -0.515670
O40   O     O_R   0.178690 0.455820 0.821860 -0.487792
O41   O     O_R   0.821310 0.455820 0.178140 -0.479347
O42   O     O_R   0.678690 0.955820 0.821860 -0.483883
O43   O     O_R   0.321310 0.955820 0.178140 -0.486916
O44   O     O_R   0.284750 0.540170 0.828860 -0.532400
O45   O     O_R   0.262920 0.788600 0.824420 -0.492670
O46   O     O_R   0.715250 0.540170 0.171140 -0.544555
O47   O     O_R   0.784750 0.040170 0.828860 -0.547635
O48   O     O_R   0.215250 0.040170 0.171140 -0.529462
O49   O     O_3   0.318928 0.878774 0.944646 -0.586319
O50   O     O_3   0.675218 0.899165 0.060035 -0.588956
O51   O     O_3   0.825610 0.402652 0.938589 -0.587852
O52   O     O_3   0.181936 0.374734 0.054165 -0.586455
O53   O     O_3   0.175540 0.966955 0.542940 -0.561097
O54   O     O_3   0.830544 0.948222 0.464328 -0.564972
O55   O     O_3   0.688068 0.505047 0.553460 -0.549514
O56   O     O_R   0.737080 0.788600 0.175580 -0.499433
O57   O     O_3   0.320499 0.482970 0.455147 -0.546622
O58   O     O_3   0.019345 0.912816 0.367187 -0.550925
O59   O     O_3   0.942569 0.861571 0.649001 -0.573996
O60   O     O_3   0.517791 0.413870 0.368377 -0.549924
O61   O     O_3   0.440019 0.358479 0.649561 -0.573197
O62   O     O_R   0.762920 0.288600 0.824420 -0.500205
O63   O     O_R   0.237080 0.288600 0.175580 -0.496071
O64   O     O_R   0.167530 0.905110 0.830340 -0.549441

loop_
_geom_bond_atom_site_label_1
_geom_bond_atom_site_label_2
_ccdc_geom_bond_type
C17   H3    S    
C18   H4    S    
C19   C20   S    
C50   O51   S    
C25   O61   S    
C41   N12   S    
H80   N10   S    
H48   N6    S    
H52   N7    S    
C21   C33   A    
C54   C63   D    
C40   O20   A    
C15   H111  S    
C18   H5    S    
C71   H106  S    
C37   C42   A    
C110  C111  S    
C91   O4    A    
C50   C90   S    
Cr10  O47   S    
C98   O54   S    
Cr12  O9    S    
C52   O52   S    
C9    H98   S    
C53   H62   S    
C72   C94   S    
C83   O44   A    
C12   H105  S    
C100  O57   S    
C36   C106  A    
C49   O50   S    
C95   C109  S    
Cr8   O22   S    
C17   O60   S    
C19   H8    S    
Cr4   O4    S    
C113  H60   S    
H18   N3    S    
C24   C34   A    
C108  N6    S    
C95   H25   S    
C23   C31   A    
C20   H9    S    
C75   C76   S    
C37   C38   A    
C4    O53   S    
C6    H89   S    
C57   C97   S    
Cr12  O5    S    
C71   C93   S    
Cr1   O36   S    
C30   H34   S    
C75   N8    S    
C56   C83   S    
Cr9   O19   S    
Cr10  O20   S    
C109  N7    S    
C11   H103  S    
C62   H22   S    
C110  O49   S    
C81   O23   A    
Cr7   O43   S    
C4    C5    S    
C60   C100  S    
C14   H109  S    
C6    C7    S    
Cr2   O2    S    
Cr3   O33   S    
C38   C43   A    
H81   N11   S    
C85   O46   A    
C116  H69   S    
C57   O27   A    
H44   N1    S    
H49   N6    S    
H82   N11   S    
H47   N5    S    
C82   O35   A    
C103  H28   S    
C10   O57   S    
C3    H74   S    
C41   C45   A    
C52   C91   S    
Cr4   O35   S    
C43   C47   A    
C16   H114  S    
C115  H68   S    
C46   H37   S    
Cr5   O37   S    
C58   C98   S    
C24   O60   S    
Cr7   O39   S    
Cr4   O30   S    
C59   O29   A    
C42   N4    S    
C22   C32   A    
C78   N11   S    
C64   C68   S    
C20   H11   S    
C48   O49   S    
C3    C116  S    
C7    H93   S    
C5    H87   S    
Cr10  O25   S    
C80   C106  S    
H14   N12   S    
C51   O21   A    
Cr7   O34   S    
C72   C78   D    
Cr8   O45   S    
C53   C61   D    
C85   O41   A    
C110  H53   S    
C43   N3    S    
C74   C77   D    
C2    C79   S    
C44   H35   S    
C57   O22   A    
C96   O8    A    
C28   H33   S    
C3    H72   S    
C40   O16   A    
C79   O31   A    
C73   C98   D    
C80   O32   A    
H17   N3    S    
C29   O15   A    
C74   C96   S    
C67   H29   S    
Cr11  O48   S    
C54   C86   S    
C62   C97   D    
C83   O40   A    
C79   O1    A    
C31   C32   A    
C92   O36   A    
C111  H55   S    
C17   C18   S    
C1    O18   A    
C93   O37   A    
C102  C107  D    
C53   C87   S    
C105  N1    S    
C13   C38   A    
C7    H92   S    
C68   H40   S    
C74   H13   S    
H19   N4    S    
C8    H94   S    
C93   O6    A    
C80   O12   A    
C115  H66   S    
C89   O2    A    
C24   C28   A    
C21   C81   S    
C8    H96   S    
C56   H95   S    
H46   N5    S    
C114  C115  S    
C39   C44   A    
Cr9   O24   S    
C54   H73   S    
H15   N2    S    
C12   O58   S    
C96   O39   A    
C101  H26   S    
C18   H6    S    
C64   H42   S    
C10   C11   S    
Cr11  O13   S    
C88   O64   A    
C9    H97   S    
C48   C66   D    
H78   N9    S    
C81   O33   A    
Cr1   O9    S    
Cr7   O17   S    
C25   C33   A    
C2    C35   A    
C29   O19   A    
C12   H107  S    
Cr3   O3    S    
C35   C36   A    
C112  H59   S    
H77   N9    S    
C77   C78   S    
C26   C27   A    
C4    H83   S    
Cr11  O26   S    
H79   N10   S    
C73   C107  S    
C19   H7    S    
Cr8   O9    S    
C70   H2    S    
C114  O51   S    
C42   C46   A    
C20   H10   S    
C52   C69   D    
C55   H84   S    
C6    H90   S    
C91   O63   A    
Cr11  O63   S    
H50   N7    S    
Cr12  O64   S    
Cr5   O41   S    
C48   C88   S    
Cr6   O38   S    
Cr5   O15   S    
Cr2   O32   S    
C92   O5    A    
Cr8   O44   S    
Cr6   O16   S    
Cr3   O29   S    
C66   H1    S    
Cr7   O13   S    
C94   O7    A    
C59   O25   A    
C36   C41   A    
C19   O61   S    
C90   O3    A    
C116  O52   S    
C51   O17   A    
C104  H30   S    
C14   H110  S    
C47   H38   S    
C95   C100  D    
C86   O42   A    
C15   H112  S    
Cr4   O13   S    
C61   H39   S    
C55   C85   S    
C35   C39   A    
C116  H70   S    
C26   H31   S    
C9    H99   S    
Cr11  O21   S    
C58   O24   A    
C60   O26   A    
C89   O56   A    
C44   C45   A    
H45   N1    S    
C25   C30   A    
C115  H67   S    
C46   C47   A    
C4    H85   S    
C84   C99   D    
C70   C92   S    
C88   O45   A    
Cr12  O31   S    
Cr5   O10   S    
C39   N2    S    
C51   C101  S    
C113  H61   S    
C94   O38   A    
C13   C34   A    
C69   H51   S    
C6    O54   S    
C65   C69   S    
C5    H86   S    
C13   C82   S    
C84   C108  S    
C40   C102  S    
C21   C37   A    
C110  H54   S    
C86   O47   A    
C22   C26   A    
C50   C68   D    
C15   C16   S    
C97   O53   S    
C11   H104  S    
C114  H65   S    
H16   N2    S    
Cr9   O10   S    
C59   C99   S    
C99   O55   S    
Cr6   O23   S    
C14   H108  S    
Cr1   O14   S    
C62   C105  S    
C65   H43   S    
C45   H36   S    
C112  H58   S    
C104  C109  D    
C63   H41   S    
C56   C65   D    
H20   N4    S    
C29   C103  S    
C82   O34   A    
Cr2   O10   S    
Cr8   O18   S    
C61   C66   S    
Cr3   O7    S    
C17   H116  S    
C8    C9    S    
Cr4   O8    S    
C22   O58   S    
C3    H71   S    
C103  C108  D    
H12   N12   S    
C23   C27   A    
C7    H91   S    
C16   H113  S    
C32   C106  A    
C73   H23   S    
C10   H100  S    
C87   O48   A    
C15   O59   S    
Cr5   O12   S    
C112  C113  S    
Cr6   O11   S    
C101  C105  D    
C113  H63   S    
C63   C67   S    
C111  H57   S    
C114  H64   S    
C107  N5    S    
Cr1   O40   S    
C90   O62   A    
Cr10  O62   S    
C1    O14   A    
C27   H32   S    
C5    H88   S    
C10   H101  S    
C2    C31   A    
Cr6   O42   S    
Cr2   O28   S    
Cr1   O1    S    
Cr2   O6    S    
Cr3   O11   S    
C55   C64   D    
C33   C34   A    
Cr9   O56   S    
C23   O59   S    
C76   N9    S    
C1    C104  S    
Cr9   O46   S    
C84   H24   S    
C12   C14   S    
C11   H102  S    
C70   C76   D    
Cr10  O11   S    
C49   C67   D    
C77   N10   S    
C49   C89   S    
C87   O43   A    
C28   C30   A    
C71   C75   D    
C58   O28   A    
C8    O55   S    
C111  H56   S    
C60   O30   A    
H75   N8    S    
H76   N8    S    
C16   H115  S    
C112  O50   S    
C72   H21   S    
Cr12  O27   S    
C102  H27   S    
