data_mof_unit_3409.cif
_audit_creation_date              2012-12-10T16:44:41-0500
_audit_creation_method            fapswitch 2.2
_symmetry_space_group_name_H-M    P1
_symmetry_Int_Tables_number       1
_space_group_crystal_system       triclinic
_cell_length_a                    14.950861
_cell_length_b                    8.670217
_cell_length_c                    7.515129
_cell_angle_alpha                 103.184957
_cell_angle_beta                  94.636594
_cell_angle_gamma                 93.314379
_cell_volume                      942.458212741

loop_
_atom_site_label
_atom_site_type_symbol
_atom_type_description
_atom_site_fract_x
_atom_site_fract_y
_atom_site_fract_z
_atom_type_partial_charge
C1    C     C_R   0.497181 0.199829 0.453096 0.879363
C2    C     C_R   0.502819 0.800171 0.546904 0.879362
C3    C     C_R   0.029518 0.220037 0.332429 0.282103
C4    C     C_R   0.970482 0.779963 0.667571 0.282103
C5    C     C_2   0.495729 0.031472 0.427230 -0.336162
C6    C     C_2   0.504271 0.968527 0.572769 -0.336162
C7    C     C_R   0.329238 0.499372 0.501607 0.804593
C8    C     C_R   0.670762 0.500628 0.498393 0.804593
C9    C     C_R   0.820828 0.639062 0.582718 -0.175667
C10   C     C_R   0.179172 0.360938 0.417281 -0.175667
C11   C     C_R   0.767006 0.501725 0.494879 -0.055626
C12   C     C_R   0.232994 0.498275 0.505121 -0.055626
C13   C     C_R   0.804671 0.364757 0.407251 -0.184263
C14   C     C_R   0.195329 0.635243 0.592748 -0.184263
C15   C     C_R   0.897827 0.362620 0.410630 0.071780
C16   C     C_R   0.102173 0.637380 0.589370 0.071780
C17   C     C_R   0.953093 0.501119 0.498636 0.022433
C18   C     C_R   0.046907 0.498881 0.501364 0.022433
C19   C     C_R   0.914458 0.641618 0.583694 0.051531
C20   C     C_R   0.085541 0.358382 0.416306 0.051531
C21   C     C_R   0.936294 0.223605 0.329273 -0.158213
C22   C     C_R   0.063706 0.776395 0.670727 -0.158213
Cu1   Cu    Cu3+1 0.510010 0.517380 0.684380 0.966835
Cu2   Cu    Cu3+1 0.489990 0.482620 0.315620 0.966835
H1    H     H_    0.788626 0.742790 0.648746 0.178053
H2    H     H_    0.211374 0.257209 0.351253 0.178053
H3    H     H_    0.761351 0.259206 0.340608 0.142567
H4    H     H_    0.238649 0.740793 0.659392 0.142567
H5    H     H_    0.893785 0.116886 0.263983 0.196115
H6    H     H_    0.106215 0.883114 0.736017 0.196115
H7    H     H_    0.487592 0.959081 0.287397 0.177716
H8    H     H_    0.512408 0.040919 0.712602 0.177716
N1    N     N_2   0.474890 0.456420 0.038520 -0.220171
N2    N     N_2   0.525110 0.543580 0.961480 -0.220171
O1    O     O_R   0.506510 0.286130 0.619770 -0.590870
O2    O     O_R   0.493490 0.713870 0.380230 -0.590870
O3    O     O_R   0.489600 0.256770 0.308360 -0.599652
O4    O     O_R   0.510400 0.743230 0.691640 -0.599652
O5    O     O_R   0.378710 0.514640 0.655720 -0.590098
O6    O     O_R   0.621290 0.485360 0.344280 -0.590098
O7    O     O_R   0.361800 0.485290 0.344300 -0.584940
O8    O     O_R   0.638200 0.514710 0.655700 -0.584940
Br1   Br    Br    0.075865 0.021434 0.223906 -0.500047
Br2   Br    Br    0.924135 0.978566 0.776093 -0.500047
C23   C     C_1   0.410050 0.347821 0.928334 0.561426
N3    N     N_1   0.355523 0.256448 0.838435 -0.338807
C24   C     C_1   0.589950 0.652179 0.071666 0.561426
N4    N     N_1   0.644477 0.743552 0.161565 -0.338807

loop_
_geom_bond_atom_site_label_1
_geom_bond_atom_site_label_2
_ccdc_geom_bond_type
C6    H8    S    
Cu1   Cu2   S    
N1    C23   S    
C22   H6    S    
Cu1   O4    S    
C4    C22   A    
C2    O4    A    
C15   C21   A    
Cu1   O1    S    
C24   N4    T    
C1    O3    A    
C8    O8    A    
Cu1   N2    S    
C14   H4    S    
C10   H2    S    
C13   C15   A    
Cu2   O3    S    
C9    H1    S    
C3    C20   A    
C2    C6    S    
C23   N3    T    
Cu2   O7    S    
C9    C11   A    
C3    Br1   S    
Cu2   O2    S    
Cu1   O8    S    
C10   C12   A    
C8    C11   S    
Cu1   O5    S    
Cu2   O6    S    
C12   C14   A    
C17   C18   A    
C18   C20   A    
C7    O7    A    
C5    C6    D    
C14   C16   A    
C7    C12   S    
C3    C21   A    
C11   C13   A    
C1    C5    S    
N1    N2    D    
C1    O1    A    
C16   C18   A    
C2    O2    A    
C15   C17   A    
C7    O5    A    
C13   H3    S    
C16   C22   A    
N2    C24   S    
C8    O6    A    
C17   C19   A    
C4    C19   A    
C21   H5    S    
C9    C19   A    
Cu2   N1    S    
C10   C20   A    
C5    H7    S    
C4    Br2   S    
