data_mof_unit_1399.cif
_audit_creation_date              2012-12-11T15:30:33-0500
_audit_creation_method            fapswitch 2.2
_symmetry_space_group_name_H-M    P1
_symmetry_Int_Tables_number       1
_space_group_crystal_system       triclinic
_cell_length_a                    6.951675
_cell_length_b                    20.474079
_cell_length_c                    24.397988
_cell_angle_alpha                 89.744653
_cell_angle_beta                  90.381753
_cell_angle_gamma                 89.357897
_cell_volume                      3472.21393783

loop_
_atom_site_label
_atom_site_type_symbol
_atom_type_description
_atom_site_fract_x
_atom_site_fract_y
_atom_site_fract_z
_atom_type_partial_charge
O1    O     O_R   0.507310 0.423620 0.460450 -0.535998
O2    O     O_R   0.170760 0.556060 0.437190 -0.536834
O3    O     O_R   0.004040 0.576380 0.539550 -0.536281
C1    C     C_R   0.338772 0.576251 0.421287 0.724557
O4    O     O_R   0.177350 0.422870 0.454070 -0.537654
O5    O     O_R   0.010680 0.442240 0.556560 -0.535739
C2    C     C_R   0.346557 0.398962 0.443356 0.693215
O6    O     O_R   0.500670 0.557760 0.443440 -0.535351
O7    O     O_3   0.340380 0.506510 0.533610 -0.366356
V1    V     V_3+5 0.064130 0.498790 0.493770 1.425123
O8    O     O_R   0.681170 0.443940 0.562810 -0.537333
C3    C     C_R   0.850923 0.424019 0.578786 0.728131
O9    O     O_R   0.674570 0.577130 0.545930 -0.537331
C4    C     C_R   0.842428 0.601045 0.556642 0.695797
V2    V     V_3+5 0.564560 0.501210 0.506230 1.426898
O10   O     O_3   0.838170 0.493490 0.466390 -0.366675
C5    C     C_R   0.978532 0.837660 0.911765 -0.094322
C6    C     C_R   0.846098 0.661566 0.589149 -0.045962
C7    C     C_R   0.059451 0.722159 0.907293 0.423212
C8    C     C_R   0.043838 0.780305 0.936749 -0.254223
C9    C     C_R   0.928178 0.837554 0.856076 -0.216945
C10   C     C_R   0.944914 0.779893 0.823880 0.044254
C11   C     C_R   0.010682 0.721542 0.850527 0.003331
C12   C     C_R   0.901396 0.778576 0.766069 0.088705
C13   C     C_R   0.923194 0.719009 0.735781 0.059165
C14   C     C_R   0.986261 0.662746 0.764251 -0.207602
C15   C     C_R   0.028235 0.664041 0.819861 -0.087868
C16   C     C_R   0.837677 0.834975 0.737404 -0.187228
C17   C     C_R   0.796822 0.833549 0.681678 -0.206015
C18   C     C_R   0.816533 0.776056 0.651821 0.138196
C19   C     C_R   0.880471 0.717648 0.678014 0.087904
C20   C     C_R   0.769958 0.776699 0.595755 -0.158285
C21   C     C_R   0.782818 0.719861 0.564911 -0.166099
C22   C     C_R   0.896030 0.660376 0.645132 -0.209346
H1    H     H_    0.076005 0.618593 0.838264 0.210393
H2    H     H_    0.941070 0.613793 0.661725 0.097727
H3    H     H_    0.741690 0.721202 0.521998 0.108255
H4    H     H_    0.747867 0.878206 0.661711 0.122846
H5    H     H_    0.084315 0.781476 0.979662 0.142946
H6    H     H_    0.881720 0.883772 0.839146 0.098811
H7    H     H_    0.005792 0.616181 0.744647 0.129547
H8    H     H_    0.817045 0.881616 0.756727 0.118603
H9    H     H_    0.720335 0.821267 0.575822 0.116611
C23   C     C_3   0.762733 0.257806 0.802455 -0.288984
C24   C     C_3   0.118745 0.248605 0.786738 -0.312494
C25   C     C_3   0.102391 0.298721 0.738232 0.012486
H10   H     H_    0.744176 0.357557 0.768903 0.162584
H11   H     H_    0.789214 0.285436 0.840902 0.197363
H12   H     H_    0.242151 0.214745 0.779299 0.111878
H13   H     H_    0.149579 0.273651 0.826206 0.187032
H14   H     H_    0.212037 0.284871 0.707135 0.122873
C26   C     C_1   0.863853 0.379150 0.624928 -0.192621
C27   C     C_3   0.931106 0.208927 0.792452 0.229700
C28   C     C_3   0.740078 0.306545 0.753648 -0.336576
C29   C     C_3   0.899032 0.294598 0.710210 0.279952
C30   C     C_3   0.875433 0.223525 0.689335 -0.373740
C31   C     C_3   0.893033 0.173594 0.737416 -0.353936
C32   C     C_1   0.878175 0.341319 0.663331 -0.084570
C33   C     C_1   0.948081 0.160968 0.838371 -0.063353
C34   C     C_1   0.960880 0.122040 0.875990 -0.120260
H15   H     H_    0.758104 0.145051 0.740198 0.145046
H16   H     H_    0.012155 0.138373 0.728964 0.142159
H17   H     H_    0.732867 0.218193 0.668889 0.149616
H18   H     H_    0.626124 0.230767 0.807933 0.138964
H19   H     H_    0.595949 0.300223 0.734372 0.139330
H20   H     H_    0.986941 0.212299 0.658130 0.138804
C35   C     C_3   0.539136 0.684270 0.250681 -0.329480
C36   C     C_3   0.196865 0.723195 0.262242 -0.335323
C37   C     C_3   0.224765 0.771508 0.213528 -0.322893
H21   H     H_    0.515692 0.708885 0.163588 0.181682
H22   H     H_    0.493398 0.636085 0.234537 0.163832
H23   H     H_    0.089874 0.743825 0.291285 0.167614
H24   H     H_    0.137454 0.676575 0.246548 0.149240
H25   H     H_    0.188019 0.746208 0.174601 0.148505
H26   H     H_    0.121550 0.813005 0.216242 0.206589
C38   C     C_1   0.475379 0.878978 0.125062 -0.126399
C39   C     C_3   0.389939 0.709736 0.292740 0.221594
C40   C     C_3   0.561128 0.733201 0.202221 -0.409440
C41   C     C_3   0.435998 0.795848 0.211284 0.179758
C42   C     C_3   0.491642 0.827757 0.268562 0.498438
C43   C     C_3   0.463795 0.775544 0.315589 -0.383299
C44   C     C_1   0.459808 0.841585 0.163732 -0.002210
C45   C     C_1   0.364571 0.661312 0.338183 -0.068896
C46   C     C_1   0.348737 0.622270 0.375704 -0.191327
H27   H     H_    0.600893 0.766290 0.338351 0.124832
H28   H     H_    0.360907 0.793422 0.346984 0.169390
H29   H     H_    0.681205 0.676740 0.271191 0.146349
H30   H     H_    0.714983 0.745244 0.196373 0.154514
C47   C     C_R   0.470017 0.163268 0.087112 -0.188283
C48   C     C_R   0.354415 0.338398 0.410893 -0.041924
C49   C     C_R   0.508247 0.280513 0.091930 -0.200927
C50   C     C_R   0.506016 0.223301 0.060927 0.458256
C51   C     C_R   0.435401 0.161724 0.143904 -0.278426
C52   C     C_R   0.438568 0.219591 0.176079 0.103453
C53   C     C_R   0.475893 0.279197 0.148614 0.053694
C54   C     C_R   0.408142 0.220501 0.234363 0.059474
C55   C     C_R   0.416200 0.281131 0.263787 0.055182
C56   C     C_R   0.453784 0.338715 0.233950 -0.178792
C57   C     C_R   0.482561 0.337569 0.177746 -0.146131
C58   C     C_R   0.370162 0.162918 0.264223 -0.156441
C59   C     C_R   0.340636 0.164110 0.320431 -0.168029
C60   C     C_R   0.347183 0.222510 0.349524 0.117457
C61   C     C_R   0.385693 0.282138 0.322028 0.087233
C62   C     C_R   0.313605 0.221477 0.406204 -0.148873
C63   C     C_R   0.315841 0.278936 0.436463 -0.168708
C64   C     C_R   0.389999 0.340134 0.354207 -0.207618
H31   H     H_    0.511212 0.383218 0.156788 0.142102
H32   H     H_    0.417119 0.387482 0.336673 0.092729
H33   H     H_    0.286687 0.277069 0.480012 0.103615
H34   H     H_    0.311352 0.118521 0.341410 0.166312
H35   H     H_    0.537757 0.326599 0.071831 0.184699
H36   H     H_    0.410076 0.114356 0.161656 0.137491
H37   H     H_    0.462195 0.386018 0.252807 0.121604
H38   H     H_    0.361462 0.115617 0.245358 0.169504
H39   H     H_    0.283509 0.175975 0.427173 0.120826
O11   O     O_R   0.323590 0.942280 0.056590 -0.538204
O12   O     O_R   0.647030 0.077140 0.045940 -0.524752
O13   O     O_R   0.813570 0.057750 0.943430 -0.524563
C65   C     C_R   0.477932 0.101441 0.056169 0.826817
O14   O     O_R   0.653510 0.943950 0.062820 -0.542828
O15   O     O_R   0.820100 0.923600 0.960440 -0.543311
C66   C     C_R   0.485481 0.923855 0.078759 0.708145
O16   O     O_R   0.317060 0.076430 0.039590 -0.520933
O17   O     O_3   0.483830 0.993520 0.966410 -0.376703
V3    V     V_3+5 0.760140 0.001200 0.006230 1.511047
O18   O     O_R   0.149560 0.922820 0.954030 -0.547018
C67   C     C_R   0.981715 0.898861 0.943407 0.690870
O19   O     O_R   0.143080 0.056020 0.937150 -0.533969
C68   C     C_R   0.973385 0.076161 0.921372 0.782815
V4    V     V_3+5 0.259690 0.998730 0.993720 1.492548
O20   O     O_3   0.986120 0.006480 0.033580 -0.366022
C69   C     C_3   0.154200 0.367916 0.757521 -0.767462
H40   H     H_    0.303628 0.367824 0.773942 0.218271
H41   H     H_    0.147402 0.403221 0.722902 0.212171
H42   H     H_    0.056636 0.384853 0.790463 0.237630
C70   C     C_3   0.703567 0.850229 0.268816 -0.652809
H43   H     H_    0.804767 0.808434 0.264953 0.162668
H44   H     H_    0.730569 0.885473 0.235094 0.229855
H45   H     H_    0.739702 0.874381 0.308151 0.252392
S1    S     S_3+6 0.345851 0.899993 0.283758 -0.015543
O21   O     O_2   0.339133 0.945802 0.235485 -0.317954
O22   O     O_2   0.143786 0.881708 0.298381 -0.362092
O23   O     O_3   0.442220 0.940071 0.337191 -0.481823
H46   H     H_    0.420331 0.911582 0.369432 0.327361
S2    S     S_3+6 0.554368 0.228166 0.989774 0.003540
O24   O     O_2   0.536640 0.297596 0.969907 -0.313067
O25   O     O_2   0.755866 0.203767 0.980084 -0.342723
O26   O     O_3   0.399054 0.181652 0.954565 -0.510168
H47   H     H_    0.445535 0.182528 0.916272 0.342726
S3    S     S_3+6 0.145287 0.651854 0.943117 0.038539
O27   O     O_2   0.995213 0.599648 0.940887 -0.275925
O28   O     O_2   0.325723 0.626633 0.916492 -0.321245
O29   O     O_3   0.192728 0.668843 0.009240 -0.483675
H48   H     H_    0.318621 0.691026 0.008989 0.336809

loop_
_geom_bond_atom_site_label_1
_geom_bond_atom_site_label_2
_ccdc_geom_bond_type
C13   C19   A    
C18   C20   A    
C29   C30   S    
O18   C67   A    
C42   C43   S    
H21   C40   S    
C4    C6    S    
O2    C1    A    
C7    C8    A    
C35   C39   S    
S1    O23   S    
C1    O6    A    
O19   C68   A    
C7    S3    S    
C55   C56   A    
C27   C33   S    
C31   H16   S    
C28   H19   S    
C24   C25   S    
C23   H18   S    
C14   C15   A    
C59   C60   A    
O11   C66   A    
C10   C12   A    
C16   C17   A    
S1    O22   D    
O15   C67   A    
O12   C65   A    
O5    C3    A    
C18   C19   A    
C60   C62   A    
C53   C57   A    
O23   H46   S    
C39   C45   S    
V2    O10   S    
C5    C8    A    
C30   C31   S    
C49   H35   S    
C3    C26   S    
O8    V2    S    
C23   C27   S    
C47   C65   S    
C69   H40   S    
S3    O29   S    
C25   C29   S    
C12   C13   A    
O1    V2    S    
O13   V3    S    
C11   C15   A    
O7    V1    S    
C22   H2    S    
C43   H28   S    
C24   C27   S    
C33   C34   T    
O9    C4    A    
C47   C51   A    
C52   C53   A    
C35   C40   S    
C70   H45   S    
C62   C63   A    
S2    O25   D    
O14   C66   A    
S2    O24   D    
C19   C22   A    
C58   H38   S    
S1    O21   D    
C48   C64   A    
C70   H44   S    
C38   C44   T    
C49   C50   A    
O4    C2    A    
C8    H5    S    
C27   C31   S    
O14   V3    S    
C36   C37   S    
C56   H37   S    
C15   H1    S    
C13   C14   A    
C42   S1    S    
C2    C48   S    
C25   H14   S    
C21   H3    S    
C17   H4    S    
C7    C11   A    
O15   V3    S    
C17   C18   A    
C62   H39   S    
C6    C22   A    
V3    O20   S    
C45   C46   T    
C1    C46   S    
C24   H12   S    
C36   H23   S    
C54   C55   A    
C30   H17   S    
O17   V4    S    
C37   H25   S    
C51   C52   A    
O26   H47   S    
C47   C50   A    
C52   C54   A    
C59   H34   S    
C55   C61   A    
O3    C4    A    
C26   C32   T    
H10   C28   S    
C56   C57   A    
O6    V2    S    
O9    V2    S    
O16   V4    S    
S3    O28   D    
C37   C41   S    
O2    V1    S    
S2    O26   S    
C40   H30   S    
C36   C39   S    
C63   H33   S    
C28   C29   S    
C50   S2    S    
O1    C2    A    
C5    C67   S    
C12   C16   A    
C48   C63   A    
C70   H43   S    
O19   V4    S    
C34   C68   S    
O5    V1    S    
C41   C44   S    
O8    C3    A    
C31   H15   S    
C65   O16   A    
C57   H31   S    
C35   H29   S    
C42   C70   S    
C38   C66   S    
C20   C21   A    
V4    O20   S    
C36   H24   S    
O4    V1    S    
O3    V1    S    
V1    O10   S    
C25   C69   S    
C40   C41   S    
C9    H6    S    
C64   H32   S    
C24   H13   S    
C69   H42   S    
C30   H20   S    
C54   C58   A    
C16   H8    S    
C58   C59   A    
C20   H9    S    
C37   H26   S    
C61   C64   A    
C35   H22   S    
O7    V2    S    
C60   C61   A    
C6    C21   A    
C5    C9    A    
C51   H36   S    
C49   C53   A    
C41   C42   S    
C23   C28   S    
O11   V4    S    
C69   H41   S    
C39   C43   S    
C29   C32   S    
O13   C68   A    
O18   V4    S    
C10   C11   A    
O17   V3    S    
O29   H48   S    
C9    C10   A    
O12   V3    S    
C43   H27   S    
C23   H11   S    
C14   H7    S    
S3    O27   D    
