data_mof_unit_3241.cif
_audit_creation_date              2012-12-10T18:59:13-0500
_audit_creation_method            fapswitch 2.2
_symmetry_space_group_name_H-M    P1
_symmetry_Int_Tables_number       1
_space_group_crystal_system       triclinic
_cell_length_a                    10.78374
_cell_length_b                    10.77982
_cell_length_c                    9.614723
_cell_angle_alpha                 90.19391
_cell_angle_beta                  90.580653
_cell_angle_gamma                 91.23118
_cell_volume                      1117.35788831

loop_
_atom_site_label
_atom_site_type_symbol
_atom_type_description
_atom_site_fract_x
_atom_site_fract_y
_atom_site_fract_z
_atom_type_partial_charge
C1    C     C_R   0.498025 0.262659 0.499623 0.820045
C2    C     C_R   0.064160 0.399353 0.587562 0.038558
C3    C     C_R   0.128755 0.483354 0.499326 -0.042012
C4    C     C_R   0.064755 0.563094 0.411723 -0.180712
C5    C     C_R   0.937146 0.564914 0.413981 -0.224002
C6    C     C_R   0.870979 0.485895 0.502300 -0.031446
C7    C     C_R   0.427000 0.060376 0.407527 -0.008402
C8    C     C_R   0.503881 0.129549 0.497151 -0.165241
C9    C     C_R   0.600564 0.069901 0.566904 -0.178324
C10   C     C_R   0.609855 0.940745 0.559856 0.405543
C11   C     C_R   0.512810 0.870891 0.494126 -0.171787
C12   C     C_R   0.262759 0.493831 0.499650 0.793668
C13   C     C_R   0.430204 0.933015 0.408229 0.022753
C14   C     C_3   0.293993 0.915973 0.385253 -0.485027
C15   C     C_3   0.288851 0.057450 0.385487 0.244049
C16   C     C_R   0.606815 0.519793 0.075079 0.033243
C17   C     C_R   0.398559 0.459439 0.071110 0.468219
C18   C     C_R   0.397458 0.465166 0.923545 -0.055535
C19   C     C_R   0.608256 0.517034 0.928985 0.131961
C20   C     C_3   0.701988 0.622893 0.929226 0.632632
C21   C     C_3   0.697605 0.624350 0.088598 0.234528
C22   C     C_R   0.504184 0.737283 0.499476 0.785178
C23   C     C_R   0.737203 0.495367 0.500747 0.757262
C24   C     C_R   0.126461 0.313208 0.672349 -0.286482
C25   C     C_R   0.061372 0.231482 0.760431 0.381625
C26   C     C_R   0.930907 0.232671 0.760790 0.458864
C27   C     C_R   0.868792 0.315481 0.674884 -0.227635
C28   C     C_R   0.933327 0.400645 0.589058 0.033091
Cu1   Cu    Cu3+1 0.499990 0.499980 0.640670 0.964526
Cu2   Cu    Cu3+1 0.500010 0.500020 0.359330 0.990073
H1    H     H_    0.114091 0.627660 0.344773 0.156882
H2    H     H_    0.246975 0.870109 0.474443 0.196628
H3    H     H_    0.260110 0.097567 0.284121 0.153365
H4    H     H_    0.314402 0.436409 0.867484 0.156493
H5    H     H_    0.782563 0.593795 0.144005 0.041009
H6    H     H_    0.225989 0.305777 0.668971 0.174434
H7    H     H_    0.768952 0.310509 0.676221 0.179144
H8    H     H_    0.889951 0.631545 0.349662 0.126847
H9    H     H_    0.670497 0.123268 0.623516 0.186033
H10   H     H_    0.272161 0.874169 0.281816 0.186361
N1    N     N_R   0.500790 0.500930 0.147930 -0.204935
N2    N     N_R   0.500790 0.500890 0.852020 -0.216760
O1    O     O_R   0.500000 0.319640 0.618810 -0.590552
O2    O     O_R   0.500010 0.319680 0.381230 -0.600881
O3    O     O_R   0.319640 0.499980 0.618820 -0.604819
O4    O     O_R   0.319650 0.500020 0.381230 -0.553851
O5    O     O_R   0.499990 0.680320 0.618770 -0.562982
O6    O     O_R   0.500000 0.680360 0.381190 -0.523682
O7    O     O_R   0.680350 0.499980 0.618770 -0.572020
O8    O     O_R   0.680360 0.500020 0.381180 -0.584130
O9    O     O_3   0.222710 0.105425 0.498154 -0.719554
H11   H     H_    0.254918 0.068310 0.585432 0.341723
O10   O     O_3   0.297107 0.405266 0.132839 -0.722459
H12   H     H_    0.329713 0.348930 0.204812 0.349830
O11   O     O_3   0.817211 0.586060 0.873358 -0.613299
C29   C     C_3   0.911698 0.676225 0.901610 0.039131
H13   H     H_    0.944559 0.668056 0.010962 0.130513
H14   H     H_    0.880538 0.772588 0.882522 0.195935
C30   C     C_3   0.021884 0.653592 0.808387 -0.717697
H15   H     H_    0.993848 0.663905 0.697799 0.250197
H16   H     H_    0.097364 0.722279 0.832390 0.208079
H17   H     H_    0.057285 0.558945 0.826148 0.252656
O12   O     O_3   0.654574 0.729983 0.868426 -0.683771
H18   H     H_    0.671887 0.721080 0.768726 0.371182
O13   O     O_3   0.641061 0.731627 0.141518 -0.516216
C31   C     C_3   0.731838 0.819585 0.187446 0.103514
H19   H     H_    0.824991 0.807498 0.141017 0.089625
H20   H     H_    0.741700 0.812808 0.302197 0.135485
C32   C     C_3   0.690032 0.949279 0.150107 -0.685315
H21   H     H_    0.755815 0.019560 0.195153 0.197904
H22   H     H_    0.687454 0.960068 0.035270 0.277749
H23   H     H_    0.596174 0.965461 0.191413 0.244702
O14   O     O_3   0.123125 0.149114 0.844843 -0.747514
H24   H     H_    0.213857 0.162085 0.834242 0.324876
O15   O     O_3   0.860065 0.153802 0.842319 -0.726167
H25   H     H_    0.914844 0.099594 0.897248 0.367187
O16   O     O_3   0.716027 0.888639 0.612002 -0.716649
H26   H     H_    0.726477 0.807118 0.566126 0.286558

loop_
_geom_bond_atom_site_label_1
_geom_bond_atom_site_label_2
_ccdc_geom_bond_type
C31   H20   S    
O11   C29   S    
C16   C21   S    
Cu1   N2    S    
C1    C8    S    
O14   H24   S    
C22   O6    A    
C19   C20   S    
C7    C8    A    
Cu1   O7    S    
O16   H26   S    
C26   C27   A    
C24   H6    S    
Cu1   O5    S    
Cu2   O6    S    
C18   N2    A    
C5    C6    A    
C23   O7    A    
C31   C32   S    
C9    H9    S    
C29   H13   S    
C32   H22   S    
C3    C12   S    
C1    O1    A    
C6    C28   A    
C8    C9    A    
Cu2   N1    S    
C15   O9    S    
C9    C10   A    
C19   N2    A    
C7    C15   S    
C22   O5    A    
Cu2   O8    S    
C30   H15   S    
C5    H8    S    
Cu1   O1    S    
Cu2   O2    S    
C20   O11   S    
C10   O16   S    
C26   O15   S    
C30   H16   S    
O9    H11   S    
C24   C25   A    
C12   O4    A    
C12   O3    A    
C23   O8    A    
C25   C26   A    
O10   H12   S    
Cu1   O3    S    
C32   H23   S    
O15   H25   S    
Cu1   Cu2   S    
C1    O2    A    
C17   C18   A    
C18   H4    S    
C2    C24   A    
C3    C4    A    
C17   O10   S    
C30   H17   S    
C21   O13   S    
Cu2   O4    S    
C14   H2    S    
C4    C5    A    
C21   H5    S    
C11   C22   S    
C29   C30   S    
C20   O12   S    
C2    C3    A    
C11   C13   A    
C27   H7    S    
C16   C19   A    
C6    C23   S    
C29   H14   S    
C31   H19   S    
C25   O14   S    
C32   H21   S    
C17   N1    A    
C4    H1    S    
C10   C11   A    
C14   H10   S    
O12   H18   S    
C7    C13   A    
C20   C21   S    
O13   C31   S    
C27   C28   A    
C14   C15   S    
C2    C28   A    
C13   C14   S    
C16   N1    A    
C15   H3    S    
