data_mof_unit_2950.cif
_audit_creation_date              2012-12-10T19:00:43-0500
_audit_creation_method            fapswitch 2.2
_symmetry_space_group_name_H-M    P1
_symmetry_Int_Tables_number       1
_space_group_crystal_system       triclinic
_cell_length_a                    15.053036
_cell_length_b                    10.857239
_cell_length_c                    9.536911
_cell_angle_alpha                 89.979223
_cell_angle_beta                  89.763345
_cell_angle_gamma                 90.27205
_cell_volume                      1558.62843869

loop_
_atom_site_label
_atom_site_type_symbol
_atom_type_description
_atom_site_fract_x
_atom_site_fract_y
_atom_site_fract_z
_atom_type_partial_charge
C1    C     C_R   0.500097 0.262675 0.499877 0.804882
C2    C     C_R   0.907258 0.555617 0.385931 0.090745
C3    C     C_R   0.952969 0.408835 0.731207 -0.221902
C4    C     C_R   0.045443 0.408638 0.730895 -0.233425
C5    C     C_R   0.092623 0.457431 0.616577 0.110093
C6    C     C_R   0.046775 0.507586 0.500862 0.044834
C7    C     C_R   0.093979 0.557612 0.385100 0.052797
C8    C     C_R   0.046832 0.610762 0.271755 -0.005877
C9    C     C_R   0.953781 0.607262 0.272866 -0.260727
C10   C     C_R   0.185038 0.457066 0.616514 -0.252611
C11   C     C_R   0.232024 0.502397 0.500700 -0.071381
C12   C     C_R   0.328708 0.500105 0.500254 0.809119
C13   C     C_R   0.186896 0.550783 0.385264 -0.255470
C14   C     C_R   0.494651 0.061857 0.620853 0.134780
C15   C     C_R   0.501296 0.130059 0.498251 -0.105376
C16   C     C_R   0.509280 0.064666 0.370863 -0.221310
C17   C     C_R   0.509415 0.935472 0.370844 -0.223454
C18   C     C_R   0.501527 0.869889 0.498220 -0.106712
C19   C     C_R   0.494831 0.937872 0.620852 0.132645
C20   C     C_3   0.482298 0.928750 0.775587 -0.471700
C21   C     C_3   0.482050 0.070619 0.775572 -0.482462
C22   C     C_R   0.542713 0.591293 0.073298 0.262954
C23   C     C_R   0.500267 0.737303 0.499824 0.804119
C24   C     C_R   0.450743 0.417144 0.074819 -0.077460
C25   C     C_R   0.450729 0.417144 0.925855 -0.079703
C26   C     C_R   0.542566 0.591442 0.925824 0.260125
C27   C     C_3   0.639087 0.622201 0.918871 -0.498764
C28   C     C_3   0.639422 0.620991 0.077809 -0.525295
C29   C     C_R   0.671342 0.500847 0.499879 0.813887
C30   C     C_R   0.814657 0.553159 0.386245 -0.240734
C31   C     C_R   0.768123 0.502932 0.500253 -0.069357
C32   C     C_R   0.814143 0.456035 0.615733 -0.251858
C33   C     C_R   0.906701 0.457190 0.616809 0.120665
C34   C     C_R   0.953625 0.506962 0.501177 0.061258
Cu1   Cu    Cu3+1 0.500000 0.499980 0.640670 0.938811
Cu2   Cu    Cu3+1 0.500000 0.500020 0.359330 0.939596
H1    H     H_    0.778851 0.592409 0.298988 0.143497
H2    H     H_    0.515414 0.887734 0.271555 0.164655
H3    H     H_    0.417076 0.887231 0.804423 0.196317
H4    H     H_    0.540924 0.888422 0.828742 0.194443
H5    H     H_    0.416633 0.110662 0.804302 0.187021
H6    H     H_    0.540499 0.112307 0.828704 0.203379
H7    H     H_    0.412260 0.348573 0.130995 0.137976
H8    H     H_    0.412166 0.348690 0.870226 0.132281
H9    H     H_    0.679731 0.547179 0.872739 0.218232
H10   H     H_    0.651446 0.715056 0.873583 0.189693
H11   H     H_    0.679303 0.544076 0.120850 0.217062
H12   H     H_    0.777934 0.417019 0.703824 0.144615
H13   H     H_    0.652678 0.712904 0.124800 0.190641
H14   H     H_    0.917640 0.370802 0.820621 0.143656
H15   H     H_    0.080137 0.370515 0.820184 0.145199
H16   H     H_    0.220428 0.419275 0.705435 0.149478
H17   H     H_    0.225050 0.583331 0.296199 0.169930
H18   H     H_    0.917446 0.647122 0.186082 0.150391
H19   H     H_    0.515162 0.112550 0.271576 0.166110
N1    N     N_R   0.500570 0.500930 0.147930 -0.185637
N2    N     N_R   0.500570 0.500890 0.852020 -0.185549
O1    O     O_R   0.500000 0.319640 0.618810 -0.584185
O2    O     O_R   0.500010 0.319680 0.381230 -0.589454
O3    O     O_R   0.370250 0.499950 0.618800 -0.585575
O4    O     O_R   0.370260 0.499990 0.381220 -0.585450
O5    O     O_R   0.499990 0.680320 0.618770 -0.579018
O6    O     O_R   0.500000 0.680360 0.381190 -0.587835
O7    O     O_R   0.629740 0.500010 0.618780 -0.587676
O8    O     O_R   0.629750 0.500050 0.381200 -0.583994
C35   C     C_R   0.092045 0.674177 0.153118 0.112624
C36   C     C_R   0.148341 0.775574 0.177845 -0.156818
C37   C     C_R   0.190355 0.835682 0.065924 -0.137262
C38   C     C_R   0.175402 0.796503 0.928474 -0.112433
C39   C     C_R   0.118105 0.697519 0.902704 -0.123697
C40   C     C_R   0.076459 0.636469 0.014404 -0.156404
H20   H     H_    0.159800 0.807741 0.283764 0.129554
H21   H     H_    0.234231 0.912959 0.085733 0.126873
H22   H     H_    0.207789 0.843298 0.841880 0.121238
H23   H     H_    0.105808 0.668531 0.796066 0.147385
H24   H     H_    0.032326 0.559764 0.993034 0.133002

loop_
_geom_bond_atom_site_label_1
_geom_bond_atom_site_label_2
_ccdc_geom_bond_type
C28   H11   S    
C8    C35   S    
C19   C20   S    
Cu2   O2    S    
C10   H16   S    
C7    C8    A    
C26   C27   S    
Cu1   O1    S    
C5    C6    A    
C14   C21   S    
C36   H20   S    
C1    O2    A    
C30   C31   A    
C20   H4    S    
C16   C17   A    
C3    C33   A    
C15   C16   A    
C18   C19   A    
C23   O5    A    
C35   C40   A    
C8    C9    A    
Cu1   O7    S    
C1    C15   S    
Cu2   O6    S    
C27   H9    S    
C23   O6    A    
C35   C36   A    
C29   O7    A    
C22   C28   S    
C32   H12   S    
C25   N2    A    
C25   H8    S    
C3    H14   S    
C17   C18   A    
C13   H17   S    
C4    H15   S    
C36   C37   A    
C24   C25   A    
C20   H3    S    
Cu2   O8    S    
C37   C38   A    
C22   N1    A    
C37   H21   S    
C18   C23   S    
C30   H1    S    
Cu1   O3    S    
Cu1   Cu2   S    
Cu2   N1    S    
C28   H13   S    
C31   C32   A    
C33   C34   A    
C38   H22   S    
C39   C40   A    
C29   O8    A    
C27   H10   S    
C21   H5    S    
Cu2   O4    S    
C39   H23   S    
C14   C19   A    
C4    C5    A    
C11   C12   S    
C6    C7    A    
C24   N1    A    
C2    C30   A    
Cu1   N2    S    
C32   C33   A    
C16   H19   S    
C5    C10   A    
C29   C31   S    
C1    O1    A    
C12   O4    A    
C11   C13   A    
C2    C34   A    
C40   H24   S    
Cu1   O5    S    
C17   H2    S    
C38   C39   A    
C26   N2    A    
C10   C11   A    
C21   H6    S    
C12   O3    A    
C6    C34   A    
C7    C13   A    
C20   C21   S    
C22   C26   A    
C27   C28   S    
C24   H7    S    
C14   C15   A    
C9    H18   S    
C2    C9    A    
C3    C4    A    
