data_mof_unit_4301.cif
_audit_creation_date              2012-12-11T16:24:13-0500
_audit_creation_method            fapswitch 2.2
_symmetry_space_group_name_H-M    P1
_symmetry_Int_Tables_number       1
_space_group_crystal_system       triclinic
_cell_length_a                    14.752912
_cell_length_b                    14.759945
_cell_length_c                    33.289781
_cell_angle_alpha                 96.091746
_cell_angle_beta                  96.265776
_cell_angle_gamma                 61.198603
_cell_volume                      6302.30902962

loop_
_atom_site_label
_atom_site_type_symbol
_atom_type_description
_atom_site_fract_x
_atom_site_fract_y
_atom_site_fract_z
_atom_type_partial_charge
C1    C     C_R   0.391014 0.699402 0.446035 0.546031
C2    C     C_R   0.329324 0.347125 0.309056 0.039601
C3    C     C_R   0.411603 0.264659 0.328653 -0.104360
C4    C     C_R   0.431725 0.273872 0.370344 -0.120785
C5    C     C_R   0.386219 0.242274 0.167181 -0.136363
C6    C     C_R   0.377875 0.224358 0.125488 -0.161870
C7    C     C_R   0.218565 0.388458 0.120847 0.134459
C8    C     C_R   0.227233 0.406202 0.163175 0.117301
C9    C     C_R   0.309630 0.330715 0.186222 0.028264
C10   C     C_1   0.313929 0.339362 0.229546 -0.016333
C11   C     C_1   0.319132 0.343578 0.265838 -0.015145
C12   C     C_R   0.405777 0.386291 0.434050 0.542409
C13   C     C_R   0.291989 0.294351 0.101998 0.029200
C14   C     C_R   0.755229 0.372150 0.409566 0.027854
C15   C     C_R   0.793067 0.429092 0.391961 0.082577
C16   C     C_R   0.819091 0.405257 0.351657 -0.132445
C17   C     C_R   0.808399 0.325421 0.328417 0.021424
C18   C     C_R   0.780290 0.261932 0.347300 0.083727
C19   C     C_R   0.755009 0.285474 0.387556 -0.107896
C20   C     C_R   0.827279 0.309003 0.203116 0.346013
C21   C     C_R   0.817128 0.317958 0.284370 0.342001
C22   C     C_R   0.832070 0.389227 0.141714 -0.119946
C23   C     C_R   0.700828 0.409850 0.447444 0.561329
C24   C     C_R   0.864520 0.378590 0.102966 -0.128954
C25   C     C_R   0.906686 0.197646 0.097923 -0.130486
C26   C     C_R   0.874787 0.208140 0.136778 -0.119659
C27   C     C_R   0.841598 0.302854 0.159674 0.034349
C28   C     C_R   0.906409 0.281585 0.081499 0.022695
C29   C     C_R   0.371007 0.753771 0.408831 -0.000200
C30   C     C_R   0.275644 0.786203 0.386254 -0.108619
C31   C     C_R   0.263845 0.814389 0.346343 0.103512
C32   C     C_R   0.349417 0.809390 0.328903 0.062578
C33   C     C_R   0.441060 0.787055 0.352962 -0.147765
C34   C     C_R   0.393559 0.701229 0.561285 0.541850
C35   C     C_R   0.451883 0.759336 0.392569 -0.142242
C36   C     C_R   0.351864 0.822753 0.204123 0.350773
C37   C     C_R   0.347943 0.817401 0.285119 0.351135
C38   C     C_R   0.260196 0.834498 0.136270 -0.146926
C39   C     C_R   0.237272 0.866962 0.097034 -0.142227
C40   C     C_R   0.387753 0.893652 0.102874 -0.111088
C41   C     C_R   0.412092 0.860472 0.142485 0.103795
C42   C     C_R   0.344059 0.836189 0.160228 0.061352
C43   C     C_R   0.297759 0.901782 0.080760 0.000285
C44   C     C_R   0.371849 0.369302 0.585214 0.021264
C45   C     C_R   0.407418 0.388887 0.549045 0.545097
C46   C     C_R   0.285323 0.448810 0.604056 -0.131227
C47   C     C_R   0.266315 0.439624 0.643149 -0.121383
C48   C     C_R   0.333630 0.350879 0.663961 0.034137
C49   C     C_R   0.414491 0.267793 0.643696 -0.119621
C50   C     C_R   0.433341 0.276845 0.604646 -0.124000
C51   C     C_R   0.318670 0.348047 0.788562 0.346233
C52   C     C_R   0.325818 0.348172 0.707497 0.346735
C53   C     C_R   0.218214 0.403221 0.850412 -0.122462
C54   C     C_R   0.207008 0.383629 0.889144 -0.131342
C55   C     C_R   0.386216 0.249052 0.893028 -0.129519
C56   C     C_R   0.701878 0.413342 0.562616 0.553189
C57   C     C_R   0.397369 0.268577 0.854381 -0.120937
C58   C     C_R   0.312125 0.342406 0.831980 0.034192
C59   C     C_R   0.289590 0.302948 0.909941 0.022705
C60   C     C_R   0.754680 0.381137 0.603078 0.046262
C61   C     C_R   0.759784 0.456927 0.631324 -0.152399
C62   C     C_R   0.786666 0.437309 0.672080 -0.123051
C63   C     C_R   0.809724 0.341524 0.685294 0.019510
C64   C     C_R   0.812214 0.262785 0.657396 -0.088449
C65   C     C_R   0.785544 0.281259 0.616082 0.099172
C66   C     C_R   0.899584 0.208471 0.821896 -0.123403
C67   C     C_R   0.369850 0.366142 0.392711 0.017757
C68   C     C_R   0.927214 0.197604 0.863184 -0.158728
C69   C     C_R   0.855571 0.384434 0.874419 0.093378
C70   C     C_R   0.827847 0.394386 0.832828 -0.103381
C71   C     C_R   0.852799 0.306458 0.806574 0.021645
C72   C     C_1   0.837124 0.316478 0.763689 -0.019313
C73   C     C_1   0.825412 0.326448 0.727828 -0.020215
C74   C     C_R   0.909451 0.284682 0.889715 0.058510
C75   C     C_R   0.376670 0.754440 0.602069 0.020492
C76   C     C_R   0.281095 0.790473 0.619067 -0.126211
C77   C     C_R   0.271603 0.819565 0.660299 -0.111395
C78   C     C_R   0.282762 0.445667 0.373091 -0.124921
C79   C     C_R   0.357238 0.813262 0.684957 0.041796
C80   C     C_R   0.450865 0.783538 0.667947 -0.111809
C81   C     C_R   0.460536 0.754639 0.626657 -0.128078
C82   C     C_R   0.397162 0.883494 0.832846 -0.112141
C83   C     C_R   0.377282 0.911083 0.873640 -0.126585
C84   C     C_R   0.227304 0.882806 0.862628 -0.128327
C85   C     C_R   0.247453 0.855165 0.821887 -0.111974
C86   C     C_R   0.330674 0.858191 0.806756 0.039926
C87   C     C_1   0.343219 0.842068 0.764035 -0.023920
C88   C     C_1   0.350670 0.829766 0.728013 -0.023357
C89   C     C_R   0.262932 0.436245 0.331362 -0.107988
C90   C     C_R   0.290152 0.914209 0.888669 0.019157
C91   C     C_R   0.963378 0.264242 0.045463 0.545247
C92   C     C_R   0.272854 0.259755 0.060040 0.563081
C93   C     C_R   0.259256 0.959688 0.043816 0.547327
C94   C     C_R   0.962038 0.267807 0.930821 0.564214
C95   C     C_R   0.270810 0.264051 0.945361 0.543481
C96   C     C_R   0.256031 0.965128 0.928923 0.542197
Cr1   Cr    Cr6+3 0.576280 0.580550 0.506370 1.027634
Cr2   Cr    Cr6+3 0.346780 0.572400 0.496520 1.012215
Cr3   Cr    Cr6+3 0.576960 0.347070 0.497150 1.035348
Cr4   Cr    Cr6+3 0.087320 0.083240 0.984860 1.011875
Cr5   Cr    Cr6+3 0.087720 0.316210 0.996740 1.048774
Cr6   Cr    Cr6+3 0.317350 0.090340 0.995890 1.010941
H1    H     H_    0.728027 0.239319 0.400644 0.156917
H2    H     H_    0.862348 0.444902 0.090823 0.132569
H3    H     H_    0.843863 0.452496 0.338009 0.132973
H4    H     H_    0.881328 0.140627 0.149587 0.137088
H5    H     H_    0.211857 0.784620 0.398914 0.125660
H6    H     H_    0.526091 0.735502 0.409406 0.141274
H7    H     H_    0.450413 0.184549 0.184829 0.134333
H8    H     H_    0.436502 0.917953 0.090122 0.122279
H9    H     H_    0.236129 0.520811 0.589710 0.130293
H10   H     H_    0.202607 0.504461 0.657835 0.132802
H11   H     H_    0.466471 0.197504 0.658673 0.134389
H12   H     H_    0.463160 0.195295 0.311462 0.125469
H13   H     H_    0.451633 0.187334 0.908581 0.130653
H14   H     H_    0.790193 0.470566 0.820894 0.107940
H15   H     H_    0.785369 0.498426 0.693555 0.117735
H16   H     H_    0.461927 0.885804 0.821363 0.112556
H17   H     H_    0.535346 0.726694 0.614577 0.125178
H18   H     H_    0.233727 0.517707 0.389466 0.130656
H19   H     H_    0.198936 0.500301 0.316284 0.120864
N1    N     N_R   0.794942 0.400476 0.225256 -0.230786
N2    N     N_R   0.243674 0.423202 0.727035 -0.235417
N3    N     N_R   0.404449 0.273663 0.729320 -0.233672
N4    N     N_R   0.400795 0.273419 0.768995 -0.234516
N5    N     N_R   0.789652 0.404886 0.265053 -0.227032
N6    N     N_R   0.849671 0.226430 0.262269 -0.237831
N7    N     N_R   0.854864 0.221974 0.222420 -0.229956
N8    N     N_R   0.294902 0.785650 0.218956 -0.243134
N9    N     N_R   0.293449 0.782487 0.258609 -0.175320
N10   N     N_R   0.406069 0.853314 0.270434 -0.239813
N11   N     N_R   0.407159 0.856806 0.230719 -0.175033
N12   N     N_R   0.239835 0.422735 0.766777 -0.235775
O1    O     O_R   0.679450 0.499830 0.463150 -0.467402
O2    O     O_R   0.356040 0.477400 0.534170 -0.504107
O3    O     O_R   0.495910 0.323070 0.537100 -0.504325
O4    O     O_R   0.663920 0.359620 0.542290 -0.458975
O5    O     O_3   0.500010 0.500010 0.500010 -0.245208
O6    O     O_R   0.170070 0.978950 0.027680 -0.516763
O7    O     O_R   0.001760 0.175230 0.026640 -0.503723
O8    O     O_R   0.984760 0.333570 0.037150 -0.510668
O9    O     O_R   0.183410 0.309240 0.041890 -0.458639
O10   O     O_R   0.340240 0.172500 0.045430 -0.530048
O11   O     O_R   0.309670 0.000990 0.032050 -0.502979
O12   O     O_R   0.480650 0.664000 0.464630 -0.499102
O13   O     O_R   0.168330 0.982130 0.939200 -0.520718
O14   O     O_R   0.000140 0.178170 0.944610 -0.516172
O15   O     O_R   0.983010 0.336750 0.948660 -0.474488
O16   O     O_R   0.181800 0.312190 0.959860 -0.502839
O17   O     O_R   0.338500 0.175680 0.956950 -0.520250
O18   O     O_R   0.308050 0.003930 0.950020 -0.501299
O19   O     O_3   0.164130 0.163270 0.992500 -0.246219
O20   O     O_R   0.323930 0.675950 0.455370 -0.520138
O21   O     O_R   0.354700 0.475360 0.451930 -0.502280
O22   O     O_R   0.494470 0.320860 0.448390 -0.519158
O23   O     O_R   0.662580 0.357570 0.460050 -0.520823
O24   O     O_R   0.680900 0.502040 0.551870 -0.530773
O25   O     O_R   0.481990 0.666040 0.546870 -0.503949
O26   O     O_R   0.325370 0.678160 0.544080 -0.519085
H20   H     H_    0.435882 0.152089 0.112048 0.142088
N13   N     N_3   0.769033 0.178015 0.325945 -0.633318
H21   H     H_    0.715773 0.206072 0.301050 0.255203
H22   H     H_    0.841040 0.122087 0.316066 0.258372
H23   H     H_    0.805368 0.463694 0.158391 0.136882
H24   H     H_    0.937928 0.122036 0.081928 0.132167
H25   H     H_    0.168195 0.870935 0.080450 0.138411
N14   N     N_3   0.166503 0.845248 0.323165 -0.595028
H26   H     H_    0.113090 0.840686 0.339961 0.220927
H27   H     H_    0.136296 0.923323 0.317612 0.238671
H28   H     H_    0.507119 0.784042 0.340295 0.138027
H29   H     H_    0.207750 0.814392 0.148627 0.143512
N15   N     N_3   0.503584 0.854407 0.164943 -0.594876
H30   H     H_    0.554369 0.776139 0.169164 0.236988
H31   H     H_    0.541669 0.880371 0.148220 0.217980
H32   H     H_    0.499948 0.213779 0.590730 0.140333
H33   H     H_    0.131679 0.426867 0.901534 0.134260
H34   H     H_    0.151477 0.461531 0.834056 0.132632
H35   H     H_    0.471423 0.221914 0.841301 0.134029
H36   H     H_    0.968561 0.120086 0.873839 0.133955
H37   H     H_    0.918786 0.140006 0.801715 0.118112
H38   H     H_    0.832073 0.188063 0.667981 0.104821
N16   N     N_3   0.786789 0.200240 0.587697 -0.599749
H39   H     H_    0.806422 0.133621 0.602568 0.214142
H40   H     H_    0.845723 0.180555 0.568377 0.221379
H41   H     H_    0.736878 0.533938 0.622441 0.130926
N17   N     N_3   0.831391 0.475408 0.900680 -0.605991
H42   H     H_    0.751125 0.523254 0.898104 0.224955
H43   H     H_    0.866340 0.514925 0.890408 0.225189
H44   H     H_    0.499265 0.211310 0.384566 0.136790
H45   H     H_    0.426978 0.935171 0.892832 0.128794
H46   H     H_    0.517551 0.778519 0.686855 0.109667
H47   H     H_    0.215158 0.791147 0.600983 0.126730
H48   H     H_    0.195726 0.835381 0.801863 0.113333
H49   H     H_    0.159520 0.884639 0.873182 0.127713
H50   H     H_    0.198718 0.842767 0.673250 0.109655
N18   N     N_3   0.150065 0.499494 0.182282 -0.641434
H51   H     H_    0.187235 0.538037 0.198738 0.247511
H52   H     H_    0.114453 0.479304 0.202594 0.239040
N19   N     N_3   0.133752 0.464384 0.097296 -0.592000
H53   H     H_    0.136646 0.534143 0.101999 0.241557
H54   H     H_    0.064483 0.475869 0.107796 0.250845
N20   N     N_3   0.801388 0.513714 0.414150 -0.597514
H55   H     H_    0.878294 0.498809 0.414450 0.224877
H56   H     H_    0.754896 0.580704 0.398598 0.227664

loop_
_geom_bond_atom_site_label_1
_geom_bond_atom_site_label_2
_ccdc_geom_bond_type
C8    C9    A    
C66   C68   A    
C87   C88   T    
Cr2   O21   S    
Cr5   O15   S    
C55   C59   A    
C30   H5    S    
C52   N3    A    
C41   C42   A    
C74   C94   S    
C83   H45   S    
C49   H11   S    
C26   H4    S    
N13   H21   S    
C7    C8    A    
N14   H27   S    
C85   C86   A    
Cr4   O19   S    
C25   C28   A    
C26   C27   A    
C29   C30   A    
C59   C95   S    
N2    N12   A    
C93   O6    A    
C5    C6    A    
C12   O21   A    
C20   N7    A    
C36   N11   A    
C38   C39   A    
C18   N13   S    
C33   H28   S    
Cr4   O14   S    
C68   C74   A    
C15   C16   A    
C29   C35   A    
N18   H51   S    
C37   N9    A    
N10   N11   A    
C18   C19   A    
C54   H33   S    
C92   O10   A    
N16   H39   S    
C62   H15   S    
C35   H6    S    
Cr4   O7    S    
C33   C35   A    
C36   C42   S    
C40   C43   A    
C66   C71   A    
C44   C46   A    
C16   C17   A    
Cr3   O22   S    
Cr3   O5    S    
C70   C71   A    
C95   O16   A    
C21   N6    A    
C92   O9    A    
C9    C10   S    
C20   N1    A    
C40   H8    S    
C34   C75   S    
C65   N16   S    
C34   O26   A    
Cr2   O20   S    
N19   H53   S    
C46   H9    S    
C61   C62   A    
C67   C78   A    
C84   C90   A    
Cr1   O1    S    
C2    C11   S    
C14   C19   A    
C61   H41   S    
C79   C88   S    
N13   H22   S    
N15   H31   S    
N16   H40   S    
C54   C59   A    
C77   C79   A    
C78   C89   A    
C94   O15   A    
C41   N15   S    
C45   O2    A    
N20   H55   S    
C51   N4    A    
C38   H29   S    
C76   C77   A    
N18   H52   S    
Cr3   O4    S    
C84   H49   S    
N14   H26   S    
C95   O17   A    
C86   C87   S    
C72   C73   T    
C39   C43   A    
C12   C67   S    
C63   C73   S    
C25   H24   S    
C25   C26   A    
C53   C54   A    
C96   O18   A    
C66   H37   S    
Cr2   O2    S    
C17   C21   S    
C56   C60   S    
C32   C33   A    
C60   C61   A    
C24   H2    S    
Cr1   O24   S    
C14   C23   S    
N1    N5    A    
C2    C89   A    
C78   H18   S    
C75   C76   A    
C5    C9    A    
C56   O24   A    
C76   H47   S    
Cr4   O6    S    
C22   H23   S    
Cr5   O9    S    
C47   C48   A    
Cr6   O11   S    
C7    C13   A    
C30   C31   A    
C68   H36   S    
Cr3   O23   S    
C62   C63   A    
C1    C29   S    
C17   C18   A    
C69   C74   A    
C51   C58   S    
C32   C37   S    
C84   C85   A    
C1    O20   A    
C91   O7    A    
C93   O11   A    
N20   H56   S    
C16   H3    S    
Cr6   O17   S    
C64   H38   S    
C34   O25   A    
C40   C41   A    
Cr2   O5    S    
C60   C65   A    
C49   C50   A    
C22   C27   A    
C55   C57   A    
C13   C92   S    
C80   H46   S    
C22   C24   A    
C79   C80   A    
N17   H42   S    
C1    O12   A    
C82   H16   S    
C12   O22   A    
N17   H43   S    
C3    C4    A    
Cr1   O5    S    
C15   N20   S    
N15   H30   S    
N8    N9    A    
C44   C50   A    
C94   O14   A    
C83   C90   A    
C81   H17   S    
C46   C47   A    
C48   C49   A    
C45   O3    A    
C89   H19   S    
C23   O1    A    
Cr5   O8    S    
C4    H44   S    
C31   C32   A    
C75   C81   A    
C44   C45   S    
C24   C28   A    
C31   N14   S    
C80   C81   A    
C3    H12   S    
C53   H34   S    
C4    C67   A    
C6    H20   S    
C53   C58   A    
C90   C96   S    
C20   C27   S    
C96   O13   A    
C47   H10   S    
Cr6   O18   S    
Cr5   O19   S    
C43   C93   S    
C70   H14   S    
Cr1   O25   S    
C39   H25   S    
C2    C3    A    
C77   H50   S    
C71   C72   S    
C82   C86   A    
C36   N8    A    
C64   C65   A    
C6    C13   A    
C56   O4    A    
C51   N12   A    
C85   H48   S    
C57   C58   A    
C57   H35   S    
C55   H13   S    
Cr5   O16   S    
C52   N2    A    
Cr3   O3    S    
C8    N18   S    
C28   C91   S    
C7    N19   S    
C69   C70   A    
C19   H1    S    
C10   C11   T    
C63   C64   A    
C38   C42   A    
C37   N10   A    
C48   C52   S    
Cr1   O12   S    
Cr2   O26   S    
C82   C83   A    
Cr6   O10   S    
Cr4   O13   S    
N19   H54   S    
C14   C15   A    
C50   H32   S    
C5    H7    S    
C21   N5    A    
C23   O23   A    
C69   N17   S    
N6    N7    A    
Cr6   O19   S    
N3    N4    A    
C91   O8    A    
