data_mof_unit_802.cif
_audit_creation_date              2012-12-11T14:40:27-0500
_audit_creation_method            fapswitch 2.2
_symmetry_space_group_name_H-M    P1
_symmetry_Int_Tables_number       1
_space_group_crystal_system       triclinic
_cell_length_a                    19.688111
_cell_length_b                    10.882823
_cell_length_c                    19.503575
_cell_angle_alpha                 90.011639
_cell_angle_beta                  97.427325
_cell_angle_gamma                 89.4492
_cell_volume                      4143.62330394

loop_
_atom_site_label
_atom_site_type_symbol
_atom_type_description
_atom_site_fract_x
_atom_site_fract_y
_atom_site_fract_z
_atom_type_partial_charge
Br1   Br    Br    0.660641 0.131099 0.985332 -0.630275
Br2   Br    Br    0.340611 0.206683 0.013894 -0.626828
Br3   Br    Br    0.163589 0.701539 0.997782 -0.593999
Br4   Br    Br    0.837109 0.636480 0.001666 -0.595652
C1    C     C_R   0.725283 0.952467 0.360817 0.543888
C2    C     C_3   0.254559 0.394575 0.565986 0.062499
C3    C     C_3   0.239691 0.868687 0.438012 0.060142
C4    C     C_3   0.754560 0.894568 0.565985 0.062168
C5    C     C_3   0.733548 0.503786 0.457925 -0.118294
C6    C     C_3   0.219261 0.506640 0.530651 -0.148747
C7    C     C_3   0.233556 0.003824 0.457919 -0.119341
C8    C     C_3   0.719261 0.006632 0.530650 -0.148734
C9    C     C_3   0.804473 0.492497 0.502217 -0.139424
C10   C     C_3   0.180429 0.420046 0.477009 -0.106730
C11   C     C_3   0.304483 0.992542 0.502210 -0.141267
C12   C     C_R   0.289782 0.993001 0.632490 0.555173
C13   C     C_3   0.680430 0.920037 0.477008 -0.106447
C14   C     C_3   0.810410 0.356852 0.481442 -0.106686
C15   C     C_3   0.216019 0.307037 0.512929 -0.109273
C16   C     C_3   0.310424 0.856898 0.481432 -0.107398
C17   C     C_3   0.716021 0.807028 0.512929 -0.109261
C18   C     C_3   0.774429 0.315315 0.542756 -0.118138
C19   C     C_3   0.275468 0.315472 0.468872 -0.148176
C20   C     C_3   0.274448 0.815353 0.542747 -0.117163
C21   C     C_3   0.775470 0.815464 0.468871 -0.148195
C22   C     C_3   0.768800 0.450447 0.562967 0.061823
C23   C     C_R   0.225283 0.452468 0.360816 0.543302
C24   C     C_3   0.239979 0.427415 0.433574 0.061746
C25   C     C_3   0.268814 0.950484 0.562961 0.060233
C26   C     C_3   0.739981 0.927407 0.433574 0.061990
C27   C     C_3   0.525614 0.265051 0.965056 -0.102541
C28   C     C_3   0.488662 0.280776 0.029420 -0.098881
C29   C     C_3   0.013394 0.780043 0.970710 -0.104770
C30   C     C_3   0.974167 0.766396 0.033659 -0.110283
C31   C     C_3   0.567787 0.157391 0.999376 0.118131
C32   C     C_3   0.434131 0.188436 0.000382 0.118313
C33   C     C_3   0.067293 0.685880 0.001587 0.123503
C34   C     C_R   0.789775 0.492981 0.632489 0.551095
C35   C     C_3   0.933040 0.659422 0.998527 0.122966
C36   C     C_3   0.531565 0.173290 0.063558 0.036008
C37   C     C_3   0.470274 0.173365 0.936206 0.034401
C38   C     C_3   0.028897 0.673001 0.064205 0.037044
C39   C     C_3   0.971473 0.673272 0.935960 0.037598
C40   C     C_R   0.535307 0.180248 0.338112 0.550032
C41   C     C_R   0.464804 0.179683 0.661953 0.550320
C42   C     C_R   0.035308 0.680248 0.338112 0.549406
C43   C     C_R   0.964803 0.679683 0.661952 0.549306
C44   C     C_3   0.476623 0.080852 0.035119 -0.102847
C45   C     C_3   0.703596 0.326829 0.498595 -0.145328
C46   C     C_3   0.512818 0.065262 0.969639 -0.101924
C47   C     C_3   0.987315 0.565508 0.030085 -0.105366
C48   C     C_3   0.025805 0.579063 0.966011 -0.109608
C49   C     C_1   0.758849 0.412623 0.900284 0.053538
C50   C     C_1   0.232140 0.437361 0.092047 0.060733
C51   C     C_1   0.279623 0.968896 0.913963 0.049464
C52   C     C_1   0.740694 0.915636 0.098683 0.049649
C53   C     C_1   0.738328 0.375097 0.027969 0.054965
C54   C     C_1   0.244672 0.427233 0.960278 0.058872
C55   C     C_1   0.257779 0.936390 0.041999 0.057496
C56   C     C_3   0.314429 0.401948 0.523002 -0.117382
C57   C     C_1   0.756911 0.895074 0.968468 0.064679
C58   C     C_1   0.747541 0.392724 0.958320 0.057231
C59   C     C_1   0.238148 0.433129 0.031433 0.064409
C60   C     C_1   0.268809 0.953043 0.972642 0.055981
C61   C     C_1   0.750851 0.901193 0.039686 0.057474
C62   C     C_1   0.731362 0.353452 0.087071 0.050548
C63   C     C_1   0.252350 0.408293 0.900957 0.051247
C64   C     C_1   0.248147 0.912096 0.100127 0.052035
C65   C     C_1   0.760004 0.886099 0.907441 0.061226
C66   C     C_R   0.727278 0.318930 0.368861 0.555126
C67   C     C_3   0.203613 0.826861 0.498589 -0.143556
C68   C     C_R   0.260834 0.362667 0.638063 0.543103
C69   C     C_R   0.227283 0.818951 0.368862 0.550772
C70   C     C_R   0.760833 0.862667 0.638064 0.543240
C71   C     C_R   0.722605 0.950700 0.164644 0.546825
C72   C     C_R   0.294124 0.995057 0.845498 0.555931
C73   C     C_R   0.220563 0.455964 0.162193 0.553058
C74   C     C_R   0.777471 0.450451 0.835258 0.565133
C75   C     C_R   0.560685 0.181836 0.135729 0.563543
C76   C     C_R   0.440113 0.182282 0.864446 0.567595
C77   C     C_R   0.059440 0.681742 0.135594 0.590883
C78   C     C_3   0.814430 0.901941 0.523001 -0.117678
C79   C     C_R   0.940975 0.682136 0.864494 0.590165
C80   C     C_R   0.723917 0.316413 0.155885 0.558688
C81   C     C_R   0.263070 0.363295 0.834273 0.547292
C82   C     C_R   0.236769 0.863690 0.165762 0.566719
C83   C     C_R   0.764836 0.857710 0.836693 0.556498
C84   C     C_1   0.485911 0.171508 0.594765 -0.017802
C85   C     C_1   0.514295 0.172485 0.405330 -0.015782
C86   C     C_1   0.985909 0.671508 0.594764 -0.016325
C87   C     C_1   0.014295 0.672486 0.405330 -0.014207
C88   C     C_1   0.504310 0.168796 0.464794 -0.061563
C89   C     C_3   0.739678 0.368648 0.438018 0.058424
C90   C     C_1   0.495958 0.168333 0.535305 -0.062358
C91   C     C_1   0.004310 0.668796 0.464793 -0.061275
C92   C     C_1   0.995957 0.668333 0.535304 -0.062076
C93   C     C_3   0.697869 0.462836 0.520182 -0.112658
C94   C     C_3   0.278742 0.515225 0.486144 -0.122658
C95   C     C_3   0.197881 0.962865 0.520178 -0.111803
C96   C     C_3   0.778742 0.015217 0.486143 -0.122645
Cr1   Cr    Cr6+3 0.765830 0.160660 0.268180 1.026123
Cr2   Cr    Cr6+3 0.384070 0.324050 0.751550 1.029792
Cr3   Cr    Cr6+3 0.115930 0.824050 0.248450 1.038392
Cr4   Cr    Cr6+3 0.884070 0.824050 0.751550 1.032313
Cr5   Cr    Cr6+3 0.234170 0.160660 0.731820 1.033305
Cr6   Cr    Cr6+3 0.265830 0.660660 0.268180 1.033201
Cr7   Cr    Cr6+3 0.734170 0.660660 0.731820 1.034288
Cr8   Cr    Cr6+3 0.612110 0.009150 0.248770 1.030970
Cr9   Cr    Cr6+3 0.387890 0.009150 0.751230 1.033588
Cr10  Cr    Cr6+3 0.112110 0.509150 0.248770 1.034352
Cr11  Cr    Cr6+3 0.887890 0.509150 0.751230 1.038052
Cr12  Cr    Cr6+3 0.615930 0.324050 0.248450 1.037804
H1    H     H_    0.661120 0.259892 0.494254 0.108018
H2    H     H_    0.196307 0.581304 0.559036 0.109287
H3    H     H_    0.215420 0.077864 0.420718 0.127187
H4    H     H_    0.696306 0.081292 0.559035 0.108384
H5    H     H_    0.346513 0.060412 0.505889 0.107309
H6    H     H_    0.625072 0.926848 0.457033 0.136019
H7    H     H_    0.846504 0.560363 0.505897 0.107393
H8    H     H_    0.125071 0.426859 0.457034 0.136086
H9    H     H_    0.856989 0.313017 0.465338 0.133066
H10   H     H_    0.188963 0.222615 0.525154 0.128550
H11   H     H_    0.357004 0.813070 0.465324 0.132858
H12   H     H_    0.369513 0.395137 0.543990 0.134766
H13   H     H_    0.688966 0.722604 0.525154 0.128599
H14   H     H_    0.791808 0.239516 0.579110 0.134217
H15   H     H_    0.298982 0.240962 0.440870 0.108143
H16   H     H_    0.291830 0.739548 0.579095 0.135637
H17   H     H_    0.798983 0.740950 0.440872 0.108973
H18   H     H_    0.546985 0.341528 0.937071 0.163205
H19   H     H_    0.477782 0.370819 0.052726 0.166405
H20   H     H_    0.024962 0.868882 0.946929 0.164873
H21   H     H_    0.952025 0.843410 0.061165 0.159867
H22   H     H_    0.456433 0.004934 0.064450 0.155958
H23   H     H_    0.161141 0.759917 0.494249 0.108072
H24   H     H_    0.522531 0.976396 0.944497 0.158958
H25   H     H_    0.976775 0.477695 0.055498 0.157835
H26   H     H_    0.046857 0.502607 0.937219 0.152394
H27   H     H_    0.869514 0.895131 0.543989 0.134758
H28   H     H_    0.652097 0.506661 0.537953 0.124948
H29   H     H_    0.305626 0.598644 0.472131 0.125082
H30   H     H_    0.152107 0.006683 0.537949 0.125403
H31   H     H_    0.805627 0.098634 0.472130 0.124980
H32   H     H_    0.715417 0.577833 0.420726 0.128686
O1    O     O_R   0.783230 0.287800 0.346510 -0.514223
O2    O     O_R   0.454570 0.285140 0.836900 -0.502930
O3    O     O_R   0.045430 0.785140 0.163100 -0.510847
O4    O     O_R   0.954570 0.785140 0.836900 -0.510638
O5    O     O_R   0.677850 0.374730 0.185500 -0.497237
O6    O     O_R   0.322150 0.374730 0.814500 -0.499808
O7    O     O_R   0.177850 0.874730 0.185500 -0.497343
O8    O     O_R   0.822150 0.874730 0.814500 -0.507967
O9    O     O_3   0.664630 0.164620 0.255130 -0.310697
O10   O     O_3   0.335370 0.164620 0.744870 -0.311010
O11   O     O_3   0.164630 0.664620 0.255130 -0.293274
O12   O     O_R   0.216770 0.287800 0.653490 -0.527225
O13   O     O_3   0.835370 0.664620 0.744870 -0.292077
O14   O     O_R   0.760130 0.037060 0.338610 -0.519716
O15   O     O_R   0.239870 0.037060 0.661390 -0.496837
O16   O     O_R   0.260130 0.537060 0.338610 -0.519128
O17   O     O_R   0.739870 0.537060 0.661390 -0.505816
O18   O     O_R   0.666620 0.921370 0.332440 -0.518432
O19   O     O_R   0.333380 0.921370 0.667560 -0.507863
O20   O     O_R   0.166620 0.421370 0.332440 -0.519296
O21   O     O_R   0.833380 0.421370 0.667560 -0.515878
O22   O     O_R   0.557170 0.082420 0.312350 -0.494021
O23   O     O_R   0.283230 0.787800 0.346510 -0.522312
O24   O     O_R   0.442830 0.082420 0.687650 -0.502160
O25   O     O_R   0.057170 0.582420 0.312350 -0.494114
O26   O     O_R   0.942830 0.582420 0.687650 -0.504526
O27   O     O_R   0.548310 0.285980 0.316250 -0.507069
O28   O     O_R   0.451690 0.285980 0.683750 -0.505694
O29   O     O_R   0.048310 0.785980 0.316250 -0.509501
O30   O     O_R   0.951690 0.785980 0.683750 -0.505110
O31   O     O_R   0.680520 0.375500 0.327470 -0.490787
O32   O     O_R   0.319480 0.375500 0.672530 -0.505968
O33   O     O_R   0.180520 0.875500 0.327470 -0.499896
O34   O     O_R   0.716770 0.787800 0.653490 -0.526490
O35   O     O_R   0.819480 0.875500 0.672530 -0.507145
O36   O     O_R   0.780350 0.286970 0.193350 -0.486714
O37   O     O_R   0.219650 0.286970 0.806650 -0.510017
O38   O     O_R   0.280350 0.786970 0.193350 -0.496829
O39   O     O_R   0.719650 0.786970 0.806650 -0.496385
O40   O     O_R   0.757460 0.036290 0.196640 -0.508380
O41   O     O_R   0.242540 0.036290 0.803360 -0.474974
O42   O     O_R   0.257460 0.536290 0.196640 -0.486741
O43   O     O_R   0.742540 0.536290 0.803360 -0.486044
O44   O     O_R   0.663740 0.920540 0.179290 -0.502410
O45   O     O_R   0.554500 0.081650 0.170370 -0.488789
O46   O     O_R   0.336260 0.920540 0.820710 -0.501804
O47   O     O_R   0.163740 0.420540 0.179290 -0.513673
O48   O     O_R   0.836260 0.420540 0.820710 -0.504272
O49   O     O_R   0.445500 0.081650 0.829630 -0.507823
O50   O     O_R   0.054500 0.581650 0.170370 -0.495302
O51   O     O_R   0.945500 0.581650 0.829630 -0.493535
O52   O     O_R   0.545430 0.285140 0.163100 -0.513656

loop_
_geom_bond_atom_site_label_1
_geom_bond_atom_site_label_2
_ccdc_geom_bond_type
C34   O21   A    
C35   C47   S    
Cr6   O11   S    
C15   H10   S    
C10   C24   S    
C68   O12   A    
Cr7   O43   S    
C39   C79   S    
Cr4   O4    S    
C95   H30   S    
C45   H1    S    
C91   C92   S    
C30   C38   S    
Cr4   O13   S    
C69   O23   A    
C21   H17   S    
Br2   C32   S    
C37   C76   S    
Cr3   O3    S    
C53   C58   S    
C3    C69   S    
C3    C7    S    
C76   O49   A    
Cr1   O1    S    
C55   C60   S    
C9    C14   S    
C4    C78   S    
C28   C32   S    
C44   H22   S    
C27   H18   S    
C56   C94   S    
C3    C67   S    
C55   C64   T    
C39   C48   S    
C18   H14   S    
Cr12  O27   S    
C50   C59   T    
Cr2   O32   S    
C52   C61   T    
C26   C96   S    
Cr10  O47   S    
Cr3   O29   S    
C64   C82   S    
C80   O36   A    
Cr5   O41   S    
C33   C38   S    
C6    C94   S    
C5    C9    S    
C20   C25   S    
Cr6   O38   S    
C16   H11   S    
Cr8   O22   S    
Cr10  O11   S    
C9    H7    S    
C77   O50   A    
C81   O6    A    
C7    C11   S    
C34   O17   A    
Cr12  O52   S    
C70   O35   A    
Cr7   O17   S    
C20   H16   S    
C77   O3    A    
C8    C13   S    
Cr10  O50   S    
C48   H26   S    
Cr9   O49   S    
Cr11  O21   S    
C7    H3    S    
C66   O31   A    
Cr2   O10   S    
C93   H28   S    
C65   C83   S    
Cr3   O7    S    
C38   C47   S    
C50   C73   S    
C69   O33   A    
C80   O5    A    
C44   C46   S    
Cr5   O10   S    
Cr11  O48   S    
C52   C71   S    
C12   O15   A    
C13   C26   S    
C32   C37   S    
C11   C16   S    
C38   C77   S    
C71   O40   A    
C88   C90   S    
Cr7   O13   S    
C5    H32   S    
C11   C25   S    
C32   C44   S    
C12   O19   A    
Cr2   O28   S    
C19   C56   S    
C84   C90   T    
C63   C81   S    
C25   C95   S    
C30   C35   S    
C29   C39   S    
C16   C20   S    
C41   C84   S    
C74   O48   A    
Cr6   O42   S    
Cr9   O19   S    
C33   C48   S    
Cr10  O20   S    
C22   C34   S    
Cr4   O30   S    
C42   C87   S    
C22   C93   S    
C30   H21   S    
C23   O16   A    
C2    C68   S    
Cr8   O18   S    
C13   C17   S    
C75   O52   A    
C47   C48   S    
Cr7   O39   S    
Cr3   O33   S    
C6    C10   S    
C73   O47   A    
C15   C19   S    
C78   H27   S    
C2    C15   S    
Cr9   O24   S    
C2    C56   S    
C23   O20   A    
C49   C58   T    
C27   C28   S    
C70   O34   A    
Br4   C35   S    
Cr1   O9    S    
Cr9   O46   S    
C4    C8    S    
C51   C60   T    
C66   C89   S    
C31   C46   S    
C4    C70   S    
C4    C17   S    
C42   O29   A    
C66   O1    A    
C40   O22   A    
C19   C24   S    
C73   O42   A    
C85   C88   T    
Cr9   O10   S    
Br3   C33   S    
Cr1   O40   S    
C13   H6    S    
Cr2   O6    S    
C18   C45   S    
C51   C72   S    
C47   H25   S    
C29   H20   S    
Cr3   O11   S    
Cr1   O14   S    
C1    O14   A    
C10   H8    S    
Cr12  O9    S    
C94   H29   S    
C75   O45   A    
C21   C78   S    
C43   C86   S    
C27   C31   S    
C9    C22   S    
C56   H12   S    
C17   H13   S    
C41   O28   A    
C5    C89   S    
C37   C46   S    
C43   O26   A    
Br1   C31   S    
C36   C75   S    
C19   H15   S    
C1    C26   S    
C57   C65   T    
C21   C26   S    
C36   C44   S    
C17   C21   S    
C28   C36   S    
C83   O39   A    
C5    C93   S    
C27   C37   S    
C71   O44   A    
C14   C18   S    
C78   C96   S    
C10   C15   S    
Cr8   O44   S    
Cr12  O31   S    
C54   C59   S    
C96   H31   S    
C6    H2    S    
C2    C6    S    
C24   C94   S    
C86   C92   T    
C81   O37   A    
C42   O25   A    
Cr1   O36   S    
C83   O8    A    
Cr11  O26   S    
C45   C89   S    
C1    O18   A    
Cr4   O8    S    
C49   C74   S    
Cr11  O13   S    
C40   O27   A    
Cr7   O34   S    
C53   C62   T    
C46   H24   S    
C82   O7    A    
Cr6   O23   S    
C67   H23   S    
C12   C25   S    
Cr5   O15   S    
C67   C95   S    
Cr6   O16   S    
C7    C95   S    
C76   O2    A    
C29   C30   S    
C31   C36   S    
C68   O32   A    
C57   C61   S    
C79   O51   A    
Cr8   O45   S    
C41   O24   A    
C29   C33   S    
C8    C96   S    
C43   O30   A    
C72   O46   A    
C40   C85   S    
C14   H9    S    
C62   C80   S    
C79   O4    A    
Cr4   O35   S    
Cr10  O25   S    
C11   H5    S    
C54   C63   T    
Cr8   O9    S    
Cr5   O12   S    
C35   C39   S    
C87   C91   T    
C3    C16   S    
C18   C22   S    
C23   C24   S    
C82   O38   A    
C14   C89   S    
Cr12  O5    S    
C74   O43   A    
Cr5   O37   S    
C28   H19   S    
Cr2   O2    S    
C72   O41   A    
C20   C67   S    
Cr11  O51   S    
C8    H4    S    
C45   C93   S    
