data_mof_unit_4859.cif
_audit_creation_date              2012-12-11T20:07:17-0500
_audit_creation_method            fapswitch 2.2
_symmetry_space_group_name_H-M    P1
_symmetry_Int_Tables_number       1
_space_group_crystal_system       triclinic
_cell_length_a                    8.398829
_cell_length_b                    16.199544
_cell_length_c                    18.682741
_cell_angle_alpha                 111.589846
_cell_angle_beta                  90.763587
_cell_angle_gamma                 84.130117
_cell_volume                      2350.37980859

loop_
_atom_site_label
_atom_site_type_symbol
_atom_type_description
_atom_site_fract_x
_atom_site_fract_y
_atom_site_fract_z
_atom_type_partial_charge
Ba1   Ba    Ba6+2 0.333520 0.539550 0.472180 1.847381
Ba2   Ba    Ba6+2 0.856270 0.460520 0.527840 1.798105
C1    C     C_3   0.056850 0.865341 0.364450 0.939878
C2    C     C_R   0.442403 0.416366 0.083471 -0.008539
C3    C     C_R   0.312423 0.422593 0.939095 -0.020587
C4    C     C_3   0.548573 0.712709 0.302722 0.968867
C5    C     C_R   0.455911 0.458967 0.969307 0.038106
C6    C     C_R   0.256801 0.421552 0.868497 -0.031431
C7    C     C_R   0.340951 0.456502 0.823983 0.024313
C8    C     C_R   0.479829 0.498600 0.854576 0.033788
C9    C     C_R   0.537831 0.499681 0.927314 0.021870
C10   C     C_R   0.288904 0.452161 0.750402 0.033564
C11   C     C_R   0.378506 0.486370 0.707271 -0.254119
C12   C     C_3   0.040749 0.770099 0.360062 0.743154
C13   C     C_R   0.509080 0.533584 0.738269 0.048508
C14   C     C_R   0.557976 0.541971 0.813579 -0.039912
C15   C     C_R   0.658857 0.498204 0.070018 -0.025396
C16   C     C_3   0.614197 0.747476 0.244500 0.354147
C17   C     C_R   0.717333 0.499555 0.142987 -0.052475
C18   C     C_R   0.632246 0.461759 0.186774 0.031856
C19   C     C_R   0.499046 0.417916 0.153785 -0.004564
C20   C     C_R   0.679129 0.594565 0.850383 -0.025534
C21   C     C_R   0.736230 0.595252 0.920828 0.032317
C22   C     C_R   0.676110 0.542540 0.957825 0.038691
C23   C     C_3   0.106275 0.217748 0.253642 1.036421
C24   C     C_R   0.743558 0.536027 0.026451 -0.138769
C25   C     C_R   0.897019 0.561804 0.051337 0.532578
C26   C     C_R   0.861315 0.537748 0.171515 -0.236826
C27   C     C_R   0.953124 0.564049 0.122423 0.571590
C28   C     C_3   0.627465 0.737088 0.664515 0.324003
C29   C     C_R   0.906625 0.548335 0.247837 0.065809
C30   C     C_R   0.810406 0.518984 0.292857 -0.110309
C31   C     C_R   0.681625 0.469386 0.262095 0.098827
C32   C     C_2   0.375980 0.253024 0.516270 -0.210344
C33   C     C_R   0.804515 0.750014 0.516489 -0.225583
C34   C     C_3   0.987585 0.148372 0.241593 0.350637
C35   C     C_2   0.201347 0.134883 0.458160 -0.074240
C36   C     C_2   0.233090 0.218980 0.472010 0.036236
C37   C     C_2   0.495399 0.195236 0.524902 0.000526
C38   C     C_3   0.476461 0.096389 0.492367 0.082889
C39   C     C_3   0.301274 0.078533 0.493335 0.057539
C40   C     C_3   0.612364 0.838432 0.701878 -0.356589
C41   C     C_2   0.577680 0.042807 0.529103 -0.132645
C42   C     C_2   0.621514 0.957127 0.487180 -0.020659
C43   C     C_R   0.856443 0.929095 0.559487 0.013470
C44   C     C_R   0.721147 0.898135 0.517374 -0.037833
C45   C     C_3   0.672249 0.284916 0.700741 0.374185
C46   C     C_R   0.963676 0.871484 0.581109 -0.143585
C47   C     C_R   0.939452 0.781427 0.558557 0.052007
C48   C     C_R   0.691502 0.808589 0.498298 0.028599
C49   C     C_3   0.526871 0.240464 0.248103 0.624924
C50   C     C_3   0.578352 0.205039 0.162976 -0.261358
C51   C     C_3   0.141018 0.673911 0.716592 0.314756
C52   C     C_3   0.134260 0.708850 0.804420 1.045805
C53   C     C_3   0.699072 0.259951 0.771220 -0.352801
C54   C     C_3   0.152525 0.240237 0.668636 0.348571
C55   C     C_3   0.148962 0.158945 0.690726 -0.358740
C56   C     C_R   0.516606 0.458375 0.040900 0.086151
F1    F     F_    0.197531 0.643918 0.831037 -0.727798
F2    F     F_    0.977162 0.734926 0.830894 -0.678425
F3    F     F_    0.880579 0.759905 0.362673 -0.871303
F4    F     F_    0.207463 0.188326 0.189575 -0.702261
F5    F     F_    0.214399 0.882515 0.371660 -0.667179
F6    F     F_    0.442806 0.651835 0.266966 -0.660024
F7    F     F_    0.101293 0.590187 0.140434 -0.605563
F8    F     F_    0.002163 0.578250 0.004930 -0.662728
H1    H     H_    0.097815 0.763911 0.412062 -0.035668
H2    H     H_    0.076341 0.613353 0.694015 0.046269
H3    H     H_    0.992128 0.912865 0.417232 -0.124818
H4    H     H_    0.204221 0.767263 0.827650 -0.008086
H5    H     H_    0.007935 0.116093 0.284434 0.000798
H6    H     H_    0.866685 0.183746 0.251580 0.019293
H7    H     H_    0.701452 0.794109 0.273299 0.092208
H8    H     H_    0.709769 0.352669 0.713670 0.061453
H9    H     H_    0.541902 0.286199 0.689570 -0.115679
H10   H     H_    0.826688 0.261817 0.787220 0.149653
H11   H     H_    0.624598 0.307816 0.820527 0.051225
H12   H     H_    0.697045 0.859485 0.749871 0.161408
H13   H     H_    0.664681 0.191768 0.759014 0.109249
H14   H     H_    0.279121 0.254634 0.669128 -0.090513
H15   H     H_    0.104465 0.224449 0.610115 0.057478
H16   H     H_    0.228853 0.102120 0.651022 0.067191
H17   H     H_    0.025405 0.139298 0.687112 0.146242
H18   H     H_    0.190957 0.174297 0.750428 0.109860
H19   H     H_    0.339112 0.481547 0.650626 0.045082
H20   H     H_    0.145922 0.393084 0.849950 0.104781
H21   H     H_    0.433963 0.383658 0.181335 0.083647
H22   H     H_    0.730993 0.636705 0.825775 0.167371
H23   H     H_    0.639952 0.868020 0.659266 0.033768
H24   H     H_    0.841883 0.530910 0.351877 0.067316
H25   H     H_    0.237318 0.395027 0.968884 0.068476
H26   H     H_    0.339560 0.380341 0.064100 0.060464
H27   H     H_    0.823516 0.641110 0.946763 0.201526
H28   H     H_    0.651524 0.677187 0.320630 -0.197980
H29   H     H_    0.105895 0.106114 0.420360 0.123661
H30   H     H_    0.065694 0.897030 0.614960 0.090715
H31   H     H_    0.391846 0.323155 0.532501 0.047055
H32   H     H_    0.783710 0.680798 0.500907 0.041201
H33   H     H_    0.607659 0.071587 0.589438 0.078169
H34   H     H_    0.488212 0.863979 0.724683 0.122058
H35   H     H_    0.582223 0.929559 0.428283 0.165727
H36   H     H_    0.676580 0.691411 0.196398 -0.071238
H37   H     H_    0.752749 0.712509 0.644524 0.001771
H38   H     H_    0.545966 0.717925 0.615049 0.039314
H39   H     H_    0.746534 0.096372 0.317323 0.365080
H40   H     H_    0.911135 0.815601 0.167398 0.393577
H41   H     H_    0.949350 0.297256 0.137597 0.358414
H42   H     H_    0.078219 0.104002 0.056041 0.373362
H43   H     H_    0.260089 0.762750 0.135476 0.403320
H44   H     H_    0.405991 0.276086 0.255629 0.078352
H45   H     H_    0.609470 0.258823 0.144728 0.059891
H46   H     H_    0.480389 0.172183 0.126622 0.156671
H47   H     H_    0.684446 0.155319 0.151335 0.206354
H48   H     H_    0.267839 0.657294 0.696247 -0.121383
O1    O     O_2   0.402610 0.439360 0.314250 -0.474481
O2    O     O_2   0.822509 0.185518 0.490651 -0.475986
O3    O     O_3   0.763568 0.222433 0.637914 -0.602378
O4    O     O_3   0.648560 0.446300 0.404730 -0.431496
O5    O     O_3   0.025080 0.609480 0.556050 -0.492974
O6    O     O_2   0.948320 0.280590 0.426090 -0.457482
O7    O     O_3   0.204032 0.224051 0.317091 -0.640133
O8    O     O_2   0.957670 0.479106 0.753884 -0.446656
O9    O     O_3   0.055527 0.312218 0.720846 -0.608957
O10   O     O_3   0.108870 0.604000 0.387500 -0.492115
O11   O     O_2   0.240461 0.538251 0.249874 -0.335677
O12   O     O_3   0.068342 0.741688 0.693867 -0.660481
O13   O     O_3   0.634553 0.297155 0.294061 -0.609009
O14   O     O_3   0.115049 0.704998 0.292827 -0.460667
O15   O     O_2   0.241370 0.719440 0.573960 -0.473073
O16   O     O_3   0.507090 0.652150 0.432150 -0.493093
O17   O     O_2   0.356235 0.813382 0.503542 -0.488201
O18   O     O_2   0.490876 0.182675 0.363116 -0.380666
O19   O     O_2   0.406094 0.085254 0.237427 -0.129144
O20   O     O_3   0.702894 0.082826 0.265168 -0.435625
O21   O     O_2   0.809313 0.936425 0.307475 -0.315238
O22   O     O_2   0.077108 0.949306 0.265580 -0.184210
O23   O     O_3   0.470843 0.783478 0.365158 -0.555823
O24   O     O_3   0.965309 0.795495 0.206447 -0.482556
O25   O     O_2   0.937828 0.374380 0.331608 -0.351853
O26   O     O_2   0.144475 0.373980 0.241186 -0.345846
O27   O     O_3   0.885644 0.305299 0.184352 -0.607505
O28   O     O_2   0.163458 0.009220 0.133512 -0.158624
O29   O     O_2   0.877185 0.998200 0.137789 -0.159004
O30   O     O_3   0.971201 0.107653 0.079296 -0.514001
O31   O     O_2   0.414492 0.895046 0.263323 -0.127040
O32   O     O_2   0.540465 0.814492 0.135948 -0.251031
O33   O     O_3   0.308951 0.744866 0.176821 -0.360101
O34   O     O_2   0.787080 0.560670 0.685800 -0.462642
O35   O     O_3   0.541120 0.553770 0.595290 -0.511210
O36   O     O_3   0.080800 0.396070 0.612520 -0.510388
O37   O     O_3   0.586077 0.702935 0.719521 -0.617126
O38   O     O_3   0.164600 0.390590 0.443970 -0.420548
O39   O     O_3   0.682580 0.347920 0.567870 -0.482038
P1    P     P_3+3 0.582960 0.413890 0.320860 1.094586
P2    P     P_3+3 0.071690 0.707860 0.593450 0.981590
P3    P     P_3+3 0.505718 0.765720 0.451553 1.010500
P4    P     P_3+3 0.606720 0.586180 0.679160 0.988663
P5    P     P_3+3 0.692638 0.235576 0.553935 1.001445
P6    P     P_3+3 0.090794 0.598368 0.293222 1.254968
P7    P     P_3+3 0.134171 0.277565 0.413708 1.079132
P8    P     P_3+3 0.097347 0.410391 0.709615 0.963904
S1    S     S_3+6 0.528286 0.146316 0.278651 0.014081
S2    S     S_3+6 0.974543 0.889127 0.284557 0.030781
S3    S     S_3+6 0.018053 0.322425 0.255148 -0.123908
S4    S     S_3+6 0.001014 0.061596 0.146439 0.069056
S5    S     S_3+6 0.466719 0.804160 0.204660 0.094248

loop_
_geom_bond_atom_site_label_1
_geom_bond_atom_site_label_2
_ccdc_geom_bond_type
Ba2   O36   S    
O38   P7    S    
C25   C27   A    
C17   C18   A    
O19   S1    D    
C19   H21   S    
Ba2   O4    S    
C54   H15   S    
C52   F2    S    
C50   H47   S    
C5    C9    A    
C24   C25   A    
O8    P8    D    
O17   P3    D    
Ba1   O38   S    
C15   C24   A    
O37   P4    S    
C45   C53   S    
C26   C27   A    
C1    H3    S    
C41   H33   S    
C13   P4    S    
Ba1   O15   S    
C16   H36   S    
C53   H11   S    
H40   O24   S    
C50   H46   S    
C23   S3    S    
Ba2   O34   S    
C13   C14   A    
C55   H16   S    
O10   P6    S    
C9    C22   A    
C32   H31   S    
C12   O14   S    
C54   C55   S    
C35   H29   S    
C49   S1    S    
Ba1   Ba2   S    
Ba1   O5    S    
C4    F6    S    
O39   P5    S    
Ba1   P2    S    
C51   H2    S    
O29   S4    D    
C10   P8    S    
C32   C37   D    
C38   C41   S    
C30   H24   S    
C48   P3    S    
C6    C7    A    
C4    H28   S    
O7    P7    S    
C28   H37   S    
C33   C47   A    
O5    P2    S    
C21   C22   A    
C55   H17   S    
Ba1   O35   S    
O24   S2    S    
C42   H35   S    
C20   H22   S    
H41   O27   S    
C33   H32   S    
C7    C8    A    
C5    C56   A    
C34   H5    S    
C1    S2    S    
C15   C56   A    
C52   F1    S    
O12   P2    S    
Ba2   O35   S    
O32   S5    D    
H43   O33   S    
O34   P4    D    
O13   P1    S    
O9    P8    S    
C42   C44   S    
O31   S5    D    
Ba2   O38   S    
C4    C16   S    
C49   C50   S    
C54   O9    S    
Ba1   O16   S    
C8    C9    A    
C37   C38   S    
C3    C5    A    
Ba2   O6    S    
C31   P1    S    
C16   S5    S    
C11   H19   S    
C43   C44   A    
C12   F3    S    
O20   S1    S    
O23   P3    S    
C41   C42   D    
O2    P5    D    
C35   C36   D    
O33   S5    S    
C40   H34   S    
C53   H13   S    
C29   C30   A    
C52   H4    S    
C12   H1    S    
C33   C48   A    
C55   H18   S    
C18   C19   A    
C17   C26   A    
C3    H25   S    
C1    C12   S    
C27   F7    S    
C53   H10   S    
C38   C39   S    
C40   H12   S    
Ba2   O39   S    
C11   C13   A    
C37   P5    S    
O26   S3    D    
C18   C31   A    
C2    C56   A    
H42   O30   S    
C51   H48   S    
O15   P2    D    
C43   C46   A    
O36   P8    S    
O25   S3    D    
C14   C20   A    
C46   H30   S    
O3    P5    S    
C32   C36   S    
O21   S2    D    
C47   P2    S    
C26   C29   A    
C45   H8    S    
C22   C24   A    
C54   H14   S    
C3    C6    A    
Ba2   O5    S    
O11   P6    D    
C51   C52   S    
C1    F5    S    
C23   F4    S    
C49   H44   S    
C44   C48   A    
C50   H45   S    
O30   S4    S    
C40   H23   S    
C49   O13   S    
C16   H7    S    
C4    O23   S    
Ba1   O10   S    
C45   H9    S    
O1    P1    D    
C25   F8    S    
C8    C14   A    
C30   C31   A    
O28   S4    D    
C2    C19   A    
C28   O37   S    
O35   P4    S    
Ba2   P4    S    
C46   C47   A    
C34   S4    S    
C15   C17   A    
O4    P1    S    
C6    H20   S    
Ba1   O4    S    
C35   C39   S    
Ba1   P1    S    
C7    C10   A    
O18   S1    D    
C51   O12   S    
C23   C34   S    
C36   P7    S    
C21   H27   S    
C45   O3    S    
C10   C11   A    
O27   S3    S    
C28   H38   S    
O6    P7    D    
C20   C21   A    
C28   C40   S    
O16   P3    S    
Ba1   O1    S    
C23   O7    S    
C29   P6    S    
C34   H6    S    
O14   P6    S    
H39   O20   S    
C2    H26   S    
O22   S2    D    
