data_mof_unit_2234.cif
_audit_creation_date              2012-12-10T17:44:29-0500
_audit_creation_method            fapswitch 2.2
_symmetry_space_group_name_H-M    P1
_symmetry_Int_Tables_number       1
_space_group_crystal_system       triclinic
_cell_length_a                    9.933104
_cell_length_b                    10.734644
_cell_length_c                    15.473593
_cell_angle_alpha                 92.781194
_cell_angle_beta                  68.574789
_cell_angle_gamma                 89.130511
_cell_volume                      1533.13604854

loop_
_atom_site_label
_atom_site_type_symbol
_atom_type_description
_atom_site_fract_x
_atom_site_fract_y
_atom_site_fract_z
_atom_type_partial_charge
C1    C     C_R   0.501175 0.739951 0.494414 0.947983
C2    C     C_R   0.745103 0.500014 0.028846 0.079812
C3    C     C_R   0.610496 0.445178 0.077188 -0.080087
C4    C     C_R   0.410139 0.496489 0.675319 0.898019
C5    C     C_R   0.833917 0.537441 0.077895 -0.193787
C6    C     C_R   0.786143 0.530766 0.173649 -0.287120
C7    C     C_R   0.560963 0.445671 0.174740 0.547835
C8    C     C_R   0.243500 0.894240 0.491765 -0.173874
C9    C     C_R   0.111014 0.960735 0.523831 -0.137850
C10   C     C_R   0.097112 0.076739 0.571317 0.227692
C11   C     C_R   0.220135 0.129346 0.579371 -0.132381
C12   C     C_R   0.444467 0.431609 0.898215 0.100796
C13   C     C_R   0.357912 0.068148 0.537409 0.057060
C14   C     C_R   0.366196 0.942912 0.506380 0.019119
C15   C     C_R   0.498063 0.874058 0.490145 -0.268851
C16   C     C_R   0.495495 0.261586 0.508914 0.901255
C17   C     C_R   0.624557 0.936070 0.483719 0.639393
C18   C     C_R   0.620203 0.063110 0.496115 -0.293882
C19   C     C_R   0.488998 0.129721 0.520487 -0.203398
C20   C     C_R   0.792814 0.670400 0.629292 0.644836
C21   C     C_R   0.833280 0.746663 0.691538 0.127008
C22   C     C_R   0.974819 0.743242 0.686248 -0.327194
C23   C     C_R   0.327768 0.352143 0.937224 0.177396
C24   C     C_R   0.074742 0.661579 0.622791 -0.229513
C25   C     C_R   0.038333 0.580838 0.561200 0.071734
C26   C     C_R   0.893033 0.582688 0.562326 0.016957
C27   C     C_R   0.962876 0.421857 0.441799 -0.122191
C28   C     C_R   0.590329 0.497347 0.324206 0.910255
C29   C     C_R   0.105654 0.421862 0.441897 -0.036816
C30   C     C_R   0.361060 0.465236 0.772130 -0.057087
C31   C     C_R   0.647547 0.490075 0.222636 -0.167751
C32   C     C_R   0.230020 0.328791 0.892294 -0.199445
C33   C     C_R   0.249865 0.381857 0.808072 -0.238181
C34   C     C_R   0.550647 0.446172 0.938410 0.007219
C35   C     C_R   0.451166 0.495081 0.820282 -0.245382
C36   C     C_3   0.953635 0.146798 0.607775 -0.907665
C37   C     C_3   0.726076 0.832036 0.766081 -0.831955
C38   C     C_3   0.928700 0.572201 0.877458 -0.940452
C39   C     C_R   0.522665 0.403610 0.027792 0.083967
C40   C     C_R   0.408935 0.320324 0.063862 -0.114658
C41   C     C_R   0.313600 0.294353 0.018653 -0.271845
C42   C     C_R   0.685935 0.497227 0.890409 -0.231451
C43   C     C_R   0.785321 0.519601 0.933427 0.204452
F1    F     F_    0.754716 0.875051 0.461703 -0.663893
F2    F     F_    0.655686 0.689259 0.637781 -0.662747
F3    F     F_    0.422914 0.415522 0.224530 -0.694591
H1    H     H_    0.227983 0.229856 0.047947 0.153775
H2    H     H_    0.187147 0.357620 0.394419 0.185551
H3    H     H_    0.854717 0.564110 0.209905 0.198680
H4    H     H_    0.142374 0.265724 0.920175 0.146089
H5    H     H_    0.181439 0.355183 0.769988 0.157268
H6    H     H_    0.530355 0.565096 0.793254 0.177593
H7    H     H_    0.396168 0.269300 0.124634 0.205345
H8    H     H_    0.718713 0.515946 0.817751 0.152494
H9    H     H_    0.872000 0.090973 0.658471 0.246559
H10   H     H_    0.960012 0.238113 0.642824 0.232637
H11   H     H_    0.917671 0.164468 0.549331 0.245920
H12   H     H_    0.938205 0.577161 0.043911 0.175050
H13   H     H_    0.615123 0.829424 0.765014 0.275928
H14   H     H_    0.720693 0.804145 0.835434 0.231625
H15   H     H_    0.761552 0.929596 0.757439 0.231400
H16   H     H_    0.928366 0.673302 0.896418 0.246333
H17   H     H_    0.016990 0.523348 0.890943 0.253390
H18   H     H_    0.952483 0.558448 0.801840 0.255579
H19   H     H_    0.248402 0.808363 0.451422 0.193319
H20   H     H_    0.018861 0.920988 0.512391 0.196629
H21   H     H_    0.207938 0.218891 0.617189 0.148408
H22   H     H_    0.721209 0.109327 0.483852 0.187995
H23   H     H_    0.937411 0.357822 0.394242 0.142743
H24   H     H_    0.007862 0.802777 0.733034 0.196317
H25   H     H_    0.180192 0.663835 0.624765 0.245300
N1    N     N_R   0.856800 0.501200 0.500850 -0.095399
N2    N     N_R   0.142390 0.501280 0.500880 -0.110382
O1    O     O_R   0.385310 0.683220 0.500000 -0.676199
O2    O     O_R   0.614640 0.683250 0.500010 -0.468515
O3    O     O_R   0.319840 0.499980 0.632240 -0.662364
O4    O     O_R   0.549160 0.500000 0.632250 -0.555552
O5    O     O_R   0.385360 0.316750 0.499990 -0.623773
O6    O     O_R   0.614690 0.316780 0.500000 -0.631480
O7    O     O_R   0.450840 0.500000 0.367750 -0.542631
O8    O     O_R   0.680160 0.500020 0.367760 -0.629972
Zn1   Zn    Zn3+2 0.346880 0.499980 0.499990 0.951763
Zn2   Zn    Zn3+2 0.653120 0.500020 0.500010 1.013834

loop_
_geom_bond_atom_site_label_1
_geom_bond_atom_site_label_2
_ccdc_geom_bond_type
C27   C29   A    
C26   N1    A    
C34   C42   A    
C12   C23   A    
C5    H12   S    
C1    O1    A    
C3    C7    A    
C5    C6    A    
C29   N2    A    
O4    Zn2   S    
C18   H22   S    
C18   C19   A    
C9    H20   S    
C8    C9    A    
C1    C15   S    
C9    C10   A    
C16   O5    A    
C20   F2    S    
C27   H23   S    
C6    C31   A    
C3    C39   A    
C8    H19   S    
C13   C14   A    
O1    Zn1   S    
O8    Zn2   S    
C11   H21   S    
C38   H18   S    
C7    C31   A    
C13   C19   A    
C29   H2    S    
C34   C39   A    
C1    O2    A    
C7    F3    S    
C24   C25   A    
O7    Zn1   S    
C36   H11   S    
O3    Zn1   S    
C39   C40   A    
C25   C26   A    
C36   H10   S    
O5    Zn1   S    
C2    C43   A    
C17   C18   A    
C41   H1    S    
C37   H14   S    
C12   C35   A    
C32   H4    S    
C37   H13   S    
C30   C35   A    
C40   C41   A    
C22   C24   A    
C2    C5    A    
C42   C43   A    
C12   C34   A    
N2    Zn1   S    
C38   H17   S    
C15   C17   A    
C8    C14   A    
C30   C33   A    
C28   O8    A    
C28   C31   S    
C37   H15   S    
C33   H5    S    
C23   C41   A    
C16   O6    A    
C32   C33   A    
C2    C3    A    
C17   F1    S    
C38   C43   S    
C36   H9    S    
C23   C32   A    
O6    Zn2   S    
C11   C13   A    
O2    Zn2   S    
C20   C26   A    
C16   C19   S    
C25   N2    A    
C6    H3    S    
C28   O7    A    
C4    C30   S    
C4    O3    A    
N1    Zn2   S    
C10   C11   A    
C4    O4    A    
C21   C37   S    
C20   C21   A    
C40   H7    S    
C35   H6    S    
C14   C15   A    
C10   C36   S    
C21   C22   A    
C22   H24   S    
C42   H8    S    
C27   N1    A    
C24   H25   S    
C38   H16   S    
