data_mof_unit_3212.cif
_audit_creation_date              2012-12-10T17:15:11-0500
_audit_creation_method            fapswitch 2.2
_symmetry_space_group_name_H-M    P1
_symmetry_Int_Tables_number       1
_space_group_crystal_system       triclinic
_cell_length_a                    15.854111
_cell_length_b                    12.992231
_cell_length_c                    11.771468
_cell_angle_alpha                 100.434833
_cell_angle_beta                  94.111253
_cell_angle_gamma                 93.218964
_cell_volume                      2372.53843478

loop_
_atom_site_label
_atom_site_type_symbol
_atom_type_description
_atom_site_fract_x
_atom_site_fract_y
_atom_site_fract_z
_atom_type_partial_charge
C1    C     C_R   0.506257 0.299986 0.477990 0.869265
C2    C     C_R   0.500553 0.701161 0.522161 0.888318
C3    C     C_R   0.492145 0.013366 0.346227 0.379073
C4    C     C_R   0.537238 0.987844 0.655243 0.367244
C5    C     C_R   0.507909 0.121469 0.354611 0.274509
C6    C     C_R   0.540579 0.879235 0.639808 0.327180
C7    C     C_R   0.539930 0.143320 0.562015 0.404361
C8    C     C_R   0.471524 0.863245 0.445568 0.398426
C9    C     C_R   0.523502 0.034865 0.556839 -0.185896
C10   C     C_R   0.493754 0.970146 0.448458 -0.193937
C11   C     C_R   0.401632 0.422958 0.025960 0.298849
C12   C     C_R   0.572694 0.611536 0.978775 0.283728
C13   C     C_R   0.416681 0.422241 0.145954 0.500896
C14   C     C_R   0.575244 0.588428 0.857735 0.539357
C15   C     C_R   0.536136 0.544099 0.157651 0.551732
C16   C     C_R   0.459554 0.461349 0.842655 0.556885
C17   C     C_R   0.524575 0.543886 0.035562 -0.253431
C18   C     C_R   0.461880 0.473618 0.966879 -0.244915
C19   C     C_R   0.339933 0.498735 0.499549 0.832151
C20   C     C_R   0.660058 0.499774 0.500183 0.785239
C21   C     C_3   0.968920 0.406016 0.527469 0.415449
C22   C     C_3   0.030669 0.582900 0.471856 0.421601
C23   C     C_3   0.018270 0.413483 0.421244 0.445877
C24   C     C_3   0.982080 0.575274 0.578332 0.369420
C25   C     C_1   0.250260 0.496033 0.498392 -0.094932
C26   C     C_1   0.749644 0.498803 0.500599 -0.161772
C27   C     C_3   0.034776 0.484643 0.606881 -0.459621
C28   C     C_3   0.965765 0.503650 0.391805 -0.455038
C29   C     C_3   0.083219 0.492953 0.498749 -0.026936
C30   C     C_3   0.916546 0.496161 0.500113 -0.073369
C31   C     C_1   0.174695 0.493918 0.497728 0.098645
C32   C     C_1   0.825107 0.497826 0.500999 0.029879
C33   C     C_R   0.503267 0.815979 0.536600 -0.306422
C34   C     C_R   0.517301 0.186916 0.464439 -0.296705
Cu1   Cu    Cu3+1 0.506200 0.507730 0.615930 1.074752
Cu2   Cu    Cu3+1 0.493800 0.492270 0.384070 1.058730
H1    H     H_    0.936579 0.511241 0.305447 0.168767
H2    H     H_    0.064074 0.476255 0.692903 0.181144
N1    N     N_R   0.515540 0.519350 0.790140 -0.280332
N2    N     N_R   0.484460 0.480650 0.209860 -0.280454
O1    O     O_R   0.504400 0.354460 0.582000 -0.494515
O2    O     O_R   0.495600 0.645540 0.418000 -0.504054
O3    O     O_R   0.493920 0.341410 0.386200 -0.581199
O4    O     O_R   0.506080 0.658590 0.613800 -0.522215
O5    O     O_R   0.384320 0.506520 0.597880 -0.551732
O6    O     O_R   0.615680 0.493480 0.402120 -0.551222
O7    O     O_R   0.373840 0.493460 0.402080 -0.514985
O8    O     O_R   0.626160 0.506540 0.597920 -0.581288
O9    O     O_3   0.045066 0.328461 0.342815 -0.594844
C35   C     C_3   0.974483 0.273941 0.273636 0.087862
H3    H     H_    0.943121 0.325716 0.220314 0.139520
H4    H     H_    0.927941 0.244055 0.328415 0.186331
C36   C     C_3   0.004787 0.180588 0.191957 -0.337324
H5    H     H_    0.048682 0.209720 0.133433 0.227143
H6    H     H_    0.039764 0.130475 0.243559 0.234981
C37   C     C_3   0.930762 0.114395 0.118972 -0.928590
H7    H     H_    0.888749 0.079370 0.175540 0.266256
H8    H     H_    0.955340 0.049868 0.057716 0.259176
H9    H     H_    0.893501 0.163156 0.068354 0.267143
O10   O     O_3   0.958715 0.662073 0.657405 -0.630988
C38   C     C_3   0.030258 0.707487 0.731615 0.067679
H10   H     H_    0.084051 0.726219 0.681101 0.184662
H11   H     H_    0.050254 0.653094 0.789807 0.157114
C39   C     C_3   0.007312 0.809156 0.806800 -0.373650
H12   H     H_    0.987291 0.864727 0.750189 0.230454
H13   H     H_    0.953698 0.792076 0.857987 0.224590
C40   C     C_3   0.082311 0.860609 0.890211 -0.861540
H14   H     H_    0.102310 0.807247 0.949394 0.266988
H15   H     H_    0.063618 0.934199 0.943152 0.249687
H16   H     H_    0.136550 0.880055 0.841290 0.272610
O11   O     O_3   0.934152 0.309585 0.548883 -0.612167
C41   C     C_3   0.907195 0.321033 0.662226 0.063211
H17   H     H_    0.842239 0.282466 0.655811 0.188126
H18   H     H_    0.902735 0.404067 0.705991 0.139709
C42   C     C_3   0.966246 0.265354 0.736077 -0.311976
H19   H     H_    0.964645 0.180874 0.695956 0.229331
H20   H     H_    0.032311 0.299626 0.738779 0.240285
C43   C     C_3   0.940334 0.275171 0.859743 -0.912338
H21   H     H_    0.946440 0.358618 0.903872 0.259216
H22   H     H_    0.982578 0.230457 0.909060 0.268361
H23   H     H_    0.873889 0.242995 0.859502 0.264818
O12   O     O_3   0.068773 0.676027 0.446453 -0.597700
C44   C     C_3   0.006521 0.739381 0.409237 0.100659
H24   H     H_    0.020911 0.820528 0.458716 0.165702
H25   H     H_    0.940437 0.715578 0.425871 0.144660
C45   C     C_3   0.011274 0.740574 0.280027 -0.339774
H26   H     H_    0.075753 0.771055 0.265421 0.250272
H27   H     H_    0.999833 0.659405 0.229583 0.221454
C46   C     C_3   0.945949 0.809210 0.235980 -0.900852
H28   H     H_    0.880783 0.778363 0.246699 0.279644
H29   H     H_    0.951761 0.809062 0.142474 0.259831
H30   H     H_    0.956710 0.891284 0.284148 0.260998
Cl1   Cl    Cl    0.391852 0.793431 0.341970 -0.483269
Cl2   Cl    Cl    0.609592 0.220669 0.674373 -0.580882
O13   O     O_3   0.578497 0.834279 0.726854 -0.511554
C47   C     C_3   0.667606 0.857232 0.735043 0.173252
H31   H     H_    0.694619 0.832752 0.814785 0.210642
H32   H     H_    0.685193 0.942863 0.746386 0.146294
C48   C     C_3   0.708216 0.797882 0.629883 -0.431392
H33   H     H_    0.686029 0.713759 0.614396 0.250859
H34   H     H_    0.689167 0.829769 0.551152 0.216875
C49   C     C_3   0.804468 0.808033 0.648862 -0.862103
H35   H     H_    0.828304 0.891822 0.663803 0.246650
H36   H     H_    0.831621 0.765468 0.570967 0.283059
H37   H     H_    0.825167 0.773321 0.724763 0.272868
O14   O     O_3   0.515053 0.162791 0.254856 -0.600289
C50   C     C_3   0.598607 0.155107 0.219741 0.132702
H38   H     H_    0.593685 0.134976 0.123538 0.218046
H39   H     H_    0.633195 0.091781 0.251416 0.151262
C51   C     C_3   0.650273 0.260425 0.257798 -0.336012
H40   H     H_    0.616551 0.322563 0.223588 0.248091
H41   H     H_    0.657334 0.280603 0.353916 0.212128
C52   C     C_3   0.738434 0.256645 0.213919 -0.920599
H42   H     H_    0.773634 0.196068 0.248721 0.256625
H43   H     H_    0.774129 0.334028 0.243645 0.262542
H44   H     H_    0.733841 0.238324 0.117682 0.271204
Cl3   Cl    Cl    0.482046 0.935682 0.205178 -0.427207
Cl4   Cl    Cl    0.541828 0.056741 0.800189 -0.482135
Cl5   Cl    Cl    0.393745 0.359743 0.753955 -0.464745
Cl6   Cl    Cl    0.621292 0.620852 0.242486 -0.535576
O15   O     O_3   0.637715 0.638752 0.807495 -0.556884
C53   C     C_3   0.713792 0.585960 0.814127 0.042142
H45   H     H_    0.748083 0.595931 0.737555 0.189313
H46   H     H_    0.702201 0.499508 0.808952 0.150969
C54   C     C_3   0.773210 0.633293 0.921818 -0.353167
H47   H     H_    0.782235 0.719689 0.928586 0.243130
H48   H     H_    0.745847 0.615848 0.000871 0.259738
C55   C     C_3   0.859364 0.586663 0.916309 -0.946970
H49   H     H_    0.851713 0.500950 0.914683 0.259695
H50   H     H_    0.901734 0.623798 0.993836 0.268380
H51   H     H_    0.889263 0.600494 0.837582 0.283999
O16   O     O_3   0.353745 0.379771 0.203083 -0.557304
C56   C     C_3   0.346667 0.268861 0.174578 0.124107
H52   H     H_    0.381314 0.238385 0.244546 0.209250
H53   H     H_    0.372244 0.236076 0.090637 0.172045
C57   C     C_3   0.253685 0.229064 0.171649 -0.352389
H54   H     H_    0.229047 0.258139 0.256856 0.242286
H55   H     H_    0.215156 0.259449 0.104123 0.268080
C58   C     C_3   0.243745 0.109306 0.145893 -0.828648
H56   H     H_    0.266719 0.078538 0.060153 0.286055
H57   H     H_    0.175883 0.082469 0.144131 0.242108
H58   H     H_    0.280191 0.077012 0.213970 0.279492
Cl7   Cl    Cl    0.296952 0.384871 0.963608 -0.540372
Cl8   Cl    Cl    0.613209 0.739262 0.047303 -0.465630

loop_
_geom_bond_atom_site_label_1
_geom_bond_atom_site_label_2
_ccdc_geom_bond_type
C25   C31   T    
C11   C18   A    
C26   C32   T    
C22   C29   S    
C27   C29   S    
O13   C47   S    
C11   C13   A    
Cu2   O2    S    
Cu1   Cu2   S    
C24   C27   S    
C55   H49   S    
O9    C35   S    
C36   H5    S    
C37   H7    S    
C21   O11   S    
C23   C29   S    
C57   C58   S    
C58   H58   S    
C19   O7    A    
C23   O9    S    
O14   C50   S    
C27   H2    S    
C47   C48   S    
C15   Cl6   S    
C49   H37   S    
C15   C17   A    
C38   H11   S    
C37   H9    S    
C51   H40   S    
C13   N2    A    
C3    Cl3   S    
C14   N1    A    
C1    O3    A    
C44   H24   S    
C2    O4    A    
O16   C56   S    
C47   H32   S    
C12   C17   A    
C56   C57   S    
C35   H4    S    
C50   H38   S    
Cu2   O6    S    
C46   H29   S    
C9    C10   A    
C52   H44   S    
C21   C27   S    
C14   O15   S    
C22   C28   S    
C47   H31   S    
C50   H39   S    
C4    Cl4   S    
C49   H35   S    
C41   C42   S    
Cu1   O1    S    
Cu1   O8    S    
C1    C34   S    
C17   C18   A    
C24   C30   S    
C5    O14   S    
C36   H6    S    
C35   C36   S    
C40   H14   S    
C39   C40   S    
Cu2   N2    S    
C4    C6    A    
C16   Cl5   S    
C45   H26   S    
C41   H17   S    
C12   Cl8   S    
O10   C38   S    
C40   H15   S    
C39   H13   S    
C38   C39   S    
Cu1   N1    S    
C42   H19   S    
C54   C55   S    
C48   H33   S    
C24   O10   S    
C5    C34   A    
C48   C49   S    
C35   H3    S    
C43   H22   S    
C16   C18   A    
C23   C28   S    
C46   H30   S    
C49   H36   S    
Cu1   O4    S    
C42   H20   S    
C51   C52   S    
O15   C53   S    
C20   O8    A    
C2    C33   S    
C41   H18   S    
C48   H34   S    
C12   C14   A    
C6    O13   S    
C21   C23   S    
C54   H47   S    
C50   C51   S    
C22   C24   S    
Cu2   O7    S    
C53   H46   S    
Cu1   O5    S    
C55   H51   S    
C22   O12   S    
C57   H55   S    
C54   H48   S    
C52   H42   S    
C36   C37   S    
C1    O1    A    
C7    C9    A    
C7    Cl2   S    
C44   H25   S    
C43   H21   S    
C8    Cl1   S    
C57   H54   S    
C3    C5    A    
C45   C46   S    
C55   H50   S    
C58   H56   S    
C19   O5    A    
C53   H45   S    
C21   C30   S    
C6    C33   A    
C40   H16   S    
C39   H12   S    
C53   C54   S    
C28   C30   S    
C4    C9    A    
O11   C41   S    
C29   C31   S    
C3    C10   A    
C30   C32   S    
C58   H57   S    
C43   H23   S    
C56   H52   S    
C20   C26   S    
C28   H1    S    
C2    O2    A    
C7    C34   A    
C13   O16   S    
C37   H8    S    
C45   H27   S    
C8    C33   A    
C38   H10   S    
C19   C25   S    
C42   C43   S    
C51   H41   S    
C15   N2    A    
C16   N1    A    
C44   C45   S    
C8    C10   A    
O12   C44   S    
C56   H53   S    
Cu2   O3    S    
C46   H28   S    
C11   Cl7   S    
C20   O6    A    
C52   H43   S    
