data_mof_unit_1948.cif
_audit_creation_date              2012-12-11T17:22:37-0500
_audit_creation_method            fapswitch 2.2
_symmetry_space_group_name_H-M    P1
_symmetry_Int_Tables_number       1
_space_group_crystal_system       triclinic
_cell_length_a                    8.503892
_cell_length_b                    16.747253
_cell_length_c                    27.126338
_cell_angle_alpha                 98.686568
_cell_angle_beta                  91.505499
_cell_angle_gamma                 85.651411
_cell_volume                      3807.50853312

loop_
_atom_site_label
_atom_site_type_symbol
_atom_type_description
_atom_site_fract_x
_atom_site_fract_y
_atom_site_fract_z
_atom_type_partial_charge
Ba1   Ba    Ba6+2 0.851940 0.461560 0.523510 1.872585
Ba2   Ba    Ba6+2 0.337880 0.538370 0.476480 1.850146
C1    C     C_3   0.681275 0.170939 0.651658 0.208463
C2    C     C_R   0.934670 0.584732 0.183718 0.572264
C3    C     C_2   0.769355 0.531103 0.269904 -0.101934
C4    C     C_3   0.099336 0.288386 0.664841 0.692752
C5    C     C_3   0.715678 0.522023 0.321521 -0.105970
C6    C     C_1   0.989142 0.489387 0.344512 -0.092522
C7    C     C_2   0.037883 0.492430 0.298202 -0.152797
C8    C     C_2   0.923866 0.514809 0.257782 0.248218
C9    C     C_R   0.052321 0.518066 0.105462 -0.080141
C10   C     C_R   0.102926 0.451766 0.129826 -0.037662
C11   C     C_R   0.191684 0.386332 0.102933 -0.048666
C12   C     C_3   0.696529 0.253985 0.634131 0.344419
C13   C     C_R   0.966668 0.584724 0.132663 -0.025047
C14   C     C_2   0.851102 0.525383 0.358772 -0.267293
C15   C     C_2   0.345064 0.481007 0.640596 -0.216578
C16   C     C_3   0.016226 0.277153 0.713280 -0.219624
C17   C     C_R   0.226421 0.454919 0.977450 0.020998
C18   C     C_R   0.055490 0.580215 0.976843 0.017261
C19   C     C_R   0.158408 0.517346 0.951625 0.057779
C20   C     C_R   0.337328 0.397250 0.951839 -0.095570
C21   C     C_R   0.376101 0.399431 0.902500 -0.043128
C22   C     C_R   0.304698 0.458460 0.875868 -0.047660
C23   C     C_3   0.485316 0.662719 0.627714 0.310466
C24   C     C_R   0.194615 0.517084 0.900138 -0.075765
C25   C     C_R   0.122353 0.575865 0.873112 -0.033084
C26   C     C_R   0.158449 0.574007 0.821876 0.621101
C27   C     C_R   0.343173 0.459781 0.825541 0.608426
C28   C     C_3   0.159950 0.310669 0.319807 0.277246
C29   C     C_2   0.454108 0.501151 0.728424 0.060459
C30   C     C_3   0.491337 0.491848 0.673398 -0.018596
C31   C     C_1   0.209145 0.517435 0.656863 -0.010748
C32   C     C_2   0.173423 0.520544 0.705056 -0.107557
C33   C     C_2   0.302567 0.513249 0.744554 0.219839
C34   C     C_3   0.438595 0.695677 0.681401 0.369800
C35   C     C_R   0.183420 0.452625 0.027904 0.018637
C36   C     C_R   0.087872 0.517880 0.053958 0.052271
C37   C     C_R   0.027676 0.582994 0.029058 0.019725
C38   C     C_R   0.231860 0.386840 0.053396 -0.095463
C39   C     C_R   0.914808 0.650357 0.108315 -0.057569
C40   C     C_3   0.218435 0.221780 0.308391 -0.202532
C41   C     C_R   0.983449 0.637987 0.948576 -0.093376
C42   C     C_R   0.015442 0.635460 0.897998 -0.028562
C43   C     C_R   0.943022 0.649282 0.057718 -0.096263
C44   C     C_R   0.369978 0.251030 0.504922 0.124229
C45   C     C_3   0.098826 0.718512 0.346889 0.357673
C46   C     C_R   0.530527 0.239554 0.494459 -0.039368
C47   C     C_R   0.609930 0.166496 0.503610 -0.191771
C48   C     C_R   0.532827 0.113308 0.529135 0.268661
C49   C     C_R   0.382907 0.138480 0.550005 -0.125727
C50   C     C_R   0.299266 0.208269 0.537644 -0.009245
C51   C     C_R   0.616367 0.860177 0.522969 0.356445
C52   C     C_3   0.992548 0.709407 0.590399 0.274451
C53   C     C_R   0.665935 0.775887 0.517096 -0.038098
C54   C     C_R   0.712015 0.912904 0.501093 0.279283
C55   C     C_R   0.807410 0.747530 0.493623 -0.315037
C56   C     C_3   0.116404 0.746723 0.296769 -0.270567
C57   C     C_R   0.901634 0.797693 0.473584 0.007631
C58   C     C_R   0.852773 0.880176 0.476675 -0.056561
C59   C     C_3   0.947013 0.797284 0.612047 -0.287421
C60   C     C_3   0.698764 0.346880 0.375308 0.332021
C61   C     C_3   0.694658 0.323462 0.318483 0.359765
C62   C     C_2   0.839157 0.584440 0.404003 0.558935
C63   C     C_2   0.993210 0.354387 0.749348 0.469876
C64   C     C_3   0.608155 0.719838 0.314446 0.706143
C65   C     C_3   0.594767 0.740676 0.261569 -0.248736
C66   C     C_R   0.061122 0.451456 0.180235 0.601755
H1    H     H_    0.813882 0.261021 0.621809 0.028511
H2    H     H_    0.822444 0.349840 0.388378 0.015863
H3    H     H_    0.634685 0.407390 0.384997 -0.059155
H4    H     H_    0.774922 0.360361 0.301500 -0.093434
H5    H     H_    0.573302 0.336535 0.304186 0.006033
H6    H     H_    0.622316 0.256306 0.600224 0.008959
H7    H     H_    0.573239 0.145770 0.634508 0.124763
H8    H     H_    0.376490 0.645618 0.606625 -0.062133
H9    H     H_    0.569383 0.608520 0.626418 -0.001490
H10   H     H_    0.366808 0.754141 0.682341 0.085092
H11   H     H_    0.364648 0.653266 0.695930 -0.093423
H12   H     H_    0.124958 0.182214 0.314772 0.180437
H13   H     H_    0.668874 0.178770 0.692795 0.093865
H14   H     H_    0.083910 0.231709 0.732878 0.112087
H15   H     H_    0.193699 0.670669 0.350971 0.084295
H16   H     H_    0.982670 0.693030 0.346913 -0.035912
H17   H     H_    0.225983 0.778641 0.296627 0.157983
H18   H     H_    0.122620 0.693670 0.266745 0.087580
H19   H     H_    0.013823 0.788594 0.289382 0.154851
H20   H     H_    0.723643 0.685940 0.318585 -0.113312
H21   H     H_    0.698018 0.773120 0.253439 0.135199
H22   H     H_    0.485454 0.779479 0.256672 0.114796
H23   H     H_    0.254588 0.207232 0.268822 0.117029
H24   H     H_    0.062369 0.348778 0.654658 -0.062981
H25   H     H_    0.588920 0.684468 0.234335 0.093218
H26   H     H_    0.159785 0.476151 0.288555 0.130525
H27   H     H_    0.231232 0.333951 0.120228 0.133743
H28   H     H_    0.552106 0.500833 0.754831 0.142789
H29   H     H_    0.462724 0.353770 0.885091 0.136981
H30   H     H_    0.400210 0.350530 0.969381 0.077314
H31   H     H_    0.297887 0.333276 0.035592 0.080252
H32   H     H_    0.681824 0.543488 0.241702 0.081576
H33   H     H_    0.849826 0.703006 0.128302 0.123526
H34   H     H_    0.321404 0.208934 0.332646 0.172983
H35   H     H_    0.898249 0.685269 0.964282 0.081239
H36   H     H_    0.956065 0.681181 0.878407 0.146263
H37   H     H_    0.050837 0.525620 0.715810 0.136536
H38   H     H_    0.900034 0.702632 0.042347 0.079026
H39   H     H_    0.355648 0.451242 0.602260 0.092007
H40   H     H_    0.328863 0.101977 0.573606 0.201253
H41   H     H_    0.728090 0.150056 0.490044 0.166003
H42   H     H_    0.923684 0.919265 0.459603 0.138099
H43   H     H_    0.850294 0.685655 0.493440 0.090031
H44   H     H_    0.900989 0.252930 0.704945 0.105664
H45   H     H_    0.883636 0.679374 0.578041 0.005306
H46   H     H_    0.061515 0.322741 0.293667 0.070981
H47   H     H_    0.260483 0.346096 0.312963 0.028551
H48   H     H_    0.948733 0.091447 0.706698 0.335347
H49   H     H_    0.630646 0.110544 0.274811 0.379750
H50   H     H_    0.838849 0.650244 0.727824 0.383144
H51   H     H_    0.449697 0.772031 0.410141 0.369199
H52   H     H_    0.364339 0.183615 0.720062 0.358453
H53   H     H_    0.831364 0.648408 0.401582 -0.084117
H54   H     H_    0.219189 0.860256 0.576832 0.349932
H55   H     H_    0.110435 0.206041 0.435767 0.327125
H56   H     H_    0.072835 0.707665 0.558519 0.034288
H57   H     H_    0.093092 0.387755 0.763143 0.038236
H58   H     H_    0.842418 0.800503 0.636002 0.194883
H59   H     H_    0.918707 0.834170 0.581939 0.041033
H60   H     H_    0.045493 0.823804 0.635036 0.159689
N1    N     N_R   0.975971 0.517354 0.206768 -0.422730
N2    N     N_R   0.267205 0.515680 0.797945 -0.435694
N3    N     N_2   0.602227 0.035311 0.535277 -0.086508
N4    N     N_2   0.661961 0.995471 0.496768 -0.158990
O1    O     O_2   0.915540 0.542930 0.617950 -0.437422
O2    O     O_2   0.228268 0.787636 0.473335 -0.416602
O3    O     O_3   0.109640 0.784576 0.385119 -0.552770
O4    O     O_3   0.147530 0.542870 0.557780 -0.472414
O5    O     O_3   0.552080 0.402920 0.475380 -0.437109
O6    O     O_2   0.387280 0.697260 0.523450 -0.412752
O7    O     O_3   0.556342 0.722972 0.607826 -0.594986
O8    O     O_2   0.392583 0.536687 0.327910 -0.503627
O9    O     O_3   0.477797 0.676863 0.322620 -0.648865
O10   O     O_2   0.098597 0.391858 0.200083 -0.596830
O11   O     O_2   0.444849 0.410298 0.806438 -0.518009
O12   O     O_3   0.627559 0.288522 0.397043 -0.548982
O13   O     O_2   0.871093 0.645395 0.207803 -0.639971
O14   O     O_2   0.095041 0.625536 0.799057 -0.572885
O15   O     O_3   0.664390 0.396160 0.588360 -0.522728
O16   O     O_2   0.817467 0.443425 0.670956 -0.478793
O17   O     O_3   0.070308 0.672100 0.627620 -0.627309
O18   O     O_3   0.652178 0.317996 0.673066 -0.518257
O19   O     O_2   0.802410 0.302720 0.476520 -0.418034
O20   O     O_3   0.070880 0.354870 0.564040 -0.435524
O21   O     O_2   0.970787 0.210914 0.532994 -0.437228
O22   O     O_2   0.890378 0.094184 0.582733 -0.253061
O23   O     O_3   0.069490 0.225090 0.625667 -0.549157
O24   O     O_2   0.771730 0.012081 0.636329 -0.239014
O25   O     O_3   0.989647 0.101669 0.674545 -0.455539
O26   O     O_2   0.852333 0.210740 0.252920 -0.289898
O27   O     O_2   0.844835 0.183111 0.339173 -0.285929
O28   O     O_3   0.590691 0.167735 0.284490 -0.513770
O29   O     O_2   0.675498 0.788172 0.714645 -0.247030
O30   O     O_2   0.556596 0.716113 0.774813 -0.260689
O31   O     O_3   0.743533 0.632757 0.708669 -0.548303
O32   O     O_2   0.761646 0.845399 0.360831 -0.296110
O33   O     O_2   0.480645 0.872828 0.342901 -0.261959
O34   O     O_2   0.274150 0.457040 0.382020 -0.442315
O35   O     O_3   0.557878 0.790137 0.414230 -0.540460
O36   O     O_2   0.376123 0.302359 0.631745 -0.431021
O37   O     O_2   0.348807 0.335396 0.721998 -0.324425
O38   O     O_3   0.351614 0.183335 0.683642 -0.509396
O39   O     O_2   0.816089 0.561987 0.443534 -0.554242
O40   O     O_2   0.481336 0.957546 0.601161 -0.221388
O41   O     O_2   0.337934 0.946493 0.521286 -0.285126
O42   O     O_3   0.327243 0.833669 0.575378 -0.496934
O43   O     O_2   0.232176 0.387672 0.493373 -0.265622
O44   O     O_2   0.334483 0.300441 0.418403 -0.354453
O45   O     O_3   0.042160 0.457070 0.442220 -0.362390
O46   O     O_3   0.081453 0.261041 0.453668 -0.468466
O47   O     O_2   0.861887 0.379279 0.764431 -0.517668
O48   O     O_3   0.525310 0.603770 0.411640 -0.432193
O49   O     O_3   0.106470 0.328314 0.369368 -0.545350
O50   O     O_3   0.637620 0.597020 0.524620 -0.454399
O51   O     O_3   0.118810 0.645070 0.435950 -0.528293
P1    P     P_3+3 0.086060 0.566890 0.610430 1.023471
P2    P     P_3+3 0.625290 0.314770 0.461990 1.170284
P3    P     P_3+3 0.104404 0.249818 0.565731 1.162173
P4    P     P_3+3 0.103630 0.433040 0.389570 1.161842
P5    P     P_3+3 0.087401 0.752154 0.442893 1.014437
P6    P     P_3+3 0.655612 0.413245 0.652825 1.107219
P7    P     P_3+3 0.563801 0.698555 0.542933 1.068427
P8    P     P_3+3 0.533862 0.586163 0.345621 0.944798
S1    S     S_3+6 0.835447 0.092830 0.634638 -0.048017
S2    S     S_3+6 0.752731 0.218585 0.298588 -0.047776
S3    S     S_3+6 0.606942 0.710628 0.721650 -0.046438
S4    S     S_3+6 0.602921 0.811155 0.358084 -0.062537
S5    S     S_3+6 0.302076 0.280018 0.676467 -0.137140
S6    S     S_3+6 0.438558 0.900372 0.555473 -0.003915
S7    S     S_3+6 0.252580 0.302957 0.466625 -0.066626

loop_
_geom_bond_atom_site_label_1
_geom_bond_atom_site_label_2
_ccdc_geom_bond_type
C19   C24   A    
C40   H12   S    
C20   H30   S    
C44   C50   A    
C23   O7    S    
O9    P8    S    
O7    P7    S    
C56   H19   S    
C38   H31   S    
C4    S5    S    
C64   S4    S    
O49   P4    S    
O32   S4    D    
C60   H3    S    
C64   O9    S    
C16   C63   S    
C10   C66   A    
C24   C25   A    
C60   C61   S    
C15   C31   D    
C11   H27   S    
C23   H9    S    
C12   H1    S    
C12   H6    S    
C17   C19   A    
C16   H44   S    
Ba1   Ba2   S    
C35   C38   A    
C15   H39   S    
C64   H20   S    
C36   C37   A    
C55   C57   A    
O21   P3    D    
C29   H28   S    
C27   O11   D    
C52   H45   S    
O33   S4    D    
C65   H21   S    
C60   H2    S    
Ba1   O20   S    
O19   P2    D    
C32   C33   S    
Ba2   O50   S    
Ba2   P4    S    
O30   S3    D    
C11   C38   A    
C52   H56   S    
C17   C35   A    
C22   C27   A    
O15   P6    S    
C9    C13   A    
C25   C42   A    
C29   C30   S    
C6    C7    D    
C30   P6    S    
O17   P1    S    
C21   C22   A    
C61   S2    S    
C66   O10   D    
C59   H58   S    
Ba2   O45   S    
C45   H15   S    
C52   O17   S    
Ba1   O4    S    
C1    H7    S    
C7    C8    S    
Ba2   O34   S    
C4    O23   S    
C37   C43   A    
C46   P2    S    
C64   C65   S    
O46   S7    S    
C57   C58   A    
C6    C14   D    
H49   O28   S    
Ba2   O5    S    
C5    P8    S    
O6    P7    D    
C50   P3    S    
H55   O46   S    
Ba1   O1    S    
C40   H34   S    
Ba1   P1    S    
C62   H53   S    
C48   C49   A    
O37   S5    D    
O5    P2    S    
C28   H47   S    
C51   C53   A    
C6    P4    S    
C42   H36   S    
C4    C16   S    
C44   C46   A    
H50   O31   S    
O26   S2    D    
O41   S6    D    
O34   P4    D    
Ba2   O6    S    
C53   P7    S    
O2    P5    D    
C57   P5    S    
C17   C20   A    
C58   H42   S    
C13   C39   A    
O20   P3    S    
O44   S7    D    
C3    C5    S    
C18   C37   A    
C49   H40   S    
C61   H5    S    
O31   S3    S    
H54   O42   S    
O23   P3    S    
C65   H22   S    
Ba2   O4    S    
C49   C50   A    
C63   H57   S    
C9    C36   A    
C41   C42   A    
O43   S7    D    
C1    H13   S    
C35   C36   A    
C56   H18   S    
C14   C62   S    
O1    P1    D    
C27   N2    Am   
C3    H32   S    
C9    C10   A    
O4    P1    S    
C31   P1    S    
C31   C32   D    
O40   S6    D    
C59   H59   S    
C45   H16   S    
C61   H4    S    
C33   N2    S    
C54   N4    S    
C1    C12   S    
C34   H11   S    
O24   S1    D    
C46   C47   A    
C21   H29   S    
C53   C55   A    
C28   O49   S    
C29   C33   D    
Ba1   O15   S    
C41   H35   S    
N3    N4    D    
C56   H17   S    
H51   O35   S    
O3    P5    S    
C18   C41   A    
Ba1   O5    S    
C43   H38   S    
C47   H41   S    
C28   H46   S    
C51   C54   A    
O16   P6    D    
O27   S2    D    
O22   S1    D    
C5    C14   S    
O42   S6    S    
C45   O3    S    
C18   C19   A    
C32   H37   S    
O35   S4    S    
C22   C24   A    
C60   O12   S    
O48   P8    S    
Ba1   O50   S    
C2    N1    Am   
C52   C59   S    
Ba1   P2    S    
C63   O47   D    
C26   O14   D    
O45   P4    S    
C23   H8    S    
C51   S6    S    
C62   O39   D    
O25   S1    S    
H48   O25   S    
C34   H10   S    
C1    S1    S    
O18   P6    S    
O38   S5    S    
H52   O38   S    
C55   H43   S    
C2    C13   A    
O12   P2    S    
C4    H24   S    
C2    O13   D    
C7    H26   S    
C16   H14   S    
Ba2   O48   S    
C39   H33   S    
O29   S3    D    
Ba1   O19   S    
C59   H60   S    
C26   N2    Am   
Ba2   O51   S    
C66   N1    Am   
C34   S3    S    
C8    N1    S    
C44   S7    S    
C48   N3    S    
C23   C34   S    
C12   O18   S    
C54   C58   A    
C3    C8    D    
C10   C11   A    
C47   C48   A    
O36   S5    D    
C25   C26   A    
C65   H25   S    
C15   C30   S    
C39   C43   A    
C20   C21   A    
C28   C40   S    
O50   P7    S    
O51   P5    S    
Ba1   O45   S    
O8    P8    D    
C40   H23   S    
O28   S2    S    
C45   C56   S    
