data_mof_unit_3692.cif
_audit_creation_date              2012-12-10T18:47:42-0500
_audit_creation_method            fapswitch 2.2
_symmetry_space_group_name_H-M    P1
_symmetry_Int_Tables_number       1
_space_group_crystal_system       triclinic
_cell_length_a                    9.868683
_cell_length_b                    10.658127
_cell_length_c                    15.261125
_cell_angle_alpha                 89.972204
_cell_angle_beta                  66.777645
_cell_angle_gamma                 89.699034
_cell_volume                      1475.11812937

loop_
_atom_site_label
_atom_site_type_symbol
_atom_type_description
_atom_site_fract_x
_atom_site_fract_y
_atom_site_fract_z
_atom_type_partial_charge
C1    C     C_R   0.497558 0.739693 0.503418 0.925620
C2    C     C_R   0.502501 0.260301 0.496405 0.908334
C3    C     C_R   0.300827 0.497958 0.121855 -0.024037
C4    C     C_R   0.576781 0.304633 0.930891 -0.029202
C5    C     C_R   0.203867 0.529339 0.078563 -0.162328
C6    C     C_R   0.678894 0.279180 0.971314 -0.173785
C7    C     C_R   0.545812 0.938981 0.566372 -0.021195
C8    C     C_R   0.453147 0.060973 0.433825 -0.003199
C9    C     C_R   0.552884 0.067717 0.557976 -0.223768
C10   C     C_R   0.446708 0.932219 0.441988 -0.218091
C11   C     C_R   0.505466 0.127711 0.493698 -0.108119
C12   C     C_R   0.494335 0.872267 0.506145 -0.113631
C13   C     C_R   0.941535 0.393289 0.479250 -0.039146
C14   C     C_R   0.057728 0.606302 0.522067 0.032732
C15   C     C_R   0.085376 0.393492 0.478683 -0.062789
C16   C     C_R   0.914283 0.606323 0.521904 0.017614
C17   C     C_R   0.406299 0.501175 0.677454 0.899534
C18   C     C_R   0.593405 0.495360 0.322659 0.901338
C19   C     C_R   0.341575 0.499913 0.782336 -0.120119
C20   C     C_R   0.652031 0.463909 0.220446 -0.109314
C21   C     C_R   0.153142 0.554933 0.936990 -0.213012
C22   C     C_R   0.774555 0.315288 0.092468 -0.228249
C23   C     C_R   0.198852 0.547303 0.837956 -0.117052
C24   C     C_R   0.761243 0.369953 0.179016 0.004624
C25   C     C_R   0.429049 0.452702 0.827807 -0.240521
C26   C     C_R   0.564024 0.501440 0.172590 -0.261698
C27   C     C_R   0.378198 0.449089 0.927222 0.085464
C28   C     C_R   0.557069 0.429351 0.097928 0.111997
C29   C     C_R   0.244293 0.510774 0.981242 0.113850
C30   C     C_R   0.671923 0.342594 0.052733 0.115270
C31   C     C_R   0.465791 0.398149 0.973167 -0.029527
C32   C     C_R   0.441260 0.443542 0.065614 -0.028445
H1    H     H_    0.097211 0.570729 0.120597 0.206875
H2    H     H_    0.762795 0.207569 0.940332 0.190055
H3    H     H_    0.491913 0.581508 0.199986 0.158788
H4    H     H_    0.540642 0.423394 0.784642 0.171641
H5    H     H_    0.047289 0.597461 0.979401 0.153580
H6    H     H_    0.859898 0.245504 0.059059 0.160738
H7    H     H_    0.588837 0.122372 0.604829 0.191115
H8    H     H_    0.410576 0.877507 0.395262 0.188887
H9    H     H_    0.898450 0.307644 0.462549 0.150659
H10   H     H_    0.100117 0.691489 0.540007 0.149818
H11   H     H_    0.150339 0.308192 0.461011 0.153008
H12   H     H_    0.849231 0.691581 0.539682 0.144547
N1    N     N_R   0.142780 0.500030 0.500020 -0.083769
N2    N     N_R   0.857220 0.499970 0.499980 -0.076711
O1    O     O_R   0.385370 0.683250 0.500010 -0.623621
O2    O     O_R   0.614630 0.316750 0.499990 -0.626806
O3    O     O_R   0.614700 0.683220 0.500000 -0.610615
O4    O     O_R   0.385300 0.316780 0.500000 -0.617046
O5    O     O_R   0.319830 0.500020 0.632250 -0.609883
O6    O     O_R   0.680170 0.499980 0.367750 -0.562909
O7    O     O_R   0.549160 0.499990 0.632240 -0.584443
O8    O     O_R   0.450840 0.500010 0.367760 -0.600143
Zn1   Zn    Zn3+2 0.346870 0.500020 0.500000 0.997449
Zn2   Zn    Zn3+2 0.653130 0.499980 0.500000 1.020807
C33   C     C_2   0.854971 0.318601 0.225982 0.901556
O9    O     O_2   0.868539 0.204926 0.230675 -0.611709
O10   O     O_R   0.933395 0.398848 0.260692 -0.774998
H13   H     H_    0.997453 0.350999 0.287417 0.328254
C34   C     C_2   0.097931 0.596682 0.795567 0.967425
O11   O     O_2   0.074969 0.709414 0.796699 -0.556962
O12   O     O_R   0.024696 0.516018 0.756867 -0.762630
H14   H     H_    0.047977 0.424424 0.762701 0.308238
C35   C     C_2   0.242972 0.506217 0.227429 0.391524
H15   H     H_    0.281859 0.441281 0.267252 0.096135
O13   O     O_2   0.150635 0.584975 0.271022 -0.536163
C36   C     C_2   0.574553 0.218797 0.854593 0.401224
H16   H     H_    0.475249 0.209070 0.840913 0.066760
O14   O     O_2   0.683028 0.156753 0.806884 -0.529888
C37   C     C_2   0.585940 0.879314 0.641083 0.900901
O15   O     O_2   0.522801 0.784691 0.682029 -0.626111
O16   O     O_R   0.693262 0.934283 0.666884 -0.763237
H17   H     H_    0.710384 0.885896 0.718862 0.371796
C38   C     C_2   0.410719 0.120472 0.359997 0.898435
O17   O     O_2   0.471736 0.215944 0.319448 -0.651224
O18   O     O_R   0.303471 0.064494 0.334611 -0.796514
H18   H     H_    0.284423 0.113199 0.283460 0.346013

loop_
_geom_bond_atom_site_label_1
_geom_bond_atom_site_label_2
_ccdc_geom_bond_type
C27   C29   A    
O16   H17   S    
C17   O5    A    
C13   H9    S    
C18   O6    A    
O18   H18   S    
C10   H8    S    
C7    C37   S    
C13   N2    A    
C33   O10   S    
C22   H6    S    
C9    H7    S    
C7    C9    A    
C34   O12   S    
C2    O4    A    
C36   H16   S    
C20   C24   A    
C24   C33   S    
C35   O13   D    
C5    H1    S    
C14   C16   A    
C16   H12   S    
O5    Zn1   S    
C34   O11   D    
C14   H10   S    
O10   H13   S    
C3    C35   S    
C1    C12   S    
C2    C11   S    
C14   N1    A    
C5    C29   A    
C21   C23   A    
C7    C12   A    
C27   C31   A    
C28   C32   A    
C4    C6    A    
C16   N2    A    
C4    C36   S    
C1    O1    A    
C2    O2    A    
C21   C29   A    
C8    C38   S    
C6    H2    S    
C19   C23   A    
C38   O17   D    
C38   O18   S    
C31   C32   A    
C9    C11   A    
C10   C12   A    
C36   O14   D    
C6    C30   A    
C13   C15   A    
C22   C24   A    
C15   N1    A    
N2    Zn2   S    
C17   O7    A    
O1    Zn1   S    
O7    Zn2   S    
O2    Zn2   S    
O8    Zn1   S    
C22   C30   A    
C3    C5    A    
C25   C27   A    
O3    Zn2   S    
C26   C28   A    
O4    Zn1   S    
C28   C30   A    
C15   H11   S    
C37   O15   D    
C33   O9    D    
C20   C26   A    
C8    C11   A    
C17   C19   S    
C18   C20   S    
C3    C32   A    
C19   C25   A    
C4    C31   A    
C18   O8    A    
C25   H4    S    
O12   H14   S    
C26   H3    S    
C23   C34   S    
C21   H5    S    
N1    Zn1   S    
C8    C10   A    
C35   H15   S    
C37   O16   S    
C1    O3    A    
O6    Zn2   S    
