data_mof_unit_4928.cif
_audit_creation_date              2012-12-11T17:09:35-0500
_audit_creation_method            fapswitch 2.2
_symmetry_space_group_name_H-M    P1
_symmetry_Int_Tables_number       1
_space_group_crystal_system       triclinic
_cell_length_a                    14.813327
_cell_length_b                    6.941182
_cell_length_c                    13.505573
_cell_angle_alpha                 90.000026
_cell_angle_beta                  99.832288
_cell_angle_gamma                 90.000148
_cell_volume                      1368.27297973

loop_
_atom_site_label
_atom_site_type_symbol
_atom_type_description
_atom_site_fract_x
_atom_site_fract_y
_atom_site_fract_z
_atom_type_partial_charge
O1    O     O_R   0.586930 0.505770 0.416350 -0.538799
O2    O     O_R   0.413070 0.005770 0.583650 -0.536186
O3    O     O_R   0.397900 0.173100 0.389630 -0.534887
O4    O     O_R   0.602100 0.673100 0.610370 -0.536112
C1    C     C_R   0.364286 0.345405 0.362887 0.729943
C2    C     C_R   0.635706 0.845407 0.637124 0.725087
O5    O     O_R   0.585280 0.175870 0.404330 -0.542660
O6    O     O_R   0.414720 0.675870 0.595670 -0.547842
O7    O     O_R   0.601790 0.008380 0.598460 -0.535875
O8    O     O_R   0.398210 0.508380 0.401540 -0.534877
C3    C     C_R   0.614684 0.344740 0.382837 0.708378
C4    C     C_R   0.385377 0.844820 0.617211 0.699788
O9    O     O_3   0.505200 0.340120 0.563670 -0.369139
O10   O     O_3   0.494800 0.840120 0.436330 -0.367157
V1    V     V_3+5 0.499040 0.064180 0.488190 1.433332
V2    V     V_3+5 0.500960 0.564180 0.511810 1.425845
C5    C     C_R   0.254902 0.010944 0.679572 -0.005232
C6    C     C_R   0.682773 0.507542 0.245882 0.027513
C7    C     C_R   0.314371 0.853214 0.682369 -0.075147
C8    C     C_R   0.680899 0.352672 0.312027 -0.102135
C9    C     C_R   0.303001 0.701242 0.748139 -0.158391
C10   C     C_R   0.743380 0.201363 0.307129 -0.163039
H1    H     H_    0.348295 0.578355 0.754130 0.151876
H2    H     H_    0.744655 0.079082 0.356808 0.110320
C11   C     C_R   0.237547 0.712889 0.812288 -0.151813
C12   C     C_R   0.809490 0.213217 0.243589 -0.095135
H3    H     H_    0.234075 0.599049 0.865833 0.199689
H4    H     H_    0.859341 0.098967 0.245489 0.123368
C13   C     C_R   0.181566 0.876461 0.812874 -0.062101
C14   C     C_R   0.815223 0.376910 0.183270 -0.177169
C15   C     C_R   0.190580 0.022884 0.744004 -0.015645
C16   C     C_R   0.748153 0.519178 0.182964 0.102792
C17   C     C_3   0.211370 0.230179 0.764897 0.499649
C18   C     C_3   0.759419 0.730417 0.199582 0.501451
C19   C     C_3   0.279360 0.218461 0.693007 -0.419560
C20   C     C_3   0.687759 0.718008 0.267519 -0.444785
H5    H     H_    0.152030 0.326834 0.740006 0.020662
H6    H     H_    0.829037 0.770677 0.238588 0.008622
H7    H     H_    0.351814 0.239810 0.729600 0.203643
H8    H     H_    0.622661 0.793273 0.237144 0.215326
H9    H     H_    0.257910 0.302315 0.622809 0.110267
H10   H     H_    0.715590 0.748108 0.347762 0.111788
C21   C     C_1   0.783479 0.877124 0.782868 -0.169743
C22   C     C_1   0.216514 0.377123 0.217145 -0.173991
C23   C     C_1   0.716191 0.860113 0.716798 -0.175673
C24   C     C_1   0.283799 0.360110 0.283218 -0.176688
O11   O     O_R   0.101720 0.231700 0.098560 -0.533019
O12   O     O_R   0.898280 0.731700 0.901440 -0.533807
O13   O     O_R   0.914700 0.558980 0.095690 -0.539287
O14   O     O_R   0.085300 0.058980 0.904310 -0.523536
C25   C     C_R   0.885529 0.389747 0.117415 0.709539
C26   C     C_R   0.114950 0.889805 0.883115 0.704259
O15   O     O_R   0.102080 0.561590 0.110390 -0.543338
O16   O     O_R   0.897920 0.061590 0.889610 -0.541297
O17   O     O_R   0.086950 0.728940 0.916330 -0.550024
O18   O     O_R   0.913050 0.228940 0.083670 -0.528578
C27   C     C_R   0.136050 0.391923 0.137450 0.744615
C28   C     C_R   0.863948 0.891923 0.862555 0.760218
O19   O     O_3   0.994770 0.394510 0.936380 -0.373940
O20   O     O_3   0.005230 0.894510 0.063620 -0.372830
V3    V     V_3+5 0.000970 0.670520 0.011800 1.468469
V4    V     V_3+5 0.999030 0.170520 0.988200 1.493483
F1    F     F_    0.254269 0.257238 0.863381 -0.682631
F2    F     F_    0.729044 0.833022 0.112371 -0.657851

loop_
_geom_bond_atom_site_label_1
_geom_bond_atom_site_label_2
_ccdc_geom_bond_type
O4    V2    S    
O5    C3    A    
C14   C25   S    
C15   C17   S    
O9    V2    S    
O12   C28   A    
C7    C9    A    
C2    C23   S    
O11   C27   A    
O16   V4    S    
C1    C24   S    
C20   H10   S    
O1    C3    A    
C26   O17   A    
O6    C4    A    
C22   C27   S    
C17   F1    S    
O2    C4    A    
C2    O7    A    
O5    V1    S    
O7    V1    S    
O3    V1    S    
C1    O8    A    
C13   C15   A    
O1    V2    S    
O8    V2    S    
O20   V4    S    
C14   C16   A    
O2    V1    S    
C21   C23   T    
O12   V3    S    
C6    C20   S    
O11   V4    S    
C19   H9    S    
O17   V3    S    
C4    C7    S    
C18   F2    S    
C12   H4    S    
C17   C19   S    
C18   C20   S    
C8    C10   A    
C12   C14   A    
O18   V4    S    
O9    V1    S    
C9    H1    S    
C11   C13   A    
C19   H7    S    
C5    C15   A    
O10   V2    S    
C3    C8    S    
O19   V3    S    
O14   V4    S    
O13   V3    S    
C20   H8    S    
C6    C16   A    
C6    C8    A    
O4    C2    A    
C25   O18   A    
C10   C12   A    
C10   H2    S    
O16   C28   A    
O14   C26   A    
C9    C11   A    
O10   V1    S    
O19   V4    S    
O15   C27   A    
O6    V2    S    
C5    C19   S    
C21   C28   S    
C5    C7    A    
C18   H6    S    
O15   V3    S    
C13   C26   S    
C17   H5    S    
O13   C25   A    
C22   C24   T    
O20   V3    S    
O3    C1    A    
C11   H3    S    
C16   C18   S    
