data_mof_unit_235.cif
_audit_creation_date              2012-12-10T17:25:30-0500
_audit_creation_method            fapswitch 2.2
_symmetry_space_group_name_H-M    P1
_symmetry_Int_Tables_number       1
_space_group_crystal_system       triclinic
_cell_length_a                    10.279996
_cell_length_b                    10.830683
_cell_length_c                    23.394748
_cell_angle_alpha                 90.229771
_cell_angle_beta                  79.906323
_cell_angle_gamma                 95.293523
_cell_volume                      2553.30822885

loop_
_atom_site_label
_atom_site_type_symbol
_atom_type_description
_atom_site_fract_x
_atom_site_fract_y
_atom_site_fract_z
_atom_type_partial_charge
C1    C     C_R   0.555480 0.731746 0.496164 0.973179
C2    C     C_R   0.406576 0.439275 0.302314 0.330734
C3    C     C_R   0.416448 0.565073 0.770088 0.487323
C4    C     C_R   0.409353 0.451061 0.242646 0.481569
C5    C     C_R   0.503703 0.490705 0.791289 0.103349
C6    C     C_R   0.519240 0.516913 0.207920 0.131434
C7    C     C_2   0.583119 0.861474 0.504690 -0.439126
C8    C     C_2   0.416233 0.138737 0.496636 -0.436704
C9    C     C_2   0.503570 0.939041 0.487566 0.423949
C10   C     C_2   0.494561 0.061282 0.514644 0.424319
C11   C     C_2   0.932674 0.521009 0.496191 0.480686
C12   C     C_R   0.444448 0.268381 0.504328 0.971337
C13   C     C_2   0.068121 0.479662 0.502842 0.502324
C14   C     C_R   0.499425 0.501157 0.610394 0.923817
C15   C     C_R   0.501411 0.500244 0.389682 0.920162
C16   C     C_R   0.540207 0.403655 0.118858 0.609109
C17   C     C_R   0.547458 0.605419 0.875520 0.640881
C18   C     C_R   0.533275 0.622774 0.116269 0.536899
C19   C     C_R   0.499953 0.385572 0.882501 0.547713
C20   C     C_R   0.550890 0.622175 0.055380 -0.164439
C21   C     C_R   0.513258 0.386130 0.941244 -0.163281
C22   C     C_R   0.537945 0.506356 0.027798 -0.137861
C23   C     C_R   0.584956 0.418853 0.752984 -0.184737
C24   C     C_R   0.534409 0.501994 0.968035 -0.154428
C25   C     C_R   0.527454 0.394972 0.060282 -0.192597
C26   C     C_R   0.551732 0.613454 0.935067 -0.174967
C27   C     C_R   0.576752 0.733123 0.021857 0.423340
C28   C     C_R   0.502689 0.274611 0.973848 0.434545
C29   C     C_R   0.574550 0.729211 0.961908 0.383860
C30   C     C_R   0.505701 0.279145 0.033563 0.390720
C31   C     C_3   0.731513 0.860713 0.057829 -0.232745
C32   C     C_3   0.380996 0.097373 0.951593 -0.104646
C33   C     C_3   0.152958 0.676412 0.598650 0.259960
C34   C     C_R   0.619912 0.578845 0.233198 -0.184000
C35   C     C_3   0.075282 0.777364 0.629744 -0.890221
C36   C     C_3   0.834777 0.326734 0.400269 0.231045
C37   C     C_3   0.921242 0.242385 0.361622 -0.902732
C38   C     C_3   0.707900 0.898036 0.918356 0.201646
C39   C     C_3   0.725938 0.972244 0.861860 -0.723120
C40   C     C_3   0.359892 0.147565 0.095081 0.112949
C41   C     C_3   0.341291 0.020731 0.124618 -0.665463
C42   C     C_3   0.456308 0.779020 0.681590 0.109291
C43   C     C_3   0.388868 0.892685 0.668981 -0.774862
C44   C     C_3   0.361144 0.241131 0.335681 0.176771
C45   C     C_R   0.579347 0.419914 0.694311 -0.283019
C46   C     C_3   0.247289 0.140658 0.351217 -0.829268
C47   C     C_3   0.216225 0.563993 0.828359 -0.290405
C48   C     C_3   0.207261 0.462957 0.218553 -0.329904
C49   C     C_3   0.693172 0.121948 0.545568 -0.264013
C50   C     C_3   0.301409 0.876790 0.460477 -0.241781
C51   C     C_3   0.047118 0.285492 0.540598 0.180590
C52   C     C_3   0.041806 0.149003 0.524887 -0.850390
C53   C     C_3   0.951421 0.713974 0.457432 0.191156
C54   C     C_3   0.955973 0.850974 0.472183 -0.847994
C55   C     C_R   0.612757 0.573824 0.292891 -0.291232
C56   C     C_R   0.498657 0.498845 0.672534 -0.215061
C57   C     C_R   0.506274 0.504654 0.327525 -0.215141
C58   C     C_R   0.423045 0.577457 0.710116 0.330240
H1    H     H_    0.653232 0.362442 0.768714 0.185456
H2    H     H_    0.374595 0.045896 0.910937 0.209212
H3    H     H_    0.298426 0.158862 0.958400 0.088590
H4    H     H_    0.367317 0.027142 0.986992 0.180176
H5    H     H_    0.260086 0.704499 0.595374 0.209695
H6    H     H_    0.125826 0.589322 0.625083 0.131116
H7    H     H_    0.967258 0.753321 0.631413 0.274468
H8    H     H_    0.094987 0.786362 0.674800 0.239447
H9    H     H_    0.105306 0.867525 0.606530 0.236731
H10   H     H_    0.841160 0.416726 0.376437 0.132004
H11   H     H_    0.731522 0.282716 0.407558 0.171515
H12   H     H_    0.704473 0.629441 0.206395 0.165003
H13   H     H_    0.922025 0.152302 0.384053 0.254800
H14   H     H_    0.882362 0.225244 0.320630 0.215456
H15   H     H_    0.023891 0.287886 0.350997 0.303740
H16   H     H_    0.785785 0.831500 0.913541 0.079474
H17   H     H_    0.723422 0.964993 0.953076 0.186651
H18   H     H_    0.645158 0.033959 0.863111 0.301013
H19   H     H_    0.822502 0.030007 0.855480 0.177105
H20   H     H_    0.725613 0.909297 0.824376 0.264071
H21   H     H_    0.286096 0.150077 0.065669 0.071985
H22   H     H_    0.337390 0.218101 0.129088 0.200761
H23   H     H_    0.640465 0.360933 0.665673 0.188423
H24   H     H_    0.238709 0.003944 0.149436 0.172361
H25   H     H_    0.358142 0.947222 0.091637 0.269705
H26   H     H_    0.412583 0.016324 0.154999 0.287555
H27   H     H_    0.538361 0.766522 0.644676 0.121951
H28   H     H_    0.499304 0.798615 0.721671 0.186525
H29   H     H_    0.299619 0.901619 0.702599 0.261272
H30   H     H_    0.458593 0.977128 0.669567 0.247095
H31   H     H_    0.360129 0.886335 0.625481 0.236389
H32   H     H_    0.426745 0.240436 0.368745 0.112973
H33   H     H_    0.418490 0.216559 0.292689 0.156273
H34   H     H_    0.690715 0.623150 0.312087 0.176992
H35   H     H_    0.181696 0.138769 0.318190 0.262652
H36   H     H_    0.287500 0.049138 0.351476 0.217344
H37   H     H_    0.189152 0.157873 0.394701 0.275226
H38   H     H_    0.233864 0.482798 0.854056 0.154348
H39   H     H_    0.163553 0.532858 0.792349 0.162451
H40   H     H_    0.150243 0.621472 0.857711 0.188270
H41   H     H_    0.241369 0.550721 0.193524 0.170212
H42   H     H_    0.161218 0.483308 0.263910 0.185815
H43   H     H_    0.129407 0.412598 0.197695 0.187174
H44   H     H_    0.731763 0.110592 0.498386 0.165573
H45   H     H_    0.356904 0.114295 0.463834 0.135460
H46   H     H_    0.745979 0.063031 0.570814 0.155345
H47   H     H_    0.718640 0.219297 0.557398 0.220435
H48   H     H_    0.244538 0.938306 0.438768 0.145199
H49   H     H_    0.268172 0.883140 0.508326 0.162581
H50   H     H_    0.274399 0.781174 0.446761 0.230788
H51   H     H_    0.944810 0.304713 0.561250 0.088482
H52   H     H_    0.113508 0.302831 0.573142 0.134887
H53   H     H_    0.142382 0.122702 0.507878 0.246248
H54   H     H_    0.999698 0.091221 0.564016 0.195249
H55   H     H_    0.979046 0.130203 0.491228 0.272444
H56   H     H_    0.644172 0.885800 0.536938 0.132284
H57   H     H_    0.884041 0.694763 0.425410 0.132422
H58   H     H_    0.053567 0.695076 0.436392 0.099055
H59   H     H_    0.018506 0.871377 0.505787 0.274775
H60   H     H_    0.997845 0.907715 0.432681 0.193833
H61   H     H_    0.855269 0.877146 0.488955 0.249490
H62   H     H_    0.805109 0.837214 0.019441 0.075632
H63   H     H_    0.743108 0.803294 0.095460 0.179228
H64   H     H_    0.756342 0.959040 0.068416 0.204921
N1    N     N_R   0.532075 0.514824 0.146201 -0.334253
N2    N     N_R   0.516258 0.493943 0.851372 -0.340121
N3    N     N_2   0.842710 0.448880 0.476480 -0.014375
N4    N     N_2   0.157290 0.551120 0.523520 -0.025432
O1    O     O_R   0.431060 0.692470 0.504730 -0.611992
O2    O     O_2   0.575745 0.707663 0.841352 -0.526774
O3    O     O_2   0.514178 0.728984 0.145621 -0.535554
O4    O     O_2   0.467842 0.278282 0.856632 -0.548504
O5    O     O_3   0.599601 0.847127 0.047142 -0.544342
O6    O     O_3   0.508704 0.161480 0.946019 -0.565764
O7    O     O_3   0.121896 0.662444 0.542792 -0.586316
O8    O     O_3   0.880576 0.340958 0.453384 -0.563377
O9    O     O_3   0.577193 0.839143 0.931089 -0.547843
O10   O     O_3   0.491941 0.168584 0.064573 -0.533023
O11   O     O_3   0.363548 0.672581 0.688672 -0.616692
O12   O     O_R   0.568940 0.307530 0.495270 -0.616731
O13   O     O_3   0.310303 0.358081 0.334825 -0.584169
O14   O     O_3   0.335614 0.636799 0.807220 -0.559076
O15   O     O_3   0.311851 0.387117 0.217420 -0.604311
O16   O     O_3   0.554715 0.092415 0.562428 -0.636293
O17   O     O_3   0.439065 0.907127 0.441104 -0.626984
O18   O     O_3   0.095417 0.358988 0.490038 -0.560242
O19   O     O_3   0.905345 0.641803 0.508612 -0.579328
O20   O     O_R   0.651120 0.659650 0.489640 -0.595465
O21   O     O_R   0.348880 0.340350 0.510360 -0.591054
O22   O     O_R   0.389950 0.516450 0.591390 -0.634135
O23   O     O_R   0.610050 0.483550 0.408610 -0.682335
O24   O     O_R   0.610020 0.483630 0.576300 -0.615303
O25   O     O_R   0.389980 0.516370 0.423700 -0.565251
O26   O     O_2   0.560494 0.302752 0.148643 -0.528291
Zn1   Zn    Zn3+2 0.353060 0.521920 0.510080 0.991185
Zn2   Zn    Zn3+2 0.646940 0.478080 0.489920 0.957575

loop_
_geom_bond_atom_site_label_1
_geom_bond_atom_site_label_2
_ccdc_geom_bond_type
N3    O8    S    
C14   C56   S    
C23   C45   A    
C27   C29   A    
C27   O5    S    
C32   O6    S    
O1    Zn1   S    
C49   H46   S    
C15   O25   A    
C9    O17   S    
C2    C57   A    
C48   H43   S    
C52   H55   S    
C36   H11   S    
C23   H1    S    
C40   O10   S    
C5    N2    S    
C43   H31   S    
C47   H40   S    
C43   H30   S    
C39   H19   S    
C7    H56   S    
C36   C37   S    
C19   C21   A    
C16   N1    A    
C24   C26   A    
C32   H3    S    
C38   C39   S    
C49   H44   S    
C52   H54   S    
C41   H25   S    
C14   O22   A    
C25   C30   A    
C10   O16   S    
C13   O18   S    
C31   O5    S    
C33   C35   S    
C2    O13   S    
C46   H37   S    
C45   C56   A    
C22   C25   A    
C5    C23   A    
C47   O14   S    
C47   H38   S    
C40   H22   S    
C42   H28   S    
C9    C10   S    
C34   H12   S    
C18   C20   A    
C53   H58   S    
C33   H5    S    
C18   N1    A    
O12   Zn2   S    
C19   O4    S    
C34   C55   A    
C51   H51   S    
C54   H61   S    
C42   O11   S    
C50   H50   S    
C15   C57   S    
C1    O20   A    
C6    N1    S    
C44   C46   S    
C38   H17   S    
C48   H42   S    
C19   N2    A    
C51   C52   S    
C39   H20   S    
N4    O7    S    
C4    C6    A    
C4    O15   S    
C35   H7    S    
C11   O19   S    
C49   H47   S    
C52   H53   S    
C51   O18   S    
C41   H26   S    
C6    C34   A    
C28   O6    S    
C2    C4    A    
O23   Zn2   S    
N4    Zn1   S    
C55   H34   S    
C17   N2    A    
C46   H36   S    
C35   H9    S    
C8    C12   S    
C49   O16   S    
C14   O24   A    
C53   O19   S    
C40   H21   S    
C16   O26   S    
C42   H27   S    
C39   H18   S    
C31   H63   S    
C44   H33   S    
C13   N4    D    
C58   O11   S    
C40   C41   S    
C29   O9    S    
C21   C28   A    
C20   C22   A    
C51   H52   S    
C30   O10   S    
C55   C57   A    
O24   Zn2   S    
C50   H49   S    
O20   Zn2   S    
C12   O12   A    
C21   C24   A    
C42   C43   S    
C17   C26   A    
C54   H60   S    
C15   O23   A    
C44   H32   S    
N3    Zn2   S    
C12   O21   A    
C38   H16   S    
C16   C25   A    
C7    C9    D    
C48   H41   S    
C37   H15   S    
C11   N3    D    
C1    C7    S    
C45   H23   S    
C1    O1    A    
C31   H64   S    
C3    C5    A    
C36   O8    S    
C36   H10   S    
C17   O2    S    
C53   C54   S    
C50   O17   S    
C20   C27   A    
C44   O13   S    
C35   H8    S    
C47   H39   S    
C43   H29   S    
C37   H13   S    
C32   H4    S    
C11   C13   S    
C46   H35   S    
C33   H6    S    
C41   H24   S    
C28   C30   A    
C38   O9    S    
C56   C58   A    
C48   O15   S    
C22   C24   A    
O25   Zn1   S    
O21   Zn1   S    
C8    H45   S    
C31   H62   S    
C3    C58   A    
C33   O7    S    
C26   C29   A    
C8    C10   D    
O22   Zn1   S    
C37   H14   S    
C50   H48   S    
C32   H2    S    
C18   O3    S    
C3    O14   S    
C54   H59   S    
C53   H57   S    
