data_mof_unit_1041.cif
_audit_creation_date              2012-12-10T18:10:54-0500
_audit_creation_method            fapswitch 2.2
_symmetry_space_group_name_H-M    P1
_symmetry_Int_Tables_number       1
_space_group_crystal_system       triclinic
_cell_length_a                    12.632768
_cell_length_b                    13.235197
_cell_length_c                    15.730739
_cell_angle_alpha                 91.659885
_cell_angle_beta                  103.267754
_cell_angle_gamma                 82.538874
_cell_volume                      2538.25662465

loop_
_atom_site_label
_atom_site_type_symbol
_atom_type_description
_atom_site_fract_x
_atom_site_fract_y
_atom_site_fract_z
_atom_type_partial_charge
C1    C     C_R   0.439313 0.690517 0.483475 0.977624
C2    C     C_R   0.595672 0.198355 0.503371 -0.360304
C3    C     C_R   0.296889 0.838233 0.475017 -0.336653
C4    C     C_R   0.501724 0.500333 0.661574 0.885296
C5    C     C_R   0.269896 0.942273 0.484214 0.549633
C6    C     C_R   0.347742 0.007956 0.485233 0.604170
C7    C     C_R   0.450991 0.970928 0.466709 -0.124377
C8    C     C_R   0.475679 0.865777 0.451843 -0.194553
C9    C     C_R   0.535579 0.032854 0.472521 -0.157174
C10   C     C_R   0.645301 0.988302 0.482966 -0.313220
C11   C     C_R   0.664817 0.887708 0.454992 0.613093
C12   C     C_3   0.391504 0.558156 0.029798 0.935837
C13   C     C_R   0.577503 0.830805 0.430583 0.557734
C14   C     C_R   0.514192 0.137592 0.466328 0.678405
C15   C     C_R   0.705068 0.152417 0.534282 0.272882
C16   C     C_R   0.560798 0.308339 0.508014 0.948396
C17   C     C_R   0.401816 0.798846 0.464959 -0.168334
C18   C     C_R   0.081878 0.357556 0.368995 0.285513
C19   C     C_R   0.801874 0.624218 0.608109 0.559292
C20   C     C_R   0.905938 0.656469 0.628785 0.214124
C21   C     C_R   0.980799 0.620442 0.578675 0.627963
C22   C     C_R   0.960027 0.538714 0.519314 -0.144420
C23   C     C_3   0.500534 0.498026 0.082429 -0.458456
C24   C     C_R   0.852339 0.511061 0.500001 -0.053021
C25   C     C_R   0.039578 0.483681 0.477867 -0.207740
C26   C     C_R   0.005213 0.412200 0.410722 -0.233554
C27   C     C_R   0.895937 0.393008 0.389241 0.673183
C28   C     C_R   0.498616 0.499165 0.338346 0.871917
C29   C     C_R   0.823100 0.438466 0.436109 -0.195145
C30   C     C_R   0.153257 0.490337 0.503756 0.702338
C31   C     C_R   0.188450 0.384140 0.386094 0.402296
C32   C     C_3   0.398051 0.566044 0.932542 0.737231
C33   C     C_3   0.605765 0.551375 0.972344 0.205583
C34   C     C_3   0.511094 0.386085 0.048118 0.907681
C35   C     C_3   0.602600 0.549643 0.071487 0.794304
C36   C     C_1   0.496109 0.497459 0.248856 -0.139265
C37   C     C_3   0.506946 0.498346 0.917961 -0.472427
C38   C     C_3   0.264043 0.460170 0.854347 0.168609
C39   C     C_3   0.140715 0.471030 0.818079 -0.803995
C40   C     C_3   0.869479 0.218597 0.553661 0.173827
C41   C     C_3   0.940629 0.289097 0.612240 -0.836799
C42   C     C_3   0.867323 0.971949 0.627985 0.085474
C43   C     C_3   0.990948 0.942322 0.653783 -0.551414
C44   C     C_3   0.232000 0.370414 0.251932 0.085559
C45   C     C_3   0.524601 0.384378 0.952075 0.792511
C46   C     C_3   0.298071 0.300670 0.199364 -0.592001
C47   C     C_3   0.089538 0.185809 0.352667 0.206712
C48   C     C_3   0.049032 0.101220 0.291134 -0.694042
C49   C     C_3   0.920135 0.699428 0.773938 0.098241
C50   C     C_3   0.004199 0.742832 0.846128 -0.742596
C51   C     C_3   0.785265 0.570789 0.964046 0.165140
C52   C     C_3   0.896497 0.510904 0.964065 -0.721025
C53   C     C_3   0.671199 0.670331 0.177980 0.192567
C54   C     C_3   0.650909 0.781188 0.204713 -0.688179
C55   C     C_3   0.484820 0.219185 0.905770 0.233886
C56   C     C_1   0.497141 0.496963 0.173615 0.316892
C57   C     C_3   0.387754 0.162391 0.866815 -0.829240
C58   C     C_1   0.508158 0.499574 0.826728 0.261321
C59   C     C_1   0.506149 0.500193 0.751123 -0.106871
C60   C     C_R   0.730753 0.046619 0.518962 0.436669
F1    F     F_    0.376693 0.655128 0.064943 -0.557572
F2    F     F_    0.859202 0.325591 0.325976 -0.600162
F3    F     F_    0.198652 0.533897 0.579839 -0.588188
F4    F     F_    0.723013 0.666537 0.648509 -0.656833
F5    F     F_    0.066942 0.673293 0.583499 -0.571795
F6    F     F_    0.698121 0.491599 0.117213 -0.594818
F7    F     F_    0.631088 0.341381 0.950713 -0.574389
F8    F     F_    0.419672 0.341103 0.053212 -0.689049
F9    F     F_    0.301924 0.511939 0.037770 -0.659766
F10   F     F_    0.600932 0.328603 0.100535 -0.547341
F11   F     F_    0.766080 0.845990 0.446926 -0.608723
F12   F     F_    0.416558 0.179184 0.416191 -0.593990
F13   F     F_    0.325390 0.104128 0.514382 -0.629040
F14   F     F_    0.171571 0.978448 0.501617 -0.648040
F15   F     F_    0.411852 0.666796 0.920644 -0.594765
F16   F     F_    0.593025 0.742382 0.386516 -0.657862
H1    H     H_    0.238570 0.788080 0.483051 0.247494
H2    H     H_    0.922809 0.146206 0.550508 0.203634
H3    H     H_    0.978312 0.251732 0.676285 0.256261
H4    H     H_    0.007036 0.306272 0.581463 0.213136
H5    H     H_    0.890350 0.361075 0.623801 0.262524
H6    H     H_    0.825646 0.905824 0.638278 0.203909
H7    H     H_    0.845714 0.035381 0.671536 0.148751
H8    H     H_    0.033664 0.008059 0.644745 0.233779
H9    H     H_    0.016205 0.919201 0.723392 0.203383
H10   H     H_    0.015919 0.878053 0.612712 0.328127
H11   H     H_    0.247882 0.450145 0.245495 0.167957
H12   H     H_    0.745364 0.410822 0.424107 0.210816
H13   H     H_    0.144018 0.366646 0.221772 0.175260
H14   H     H_    0.285137 0.220309 0.207019 0.245782
H15   H     H_    0.270390 0.321628 0.129270 0.262181
H16   H     H_    0.386717 0.307810 0.222182 0.270852
H17   H     H_    0.057228 0.181613 0.412618 0.163809
H18   H     H_    0.180675 0.172413 0.370387 0.219634
H19   H     H_    0.080860 0.102698 0.231024 0.242200
H20   H     H_    0.078238 0.026109 0.323593 0.227911
H21   H     H_    0.957989 0.111423 0.273056 0.289264
H22   H     H_    0.931239 0.614997 0.782471 0.119913
H23   H     H_    0.594636 0.632195 0.949981 0.157108
H24   H     H_    0.837151 0.730716 0.782195 0.200283
H25   H     H_    0.990675 0.827335 0.843990 0.240932
H26   H     H_    0.996050 0.717844 0.910777 0.207350
H27   H     H_    0.088380 0.715775 0.838223 0.316141
H28   H     H_    0.792857 0.616435 0.025137 0.141309
H29   H     H_    0.761698 0.622916 0.906665 0.114378
H30   H     H_    0.892990 0.468449 0.901725 0.245306
H31   H     H_    0.959450 0.563633 0.971392 0.189507
H32   H     H_    0.920471 0.456058 0.019359 0.291305
H33   H     H_    0.755460 0.656071 0.166385 0.156829
H34   H     H_    0.281539 0.412131 0.913487 0.234307
H35   H     H_    0.664988 0.621372 0.232472 0.202199
H36   H     H_    0.567215 0.798355 0.216845 0.288796
H37   H     H_    0.711978 0.796125 0.265257 0.254301
H38   H     H_    0.658719 0.831914 0.152057 0.239601
H39   H     H_    0.516629 0.195111 0.975127 0.213712
H40   H     H_    0.549638 0.197352 0.868905 0.187967
H41   H     H_    0.355392 0.183229 0.796918 0.265473
H42   H     H_    0.413777 0.078939 0.871864 0.234600
H43   H     H_    0.321731 0.182467 0.902667 0.273994
H44   H     H_    0.302399 0.423432 0.802577 0.202782
H45   H     H_    0.118053 0.518769 0.758118 0.283538
H46   H     H_    0.113999 0.394768 0.801466 0.207788
H47   H     H_    0.097940 0.507075 0.867650 0.261834
H48   H     H_    0.841238 0.250000 0.486718 0.148184
N1    N     N_R   0.222200 0.444690 0.455710 -0.212298
N2    N     N_R   0.776960 0.554780 0.543830 -0.160035
O1    O     O_R   0.366740 0.627160 0.478850 -0.612741
O2    O     O_3   0.779443 0.206779 0.589883 -0.595133
O3    O     O_3   0.837935 0.000278 0.539080 -0.560293
O4    O     O_3   0.263775 0.339378 0.340553 -0.516990
O5    O     O_3   0.052504 0.280624 0.310139 -0.550926
O6    O     O_3   0.933787 0.729688 0.691912 -0.579503
O7    O     O_3   0.707404 0.501849 0.958420 -0.477674
O8    O     O_3   0.592420 0.652730 0.101154 -0.625394
O9    O     O_3   0.450202 0.325224 0.897496 -0.706261
O10   O     O_R   0.544830 0.662520 0.507140 -0.516032
O11   O     O_R   0.410920 0.482310 0.608710 -0.549917
O12   O     O_R   0.589010 0.517670 0.637000 -0.568626
O13   O     O_R   0.455170 0.337480 0.492860 -0.512118
O14   O     O_R   0.633260 0.372840 0.521150 -0.624204
O15   O     O_R   0.410990 0.482330 0.363000 -0.606463
O16   O     O_R   0.589080 0.517690 0.391290 -0.596111
O17   O     O_3   0.296357 0.557884 0.871460 -0.547518
Zn1   Zn    Zn3+2 0.381090 0.476390 0.481110 1.085350
Zn2   Zn    Zn3+2 0.618910 0.523610 0.518890 1.052021

loop_
_geom_bond_atom_site_label_1
_geom_bond_atom_site_label_2
_ccdc_geom_bond_type
C12   F9    S    
C8    C13   A    
C48   H19   S    
C27   C29   A    
C51   O7    S    
C38   O17   S    
C19   C20   A    
C42   H6    S    
C41   H4    S    
C23   C56   S    
C53   C54   S    
C48   H21   S    
C12   C23   S    
C26   C27   A    
C39   H46   S    
C27   F2    S    
C31   O4    S    
C38   C39   S    
C11   F11   S    
C46   H16   S    
C55   H40   S    
N1    Zn1   S    
C44   O4    S    
C40   O2    S    
C54   H37   S    
C39   H47   S    
C15   C60   A    
C5    F14   S    
C24   C29   A    
C29   H12   S    
C4    O11   A    
C52   H31   S    
C32   O17   S    
C22   C25   A    
C18   C26   A    
C45   F7    S    
C38   H34   S    
C44   H11   S    
C2    C16   S    
C9    C10   A    
C34   F10   S    
O10   Zn2   S    
C57   H43   S    
C38   H44   S    
C53   H35   S    
C49   H22   S    
C30   N1    A    
C52   H30   S    
C50   H27   S    
C30   F3    S    
C12   C32   S    
C24   N2    A    
C43   H8    S    
O16   Zn2   S    
C18   O5    S    
C16   O14   A    
C20   O6    S    
C35   O8    S    
C18   C31   A    
N2    Zn2   S    
C44   C46   S    
C40   H48   S    
C49   O6    S    
C45   O9    S    
C53   O8    S    
C51   C52   S    
C43   H9    S    
C1    O1    A    
C7    C8    A    
O15   Zn1   S    
C34   F8    S    
C46   H15   S    
C35   F6    S    
C25   C26   A    
C33   C37   S    
C47   O5    S    
C33   H23   S    
C60   O3    S    
C10   C60   A    
C9    C14   A    
C36   C56   T    
C32   F15   S    
O13   Zn1   S    
C47   C48   S    
C13   F16   S    
C19   F4    S    
C51   H29   S    
C23   C34   S    
C41   H5    S    
C47   H17   S    
C54   H36   S    
C34   C45   S    
C32   C37   S    
C2    C15   A    
C28   C36   S    
C40   C41   S    
O11   Zn1   S    
C50   H26   S    
C23   C35   S    
C15   O2    S    
C55   C57   S    
C40   H2    S    
C58   C59   T    
C16   O13   A    
C28   O16   A    
C42   C43   S    
C31   N1    A    
C37   C45   S    
C1    O10   A    
C6    F13   S    
C57   H41   S    
C53   H33   S    
C25   C30   A    
C7    C9    A    
C48   H20   S    
C21   F5    S    
C43   H10   S    
C14   F12   S    
C42   H7    S    
C37   C58   S    
C3    C5    A    
O14   Zn2   S    
C41   H3    S    
C6    C7    A    
C46   H14   S    
C19   N2    A    
C1    C17   S    
C8    C17   A    
C39   H45   S    
C51   H28   S    
C49   H24   S    
C12   F1    S    
C11   C13   A    
C5    C6    A    
C55   H39   S    
C55   O9    S    
C54   H38   S    
C4    C59   S    
C33   C35   S    
C47   H18   S    
C3    C17   A    
C42   O3    S    
C22   C24   A    
O1    Zn1   S    
C2    C14   A    
C10   C11   A    
C4    O12   A    
C33   O7    S    
C20   C21   A    
C52   H32   S    
C50   H25   S    
C49   C50   S    
C28   O15   A    
O12   Zn2   S    
C21   C22   A    
C44   H13   S    
C57   H42   S    
C3    H1    S    
