data_mof_unit_1781.cif
_audit_creation_date              2012-12-10T16:58:23-0500
_audit_creation_method            fapswitch 2.2
_symmetry_space_group_name_H-M    P1
_symmetry_Int_Tables_number       1
_space_group_crystal_system       triclinic
_cell_length_a                    7.724499
_cell_length_b                    8.593468
_cell_length_c                    23.421782
_cell_angle_alpha                 90.96227
_cell_angle_beta                  86.580712
_cell_angle_gamma                 93.220908
_cell_volume                      1549.38307532

loop_
_atom_site_label
_atom_site_type_symbol
_atom_type_description
_atom_site_fract_x
_atom_site_fract_y
_atom_site_fract_z
_atom_type_partial_charge
C1    C     C_R   0.544802 0.794577 0.498641 0.940603
C2    C     C_R   0.336960 0.448305 0.299398 0.316065
C3    C     C_R   0.661341 0.547445 0.760338 0.402088
C4    C     C_R   0.338659 0.452554 0.239662 0.402089
C5    C     C_R   0.508851 0.497147 0.791678 0.139985
C6    C     C_R   0.491149 0.502852 0.208321 0.139985
C7    C     C_2   0.562412 0.954807 0.488633 0.097117
C8    C     C_2   0.437588 0.045193 0.511367 0.097118
C9    C     C_R   0.503989 0.502459 0.610673 0.952105
C10   C     C_R   0.496011 0.497541 0.389327 0.952105
C11   C     C_R   0.536443 0.369621 0.118374 0.592376
C12   C     C_R   0.455198 0.205423 0.501359 0.940603
C13   C     C_R   0.463556 0.630379 0.881626 0.592376
C14   C     C_R   0.458857 0.635555 0.120601 0.567665
C15   C     C_R   0.541142 0.364445 0.879399 0.567665
C16   C     C_R   0.459589 0.637328 0.061016 -0.025809
C17   C     C_R   0.540410 0.362671 0.938983 -0.025809
C18   C     C_R   0.499600 0.500709 0.029979 -0.011189
C19   C     C_R   0.500399 0.499291 0.970021 -0.011189
C20   C     C_R   0.538767 0.365485 0.058761 -0.029430
C21   C     C_R   0.461232 0.634514 0.941239 -0.029430
C22   C     C_R   0.420728 0.771372 0.031951 -0.148828
C23   C     C_R   0.359150 0.450030 0.764330 -0.099390
C24   C     C_R   0.579271 0.228628 0.968049 -0.148828
C25   C     C_R   0.421489 0.769961 0.972517 -0.147759
C26   C     C_R   0.578509 0.230039 0.027482 -0.147759
C27   C     C_R   0.640849 0.549969 0.235670 -0.099391
C28   C     C_R   0.360041 0.452381 0.705296 -0.166694
C29   C     C_R   0.639958 0.547618 0.294704 -0.166697
C30   C     C_R   0.510924 0.502426 0.672872 -0.204046
C31   C     C_R   0.489076 0.497573 0.327128 -0.204045
C32   C     C_R   0.663041 0.551694 0.700602 0.316064
Cl1   Cl    Cl    0.853170 0.627070 0.662491 -0.500536
Cl2   Cl    Cl    0.146832 0.372927 0.337509 -0.500535
Cl3   Cl    Cl    0.848672 0.606155 0.796662 -0.493770
Cl4   Cl    Cl    0.151329 0.393844 0.203338 -0.493771
Cl5   Cl    Cl    0.725451 0.012885 0.434995 -0.508529
Cl6   Cl    Cl    0.274549 0.987115 0.565005 -0.508529
H1    H     H_    0.389317 0.877428 0.054985 0.198991
H2    H     H_    0.986357 0.620878 0.541486 0.253679
H3    H     H_    0.610682 0.122572 0.945015 0.198991
H4    H     H_    0.390832 0.875028 0.951226 0.195078
H5    H     H_    0.609167 0.124971 0.048774 0.195078
H6    H     H_    0.241902 0.411880 0.789046 0.202820
H7    H     H_    0.758097 0.588119 0.210954 0.202820
H8    H     H_    0.242390 0.414087 0.684943 0.226315
H9    H     H_    0.757608 0.585913 0.315057 0.226315
H10   H     H_    0.013643 0.379122 0.458514 0.253678
N1    N     N_R   0.496093 0.502910 0.147615 -0.341635
N2    N     N_R   0.503906 0.497090 0.852385 -0.341635
N3    N     N_2   0.950330 0.457950 0.484560 -0.138544
N4    N     N_2   0.049670 0.542050 0.515440 -0.138544
O1    O     O_R   0.389250 0.738570 0.503790 -0.587812
O2    O     O_2   0.426620 0.758135 0.852893 -0.482633
O3    O     O_2   0.420652 0.764493 0.151478 -0.495198
O4    O     O_2   0.579348 0.235507 0.848521 -0.495198
O5    O     O_R   0.610750 0.261430 0.496210 -0.587812
O6    O     O_R   0.678390 0.711620 0.493890 -0.595762
O7    O     O_R   0.321610 0.288380 0.506110 -0.595762
O8    O     O_R   0.355400 0.513520 0.588790 -0.593798
O9    O     O_R   0.644600 0.486480 0.411210 -0.593798
O10   O     O_R   0.644550 0.486570 0.578900 -0.595337
O11   O     O_R   0.355450 0.513430 0.421100 -0.595337
O12   O     O_2   0.573379 0.241864 0.147107 -0.482633
Zn1   Zn    Zn3+2 0.306930 0.518000 0.506610 1.081815
Zn2   Zn    Zn3+2 0.693070 0.482000 0.493390 1.081814

loop_
_geom_bond_atom_site_label_1
_geom_bond_atom_site_label_2
_ccdc_geom_bond_type
C25   H4    S    
C26   H5    S    
C2    C4    A    
N4    Zn1   S    
C4    Cl4   S    
C11   N1    A    
C27   C29   A    
O1    Zn1   S    
C6    C27   A    
C5    C23   A    
C3    Cl3   S    
O5    Zn2   S    
C8    C12   S    
C9    O8    A    
C15   O4    S    
C27   H7    S    
C28   C30   A    
C14   O3    S    
C7    Cl5   S    
C13   C21   A    
C7    C8    D    
C29   C31   A    
H2    N4    S    
C1    O6    A    
O7    Zn1   S    
C30   C32   A    
C24   H3    S    
C28   H8    S    
C20   C26   A    
C9    C30   S    
C29   H9    S    
C12   O5    A    
O9    Zn2   S    
C4    C6    A    
C13   N2    A    
C17   C19   A    
C24   C26   A    
O8    Zn1   S    
C11   O12   S    
C18   C20   A    
C8    Cl6   S    
C6    N1    S    
C3    C32   A    
O11   Zn1   S    
C14   C16   A    
C11   C20   A    
C14   N1    A    
C23   C28   A    
C22   H1    S    
C9    O10   A    
C17   C24   A    
C5    N2    S    
O10   Zn2   S    
N3    N4    D    
C16   C18   A    
C13   O2    S    
C15   N2    A    
C15   C17   A    
C1    O1    A    
C18   C19   A    
C21   C25   A    
C19   C21   A    
C2    Cl2   S    
C1    C7    S    
C12   O7    A    
C10   O9    A    
C10   C31   S    
C22   C25   A    
H10   N3    S    
C23   H6    S    
C10   O11   A    
C32   Cl1   S    
C16   C22   A    
C2    C31   A    
C3    C5    A    
N3    Zn2   S    
O6    Zn2   S    
