data_mof_unit_2388.cif
_audit_creation_date              2012-12-11T17:07:33-0500
_audit_creation_method            fapswitch 2.2
_symmetry_space_group_name_H-M    P1
_symmetry_Int_Tables_number       1
_space_group_crystal_system       triclinic
_cell_length_a                    6.966248
_cell_length_b                    14.445895
_cell_length_c                    16.283816
_cell_angle_alpha                 90.148596
_cell_angle_beta                  89.751039
_cell_angle_gamma                 90.263555
_cell_volume                      1638.66221202

loop_
_atom_site_label
_atom_site_type_symbol
_atom_type_description
_atom_site_fract_x
_atom_site_fract_y
_atom_site_fract_z
_atom_type_partial_charge
O1    O     O_R   0.505720 0.583900 0.413310 -0.519405
O2    O     O_R   0.175940 0.594920 0.586080 -0.552373
O3    O     O_R   0.005640 0.416100 0.586690 -0.544035
C1    C     C_R   0.344889 0.616951 0.614827 0.691316
O4    O     O_R   0.176000 0.594930 0.413930 -0.536342
O5    O     O_R   0.005700 0.416110 0.413310 -0.544581
C2    C     C_R   0.345000 0.616754 0.385069 0.710145
O6    O     O_R   0.505660 0.583890 0.586690 -0.541705
O7    O     O_3   0.339200 0.441330 0.500000 -0.377249
V1    V     V_3+5 0.064350 0.510880 0.500000 1.417044
O8    O     O_R   0.675980 0.405080 0.413920 -0.533679
C3    C     C_R   0.845608 0.379140 0.388844 0.737016
O9    O     O_R   0.675920 0.405070 0.586070 -0.548159
C4    C     C_R   0.842941 0.379950 0.612055 0.692225
V2    V     V_3+5 0.564340 0.489120 0.500000 1.450235
O10   O     O_3   0.839360 0.558670 0.500000 -0.368667
H1    H     H_    0.215937 0.104715 0.525554 0.116438
C5    C     C_R   0.598901 0.389137 0.761435 -0.156397
C6    C     C_R   0.542766 0.419007 0.839454 0.531723
C7    C     C_R   0.652362 0.388550 0.906840 -0.314217
C8    C     C_R   0.786901 0.316456 0.896355 0.394644
C9    C     C_R   0.795864 0.270257 0.821028 -0.002548
C10   C     C_R   0.741398 0.320664 0.751191 -0.078357
C11   C     C_R   0.888823 0.183909 0.813226 -0.138069
C12   C     C_R   0.971210 0.161596 0.735666 0.065343
C13   C     C_R   0.957089 0.225410 0.668688 0.077419
C14   C     C_R   0.844161 0.306789 0.676952 -0.139962
C15   C     C_R   0.071801 0.078057 0.723544 -0.157235
C16   C     C_R   0.159591 0.058250 0.648461 -0.128796
C17   C     C_R   0.148292 0.120757 0.583820 -0.120674
C18   C     C_R   0.047666 0.203305 0.593398 -0.142820
H2    H     H_    0.531349 0.422776 0.710353 0.169782
H3    H     H_    0.644242 0.425025 0.964557 0.119214
H4    H     H_    0.084691 0.027609 0.771945 0.103726
H5    H     H_    0.236814 0.993967 0.640399 0.115206
H6    H     H_    0.037784 0.248301 0.540641 0.098504
C19   C     C_R   0.760568 0.252278 0.189621 -0.075218
C20   C     C_R   0.880353 0.174459 0.192465 -0.189714
C21   C     C_R   0.988367 0.162144 0.265761 0.420384
C22   C     C_R   0.981237 0.230697 0.328892 -0.263718
H7    H     H_    0.058016 0.219128 0.385545 0.135128
C23   C     C_R   0.857958 0.307790 0.323598 -0.224648
C24   C     C_R   0.747675 0.315721 0.253431 0.098392
C25   C     C_3   0.535543 0.323949 0.245914 0.331097
C26   C     C_3   0.550709 0.257866 0.173165 -0.447165
H8    H     H_    0.457214 0.297305 0.300635 0.053490
H9    H     H_    0.518713 0.290280 0.113071 0.175278
H10   H     H_    0.478929 0.191167 0.183287 0.151306
C27   C     C_R   0.495938 0.679323 0.745137 0.179898
C28   C     C_R   0.353025 0.683321 0.684749 -0.172059
C29   C     C_R   0.206962 0.749544 0.697354 -0.209541
H11   H     H_    0.088180 0.753897 0.654951 0.128574
C30   C     C_R   0.216850 0.813679 0.763117 -0.189630
H12   H     H_    0.104729 0.864676 0.769237 0.120701
C31   C     C_R   0.374916 0.814878 0.817347 -0.107195
C32   C     C_R   0.507307 0.743567 0.808043 0.044215
C33   C     C_3   0.720140 0.739733 0.811592 -0.465225
C34   C     C_3   0.708340 0.665688 0.744124 0.320658
H13   H     H_    0.771796 0.713674 0.871730 0.191687
H14   H     H_    0.787483 0.805270 0.790335 0.134305
H15   H     H_    0.775381 0.683869 0.684010 0.044726
C35   C     C_R   0.501483 0.751904 0.312462 -0.081266
C36   C     C_R   0.352582 0.687462 0.318693 -0.104175
C37   C     C_R   0.211345 0.691150 0.257562 -0.170593
H16   H     H_    0.104505 0.637542 0.255857 0.189436
C38   C     C_R   0.220793 0.756391 0.193038 -0.141789
H17   H     H_    0.113243 0.753452 0.145306 0.122988
C39   C     C_R   0.375496 0.819655 0.186716 -0.143104
C40   C     C_R   0.508153 0.820612 0.251700 -0.024827
C41   C     C_3   0.724138 0.820585 0.250271 0.273461
C42   C     C_3   0.714435 0.738228 0.310298 0.215935
H18   H     H_    0.784511 0.803313 0.189003 0.091992
H19   H     H_    0.779598 0.749498 0.371413 0.094678
O11   O     O_R   0.229140 0.916090 0.913340 -0.546149
O12   O     O_R   0.558860 0.905090 0.086080 -0.539453
O13   O     O_R   0.729100 0.083920 0.086690 -0.535777
C43   C     C_R   0.389617 0.884236 0.115689 0.679425
O14   O     O_R   0.558860 0.905090 0.913930 -0.541034
O15   O     O_R   0.729100 0.083920 0.913310 -0.544265
C44   C     C_R   0.389730 0.883974 0.884643 0.700699
O16   O     O_R   0.229140 0.916080 0.086720 -0.539176
O17   O     O_3   0.395570 0.058660 0.000020 -0.372462
V3    V     V_3+5 0.670450 0.989140 0.000000 1.421313
O18   O     O_R   0.058810 0.094980 0.913910 -0.528807
C45   C     C_R   0.891799 0.117032 0.884622 0.733864
O19   O     O_R   0.058810 0.094980 0.086060 -0.553785
C46   C     C_R   0.890575 0.109052 0.120565 0.756930
V4    V     V_3+5 0.170450 0.010950 0.999970 1.424195
O20   O     O_3   0.895460 0.941370 0.999990 -0.375874
O21   O     O_3   0.485278 0.414559 0.223975 -0.556905
C47   C     C_3   0.287561 0.419988 0.205687 0.101245
H20   H     H_    0.215034 0.462417 0.253462 0.133946
H21   H     H_    0.211765 0.351731 0.202648 0.112610
C48   C     C_3   0.268078 0.466950 0.123051 -0.808083
H22   H     H_    0.366614 0.433113 0.078856 0.225155
H23   H     H_    0.120037 0.460048 0.099915 0.199140
H24   H     H_    0.305832 0.541474 0.127771 0.210386
O22   O     O_3   0.750740 0.576995 0.774520 -0.540480
C49   C     C_3   0.949087 0.560885 0.770112 -0.210587
H25   H     H_    0.033117 0.616941 0.800262 0.153452
H26   H     H_    0.993472 0.551533 0.705564 0.163060
H27   H     H_    0.980230 0.495207 0.802391 0.179751
O23   O     O_3   0.806322 0.905381 0.279318 -0.532868
C50   C     C_3   0.769781 0.926102 0.363116 -0.182183
H28   H     H_    0.877863 0.892155 0.402683 0.125196
H29   H     H_    0.621663 0.908693 0.383336 0.099438
H30   H     H_    0.786668 0.001534 0.372886 0.194050
O24   O     O_3   0.777839 0.652019 0.276892 -0.561532
C51   C     C_3   0.678160 0.619266 0.206601 0.129403
H31   H     H_    0.630395 0.674072 0.164085 0.085956
H32   H     H_    0.551461 0.579363 0.226740 0.195745
C52   C     C_3   0.806475 0.554847 0.157772 -0.726633
H33   H     H_    0.862653 0.499642 0.198273 0.235682
H34   H     H_    0.723337 0.522529 0.107133 0.194854
H35   H     H_    0.927674 0.594739 0.130821 0.193197
O25   O     O_3   0.408416 0.490229 0.842695 -0.545414
C53   C     C_3   0.319788 0.498659 0.920138 -0.271752
H36   H     H_    0.417300 0.534157 0.963964 0.145763
H37   H     H_    0.268655 0.430392 0.943146 0.179075
H38   H     H_    0.192201 0.543527 0.914388 0.159944
O26   O     O_3   0.950868 0.311743 0.943893 -0.557791
C54   C     C_3   0.903079 0.307037 0.026774 -0.263150
H39   H     H_    0.861309 0.375607 0.051423 0.142374
H40   H     H_    0.032031 0.284548 0.060896 0.165840
H41   H     H_    0.786828 0.255480 0.035436 0.145639
O27   O     O_3   0.045704 0.074092 0.287791 -0.550912
C55   C     C_3   0.235488 0.056321 0.262996 0.157828
H42   H     H_    0.271715 0.087155 0.202990 0.097338
H43   H     H_    0.247961 0.980644 0.254493 0.167036
C56   C     C_3   0.378403 0.084374 0.329219 -0.820386
H44   H     H_    0.358534 0.040166 0.384311 0.221195
H45   H     H_    0.526455 0.075846 0.305173 0.214676
H46   H     H_    0.359066 0.157499 0.347297 0.206887

loop_
_geom_bond_atom_site_label_1
_geom_bond_atom_site_label_2
_ccdc_geom_bond_type
C38   C39   A    
C31   C32   A    
O27   C55   S    
C56   H45   S    
C6    C7    A    
C34   O22   S    
C1    O6    A    
C52   H34   S    
O21   C47   S    
C30   H12   S    
O24   C51   S    
C12   C15   A    
C13   C14   A    
C35   C36   A    
C8    C9    A    
C15   C16   A    
C19   C20   A    
C53   H37   S    
O5    C3    A    
C17   C18   A    
O19   V4    S    
C33   H13   S    
V2    O10   S    
O25   C53   S    
C5    C6    A    
C52   H33   S    
C3    C23   S    
O1    C2    A    
O8    V2    S    
O14   V3    S    
C39   C40   A    
C41   C42   S    
O1    V2    S    
C10   C14   A    
C4    C14   S    
C11   C45   S    
V4    O20   S    
C34   H15   S    
C26   H9    S    
C38   H17   S    
C15   H4    S    
C13   C18   A    
C21   O27   S    
O11   C44   A    
O9    C4    A    
H1    C17   S    
C48   H22   S    
O13   V3    S    
C50   H29   S    
C50   H28   S    
C25   H8    S    
C30   C31   A    
V3    O20   S    
C29   H11   S    
C11   C12   A    
C53   H38   S    
C47   H20   S    
C42   H19   S    
C41   O23   S    
C33   H14   S    
C48   H24   S    
C12   C13   A    
O17   V3    S    
C27   C34   S    
C5    C10   A    
C35   C40   A    
C1    C28   S    
C29   C30   A    
C37   C38   A    
C19   C24   A    
O2    C1    A    
C24   C25   S    
C55   H43   S    
C16   C17   A    
C47   H21   S    
C49   H25   S    
C43   O16   A    
C28   C29   A    
O18   C45   A    
C48   H23   S    
O12   C43   A    
O13   C46   A    
C2    C36   S    
O26   C54   S    
O3    C4    A    
C7    H3    S    
C22   H7    S    
C49   H26   S    
O22   C49   S    
O6    V2    S    
O9    V2    S    
C9    C11   A    
C51   C52   S    
C56   H46   S    
C5    H2    S    
C23   C24   A    
C19   C26   S    
C55   H42   S    
O2    V1    S    
O15   C45   A    
C25   O21   S    
C25   C26   S    
O4    C2    A    
O7    V1    S    
C26   H10   S    
C39   C43   S    
C32   C33   S    
O19   C46   A    
C9    C10   A    
O18   V4    S    
O5    V1    S    
O8    C3    A    
C27   C32   A    
C16   H5    S    
C20   C46   S    
C37   H16   S    
C54   H41   S    
C51   H32   S    
C56   H44   S    
O7    V2    S    
C55   C56   S    
O4    V1    S    
O3    V1    S    
V1    O10   S    
C53   H36   S    
C47   C48   S    
O15   V3    S    
C31   C44   S    
O12   V3    S    
C33   C34   S    
C20   C21   A    
C6    O25   S    
O17   V4    S    
C22   C23   A    
C35   C42   S    
O14   C44   A    
C52   H35   S    
C8    O26   S    
C40   C41   S    
O16   V4    S    
C36   C37   A    
C21   C22   A    
C49   H27   S    
C7    C8    A    
C27   C28   A    
O23   C50   S    
C18   H6    S    
C41   H18   S    
O11   V4    S    
C54   H39   S    
C51   H31   S    
C54   H40   S    
C50   H30   S    
C42   O24   S    
