data_mof_unit_4688.cif
_audit_creation_date              2012-12-10T16:51:15-0500
_audit_creation_method            fapswitch 2.2
_symmetry_space_group_name_H-M    P1
_symmetry_Int_Tables_number       1
_space_group_crystal_system       triclinic
_cell_length_a                    27.773119
_cell_length_b                    8.712493
_cell_length_c                    7.480054
_cell_angle_alpha                 102.794917
_cell_angle_beta                  94.982439
_cell_angle_gamma                 92.837706
_cell_volume                      1753.95167236

loop_
_atom_site_label
_atom_site_type_symbol
_atom_type_description
_atom_site_fract_x
_atom_site_fract_y
_atom_site_fract_z
_atom_type_partial_charge
C1    C     C_R   0.497968 0.200364 0.454449 0.835590
C2    C     C_R   0.502032 0.799636 0.545548 0.835707
C3    C     C_R   0.102293 0.508592 0.510030 -0.119247
C4    C     C_R   0.897603 0.488138 0.489444 -0.119278
C5    C     C_R   0.125548 0.374071 0.426605 -0.109628
C6    C     C_R   0.874355 0.622696 0.572792 -0.109537
C7    C     C_R   0.097297 0.239162 0.325776 0.464100
C8    C     C_R   0.902603 0.757536 0.673799 0.464182
C9    C     C_R   0.130395 0.648816 0.594667 -0.074736
C10   C     C_R   0.869493 0.347942 0.404747 -0.074858
C11   C     C_R   0.354785 0.515627 0.506141 -0.189711
C12   C     C_R   0.645184 0.483628 0.493682 -0.189760
C13   C     C_R   0.971839 0.353157 0.421666 -0.003248
C14   C     C_R   0.028055 0.643509 0.577993 -0.003318
C15   C     C_R   0.976868 0.634022 0.582099 0.016675
C16   C     C_R   0.023029 0.362631 0.417578 0.016759
C17   C     C_R   0.948897 0.492310 0.495179 -0.006382
C18   C     C_R   0.050998 0.504370 0.504427 -0.006333
C19   C     C_R   0.942997 0.207552 0.362913 0.438751
C20   C     C_R   0.056889 0.789126 0.636755 0.438711
C21   C     C_R   0.892277 0.209369 0.344213 -0.259902
C22   C     C_R   0.107607 0.787352 0.655323 -0.259765
C23   C     C_R   0.407607 0.505179 0.501664 0.852468
C24   C     C_R   0.592387 0.494727 0.498318 0.852440
C25   C     C_R   0.046919 0.238484 0.315326 -0.218754
C26   C     C_R   0.952979 0.758141 0.684404 -0.218673
C27   C     C_2   0.490482 0.034326 0.433849 0.128182
C28   C     C_2   0.509519 0.965670 0.566132 0.128215
C29   C     C_R   0.176565 0.381809 0.439302 0.623722
C30   C     C_R   0.823339 0.615067 0.559859 0.623157
C31   C     C_R   0.181100 0.650729 0.603330 0.655142
C32   C     C_R   0.818783 0.346114 0.395918 0.655467
C33   C     C_R   0.275334 0.568893 0.375963 0.376135
C34   C     C_R   0.724501 0.428415 0.622975 0.376075
C35   C     C_R   0.325576 0.565171 0.366889 0.321516
C36   C     C_R   0.674305 0.433323 0.632586 0.321379
C37   C     C_R   0.333051 0.476334 0.654379 -0.167498
C38   C     C_R   0.666958 0.522743 0.345429 -0.167308
C39   C     C_R   0.283314 0.481054 0.662656 -0.093917
C40   C     C_R   0.716659 0.517027 0.336743 -0.093744
C41   C     C_R   0.254393 0.525679 0.523403 0.185082
C42   C     C_R   0.745494 0.471468 0.475540 0.185188
Cu1   Cu    Cu3+1 0.505380 0.517380 0.684380 1.201324
Cu2   Cu    Cu3+1 0.494620 0.482620 0.315620 1.201295
H1    H     H_    0.354430 0.438982 0.762963 0.244470
H2    H     H_    0.645650 0.560811 0.237196 0.244283
H3    H     H_    0.267023 0.447298 0.775934 0.213334
H4    H     H_    0.732993 0.550854 0.223571 0.213068
H5    H     H_    0.870316 0.099625 0.295625 0.197840
H6    H     H_    0.129555 0.897119 0.703901 0.197858
H7    H     H_    0.027197 0.142173 0.216795 0.177888
H8    H     H_    0.972700 0.854370 0.783066 0.177820
N1    N     N_R   0.202871 0.518514 0.526222 -0.454805
N2    N     N_R   0.797021 0.478404 0.472862 -0.454844
N3    N     N_2   0.486510 0.456430 0.038510 0.136125
N4    N     N_2   0.513490 0.543570 0.961490 0.136156
O1    O     O_R   0.503500 0.286120 0.619780 -0.539761
O2    O     O_R   0.496500 0.713880 0.380220 -0.539780
O3    O     O_R   0.494410 0.256780 0.308360 -0.526198
O4    O     O_R   0.505590 0.743220 0.691640 -0.526173
O5    O     O_R   0.434810 0.514700 0.655690 -0.568187
O6    O     O_R   0.565190 0.485300 0.344310 -0.568141
O7    O     O_R   0.425720 0.485350 0.344280 -0.520572
O8    O     O_R   0.574280 0.514650 0.655720 -0.520490
O9    O     O_2   0.200014 0.254742 0.364874 -0.441779
O10   O     O_2   0.799904 0.742203 0.634157 -0.442068
O11   O     O_2   0.791368 0.212776 0.313705 -0.468764
O12   O     O_2   0.208502 0.784092 0.685548 -0.468912
Cl1   Cl    Cl    0.443989 0.316018 0.907407 -0.394754
Cl2   Cl    Cl    0.556019 0.683957 0.092593 -0.394523
O13   O     O_3   0.118434 0.115928 0.217100 -0.563018
C43   C     C_3   0.114697 0.982727 0.294351 -0.182046
H9    H     H_    0.076328 0.937812 0.290137 0.156226
H10   H     H_    0.132557 0.009439 0.437760 0.182982
H11   H     H_    0.133827 0.887030 0.211921 0.216965
O14   O     O_3   0.881462 0.880734 0.782520 -0.563006
C44   C     C_3   0.885261 0.014048 0.705497 -0.181932
H12   H     H_    0.867426 0.987519 0.562058 0.183030
H13   H     H_    0.923644 0.058887 0.709866 0.156228
H14   H     H_    0.866139 0.109726 0.788000 0.216853
Cl3   Cl    Cl    0.649237 0.370522 0.816224 -0.444320
Cl4   Cl    Cl    0.350598 0.628843 0.183727 -0.444364
Cl5   Cl    Cl    0.761834 0.370627 0.796730 -0.522121
Cl6   Cl    Cl    0.237897 0.625649 0.201745 -0.522744
O15   O     O_3   0.964320 0.066167 0.363129 -0.571013
C45   C     C_3   0.946862 0.946639 0.207127 -0.305806
H15   H     H_    0.940958 0.993129 0.080464 0.176791
H16   H     H_    0.913361 0.883650 0.233146 0.191645
H17   H     H_    0.974499 0.858685 0.182176 0.186268
O16   O     O_3   0.035559 0.930525 0.636724 -0.571019
C46   C     C_3   0.052996 0.049896 0.792911 -0.305673
H18   H     H_    0.086476 0.113066 0.767001 0.191830
H19   H     H_    0.058929 0.003197 0.919416 0.176806
H20   H     H_    0.025331 0.137736 0.818091 0.186115
Cl7   Cl    Cl    0.449275 0.936714 0.242419 -0.432795
Cl8   Cl    Cl    0.550741 0.063270 0.757508 -0.432639

loop_
_geom_bond_atom_site_label_1
_geom_bond_atom_site_label_2
_ccdc_geom_bond_type
N3    N4    D    
C8    C26   A    
C14   C18   A    
C27   Cl7   S    
C34   C42   A    
C21   H5    S    
C39   C41   A    
O15   C45   S    
C30   N2    A    
C19   C21   A    
C1    O1    A    
C1    O3    A    
C7    O13   S    
C2    O4    A    
C9    C22   A    
Cu2   O3    S    
C8    O14   S    
C3    C18   A    
C40   H4    S    
C11   C37   A    
Cu2   O2    S    
C12   C36   A    
C34   C36   A    
C22   H6    S    
C23   O7    A    
C24   O8    A    
C43   H11   S    
C19   O15   S    
C32   N2    A    
C35   Cl4   S    
Cu1   O8    S    
C5    C29   A    
C44   H13   S    
C10   C21   A    
C31   O12   S    
C13   C19   A    
C14   C20   A    
O14   C44   S    
C43   H10   S    
C46   H18   S    
C5    C7    A    
Cu1   O1    S    
C45   H15   S    
C15   C26   A    
C6    C8    A    
Cu2   O6    S    
C44   H12   S    
C20   O16   S    
Cu1   Cu2   S    
C25   H7    S    
C3    C9    A    
C26   H8    S    
C46   H19   S    
C40   C42   A    
C36   Cl3   S    
N3    Cl1   S    
C31   N1    A    
C41   N1    S    
C30   O10   S    
Cu1   O4    S    
C32   O11   S    
C29   O9    S    
C4    C17   A    
C4    C6    A    
C6    C30   A    
C20   C22   A    
N4    Cl2   S    
C34   Cl5   S    
C4    C10   A    
Cu1   O5    S    
C39   H3    S    
C44   H14   S    
C16   C25   A    
C15   C17   A    
C24   O6    A    
C43   H9    S    
C3    C5    A    
C45   H17   S    
C2    O2    A    
C12   C24   S    
C7    C25   A    
C13   C17   A    
C28   Cl8   S    
C33   C41   A    
C11   C35   A    
O13   C43   S    
C37   C39   A    
C42   N2    S    
C46   H20   S    
C38   C40   A    
Cu2   N3    S    
O16   C46   S    
C29   N1    A    
C11   C23   S    
C33   C35   A    
C45   H16   S    
C12   C38   A    
C33   Cl6   S    
C38   H2    S    
C9    C31   A    
C10   C32   A    
Cu1   N4    S    
C23   O5    A    
C16   C18   A    
Cu2   O7    S    
C13   C16   A    
C27   C28   D    
C1    C27   S    
C14   C15   A    
C2    C28   S    
C37   H1    S    
