data_mof_unit_4138.cif
_audit_creation_date              2013-03-05T15:40:28-0500
_audit_creation_method            fapswitch 2.2
_symmetry_space_group_name_H-M    P1
_symmetry_Int_Tables_number       1
_space_group_crystal_system       triclinic
_cell_length_a                    19.073358
_cell_length_b                    11.001772
_cell_length_c                    18.668394
_cell_angle_alpha                 89.971917
_cell_angle_beta                  90.354692
_cell_angle_gamma                 89.966212
_cell_volume                      3917.3133155

loop_
_atom_site_label
_atom_site_type_symbol
_atom_site_description
_atom_site_fract_x
_atom_site_fract_y
_atom_site_fract_z
_atom_type_partial_charge
O1    O     O_R   0.215090 0.709860 0.828130 -0.493235
O2    O     O_R   0.784910 0.709860 0.171870 -0.441662
O3    O     O_R   0.715090 0.209860 0.828130 -0.491523
O4    O     O_R   0.284910 0.209860 0.171870 -0.443339
O5    O     O_R   0.236990 0.958390 0.823710 -0.503030
O6    O     O_R   0.763010 0.958390 0.176290 -0.515103
O7    O     O_R   0.736990 0.458390 0.823710 -0.505926
O8    O     O_R   0.263010 0.458390 0.176290 -0.512309
C1    C     C_R   0.271504 0.041508 0.853989 0.598507
C2    C     C_R   0.728683 0.041902 0.146277 0.612338
C3    C     C_R   0.771487 0.541546 0.853971 0.600757
C4    C     C_R   0.228666 0.541866 0.146258 0.610114
O9    O     O_R   0.332380 0.074750 0.830850 -0.451251
O10   O     O_R   0.667620 0.074750 0.169150 -0.448843
O11   O     O_R   0.832380 0.574750 0.830850 -0.448061
O12   O     O_R   0.167620 0.574750 0.169150 -0.451956
O13   O     O_R   0.445800 0.917770 0.825070 -0.466551
O14   O     O_R   0.554200 0.917770 0.174930 -0.463316
O15   O     O_R   0.945800 0.417770 0.825070 -0.462025
O16   O     O_R   0.054200 0.417770 0.174930 -0.467914
C5    C     C_R   0.472263 0.822913 0.853238 0.524586
C6    C     C_R   0.527663 0.822659 0.146722 0.534632
C7    C     C_R   0.972199 0.322906 0.853297 0.525077
C8    C     C_R   0.027599 0.322665 0.146780 0.534127
O17   O     O_R   0.456410 0.716580 0.829970 -0.476590
O18   O     O_R   0.543590 0.716580 0.170030 -0.476885
O19   O     O_R   0.956410 0.216580 0.829970 -0.477669
O20   O     O_R   0.043590 0.216580 0.170030 -0.475730
O21   O     O_R   0.321080 0.625290 0.822650 -0.491302
O22   O     O_R   0.678920 0.625290 0.177350 -0.506764
O23   O     O_R   0.821080 0.125290 0.822650 -0.490218
O24   O     O_R   0.178920 0.125290 0.177350 -0.507844
C9    C     C_R   0.260639 0.632805 0.850798 0.543164
C10   C     C_R   0.739616 0.632882 0.149477 0.611936
C11   C     C_R   0.760637 0.132803 0.850800 0.546391
C12   C     C_R   0.239613 0.132885 0.149478 0.608772
O25   O     O_R   0.214930 0.711450 0.668160 -0.535962
O26   O     O_R   0.785070 0.711450 0.331840 -0.533803
O27   O     O_R   0.714930 0.211450 0.668160 -0.531437
O28   O     O_R   0.285070 0.211450 0.331840 -0.538258
O29   O     O_R   0.236850 0.959870 0.675420 -0.523480
O30   O     O_R   0.763150 0.959870 0.324580 -0.523225
O31   O     O_R   0.736850 0.459870 0.675420 -0.521429
O32   O     O_R   0.263150 0.459870 0.324580 -0.525377
C13   C     C_R   0.270488 0.049684 0.650526 0.561316
C14   C     C_R   0.728868 0.048073 0.350271 0.560177
C15   C     C_R   0.771131 0.548094 0.649731 0.561339
C16   C     C_R   0.229508 0.549663 0.349477 0.560085
O33   O     O_R   0.332230 0.076350 0.670880 -0.433776
O34   O     O_R   0.667770 0.076350 0.329120 -0.448531
O35   O     O_R   0.832230 0.576350 0.670880 -0.446230
O36   O     O_R   0.167770 0.576350 0.329120 -0.436005
O37   O     O_R   0.445660 0.919250 0.676780 -0.494581
O38   O     O_R   0.554340 0.919250 0.323220 -0.481423
O39   O     O_R   0.945660 0.419250 0.676780 -0.480667
O40   O     O_R   0.054340 0.419250 0.323220 -0.495372
C17   C     C_R   0.472643 0.824393 0.649511 0.576537
C18   C     C_R   0.566596 0.817941 0.358650 0.559821
C19   C     C_R   0.933397 0.318019 0.641350 0.559225
C20   C     C_R   0.027359 0.324406 0.350488 0.576974
O41   O     O_R   0.456260 0.718170 0.670000 -0.469492
O42   O     O_R   0.543740 0.718170 0.330000 -0.470922
O43   O     O_R   0.956260 0.218170 0.670000 -0.470613
O44   O     O_R   0.043740 0.218170 0.330000 -0.469718
O45   O     O_R   0.320940 0.626760 0.674370 -0.467987
O46   O     O_R   0.679060 0.626760 0.325630 -0.464125
O47   O     O_R   0.820940 0.126760 0.674370 -0.461885
O48   O     O_R   0.179060 0.126760 0.325630 -0.470227
C21   C     C_R   0.260459 0.638309 0.645577 0.624643
C22   C     C_R   0.740010 0.637344 0.353775 0.628605
C23   C     C_R   0.759993 0.137326 0.646236 0.630644
C24   C     C_R   0.239544 0.138320 0.354432 0.622705
Cr1   Cr    Cr6+3 0.230530 0.836340 0.748870 1.059582
Cr2   Cr    Cr6+3 0.769470 0.836340 0.251130 1.068823
Cr3   Cr    Cr6+3 0.730530 0.336340 0.748870 1.060168
Cr4   Cr    Cr6+3 0.269470 0.336340 0.251130 1.068123
Cr5   Cr    Cr6+3 0.387420 0.989430 0.750820 1.114638
Cr6   Cr    Cr6+3 0.612580 0.989430 0.249180 1.104885
Cr7   Cr    Cr6+3 0.887420 0.489430 0.750820 1.106561
Cr8   Cr    Cr6+3 0.112580 0.489430 0.249180 1.112975
Cr9   Cr    Cr6+3 0.385640 0.677860 0.749230 1.117348
Cr10  Cr    Cr6+3 0.614360 0.677860 0.250770 1.110097
Cr11  Cr    Cr6+3 0.885640 0.177860 0.749230 1.111485
Cr12  Cr    Cr6+3 0.114360 0.177860 0.250770 1.116052
O49   O     O_3   0.334530 0.834540 0.749640 -0.304087
O50   O     O_3   0.665470 0.834540 0.250360 -0.333585
O51   O     O_3   0.834530 0.334540 0.749640 -0.330036
O52   O     O_3   0.165470 0.334540 0.250360 -0.307608
C25   C     C_R   0.494410 0.833746 0.074867 -0.104765
C26   C     C_R   0.505482 0.835555 0.924900 -0.092036
C27   C     C_R   0.994157 0.333785 0.075031 -0.102335
C28   C     C_R   0.005234 0.335510 0.925064 -0.094528
C29   C     C_R   0.492656 0.947177 0.038064 -0.064286
C30   C     C_R   0.503837 0.948604 0.962406 -0.048966
C31   C     C_R   0.992441 0.447190 0.038225 -0.064259
C32   C     C_R   0.003624 0.448588 0.962566 -0.049112
C33   C     C_R   0.511552 0.727395 0.964117 0.280763
C34   C     C_R   0.491578 0.725916 0.034947 0.271755
C35   C     C_R   0.011132 0.227334 0.964317 0.280027
C36   C     C_R   0.991145 0.225961 0.035144 0.272376
C37   C     C_R   0.479424 0.059310 0.074039 0.300280
C38   C     C_R   0.513167 0.063178 0.927410 0.262857
C39   C     C_R   0.979293 0.559331 0.074222 0.300273
C40   C     C_R   0.013041 0.563161 0.927592 0.263030
C41   C     C_R   0.988030 0.668772 0.037979 0.022584
C42   C     C_R   0.004033 0.670665 0.965768 -0.009114
C43   C     C_R   0.488096 0.168761 0.037786 0.022495
C44   C     C_R   0.504096 0.170673 0.965574 -0.009041
H1    H     H_    0.980874 0.753888 0.065838 0.190150
H2    H     H_    0.010698 0.757292 0.939243 0.193173
H3    H     H_    0.480870 0.253869 0.065632 0.190054
H4    H     H_    0.510691 0.257308 0.939037 0.193254
C45   C     C_2   0.248800 0.565580 0.918993 0.218099
C46   C     C_2   0.753619 0.563595 0.083287 0.229477
C47   C     C_2   0.748791 0.065584 0.919003 0.219186
C48   C     C_2   0.253601 0.063585 0.083296 0.228219
C49   C     C_2   0.258882 0.587169 0.078550 0.251402
C50   C     C_2   0.742202 0.585428 0.922531 0.203526
C51   C     C_2   0.758903 0.087195 0.078564 0.251825
C52   C     C_2   0.242227 0.085398 0.922545 0.203191
C53   C     C_2   0.301144 0.512259 0.037458 -0.012005
C54   C     C_2   0.700842 0.509498 0.963882 -0.044621
C55   C     C_2   0.801159 0.012264 0.037475 -0.012075
C56   C     C_2   0.200858 0.009489 0.963896 -0.044543
C57   C     C_2   0.304198 0.522015 0.957226 0.027896
C58   C     C_2   0.699046 0.516963 0.044435 -0.030259
C59   C     C_2   0.804176 0.021946 0.957225 0.027733
C60   C     C_2   0.199013 0.017040 0.044430 -0.029990
C61   C     C_2   0.513604 0.836447 0.584252 -0.097100
C62   C     C_2   0.567438 0.823581 0.437438 -0.173279
C63   C     C_2   0.932550 0.323726 0.562559 -0.173642
C64   C     C_2   0.986412 0.336498 0.415749 -0.096473
C65   C     C_2   0.559117 0.726127 0.481561 -0.020073
C66   C     C_2   0.553083 0.743750 0.560028 0.013305
C67   C     C_2   0.946895 0.243923 0.439995 0.013531
C68   C     C_2   0.940861 0.226272 0.518467 -0.020185
H5    H     H_    0.577484 0.912575 0.460492 0.090195
H6    H     H_    0.497726 0.910183 0.549031 0.094044
H7    H     H_    0.002312 0.410155 0.450953 0.093973
H8    H     H_    0.922508 0.412757 0.539474 0.090244
C69   C     C_2   0.250708 0.604713 0.571926 0.241496
C70   C     C_2   0.751225 0.602804 0.426817 0.261595
C71   C     C_2   0.748773 0.102769 0.573215 0.260287
C72   C     C_2   0.249287 0.104742 0.428103 0.242857
C73   C     C_2   0.258838 0.608181 0.412063 -0.035769
C74   C     C_2   0.744132 0.600667 0.584826 -0.028039
C75   C     C_2   0.755844 0.100536 0.415179 -0.027555
C76   C     C_2   0.241124 0.108318 0.587947 -0.036098
C77   C     C_2   0.221253 0.685605 0.450986 0.225553
C78   C     C_2   0.779393 0.683481 0.547945 0.214721
C79   C     C_2   0.720574 0.183414 0.452017 0.215149
C80   C     C_2   0.278692 0.185670 0.548973 0.225088
C81   C     C_2   0.239115 0.699050 0.526405 -0.149443
C82   C     C_2   0.761979 0.697154 0.472564 -0.162848
C83   C     C_2   0.737986 0.197101 0.527395 -0.162871
C84   C     C_2   0.260808 0.199100 0.473556 -0.149376
H9    H     H_    0.238318 0.791711 0.546728 0.120030
H10   H     H_    0.760015 0.790343 0.453008 0.121048
H11   H     H_    0.739915 0.290292 0.546889 0.121233
H12   H     H_    0.261535 0.291758 0.453174 0.119883
H13   H     H_    0.306933 0.569595 0.434132 0.115049
H14   H     H_    0.700433 0.553773 0.559694 0.134151
H15   H     H_    0.799547 0.053556 0.440333 0.134282
H16   H     H_    0.193024 0.069831 0.565910 0.115091
O53   O     O_3   0.532110 0.620013 0.932963 -0.551812
H17   H     H_    0.560634 0.640749 0.890431 0.343906
O54   O     O_3   0.473539 0.616505 0.065259 -0.552287
H18   H     H_    0.443670 0.634378 0.107236 0.342196
O55   O     O_3   0.031671 0.119883 0.933235 -0.551632
H19   H     H_    0.060351 0.140526 0.890802 0.343172
O56   O     O_3   0.973053 0.116624 0.065519 -0.552471
H20   H     H_    0.943351 0.134622 0.107608 0.342840
O57   O     O_3   0.164932 0.747953 0.421715 -0.610075
H21   H     H_    0.143224 0.797616 0.459987 0.349407
O58   O     O_3   0.831445 0.752965 0.579581 -0.595051
H22   H     H_    0.852150 0.805812 0.542214 0.369848
O59   O     O_3   0.668527 0.252998 0.420328 -0.595726
H23   H     H_    0.647812 0.305884 0.457660 0.369947
O60   O     O_3   0.335033 0.247891 0.578176 -0.609380
H24   H     H_    0.356727 0.297493 0.539859 0.349400
O61   O     O_3   0.246666 0.482976 0.554337 -0.695651
H25   H     H_    0.214180 0.473420 0.513206 0.308346
O62   O     O_3   0.759871 0.481130 0.443056 -0.678821
H26   H     H_    0.794146 0.473551 0.482838 0.296942
O63   O     O_3   0.740163 0.981098 0.557066 -0.678882
H27   H     H_    0.705891 0.973539 0.517288 0.297053
O64   O     O_3   0.253419 0.983009 0.445774 -0.695699
H28   H     H_    0.285880 0.973467 0.486936 0.308264
O65   O     O_3   0.452361 0.066351 0.142337 -0.647216
H29   H     H_    0.427051 0.989839 0.152824 0.339059
O66   O     O_3   0.537095 0.075252 0.858096 -0.689951
H30   H     H_    0.564466 0.001752 0.845599 0.331021
O67   O     O_3   0.952280 0.566394 0.142545 -0.646874
H31   H     H_    0.926998 0.489874 0.153084 0.341080
O68   O     O_3   0.037009 0.575223 0.858297 -0.690263
H32   H     H_    0.064399 0.501727 0.845840 0.329386
C85   C     C_2   0.345366 0.414192 0.070387 0.622585
O69   O     O_2   0.346718 0.313326 0.043435 -0.429733
O70   O     O_R   0.387118 0.438461 0.130588 -0.667837
H33   H     H_    0.413068 0.364131 0.148814 0.350251
C86   C     C_2   0.655556 0.413030 0.930885 0.639661
O71   O     O_2   0.652798 0.312537 0.958174 -0.474635
O72   O     O_R   0.613689 0.438624 0.870940 -0.657137
H34   H     H_    0.585805 0.365637 0.853904 0.347728
C87   C     C_2   0.845381 0.914215 0.070435 0.623211
O73   O     O_2   0.846741 0.813335 0.043502 -0.429632
O74   O     O_R   0.887077 0.938487 0.130682 -0.671547
H35   H     H_    0.912988 0.864155 0.148962 0.351579
C88   C     C_2   0.155574 0.913000 0.930931 0.638958
O75   O     O_2   0.152822 0.812525 0.958245 -0.474740
O76   O     O_R   0.113653 0.938587 0.871030 -0.653383
H36   H     H_    0.085732 0.865604 0.854050 0.346461
C89   C     C_2   0.364717 0.464503 0.919441 0.628053
O77   O     O_2   0.423639 0.470438 0.944994 -0.418229
O78   O     O_R   0.353129 0.397047 0.856931 -0.634206
H37   H     H_    0.397805 0.360034 0.837417 0.345070
C90   C     C_2   0.639117 0.458420 0.082750 0.647268
O79   O     O_2   0.579934 0.463104 0.057691 -0.408686
O80   O     O_R   0.651554 0.392603 0.145749 -0.636267
H38   H     H_    0.607275 0.355102 0.165828 0.344297
C91   C     C_2   0.864601 0.964216 0.919396 0.628239
O81   O     O_2   0.923536 0.969825 0.944943 -0.418589
O82   O     O_R   0.852898 0.896923 0.856845 -0.630207
H39   H     H_    0.897511 0.859737 0.837297 0.345253
C92   C     C_2   0.138971 0.958745 0.082687 0.647125
O83   O     O_2   0.079807 0.963782 0.057603 -0.408176
O84   O     O_R   0.151270 0.892749 0.145647 -0.640523
H40   H     H_    0.106917 0.855434 0.165677 0.344010
O85   O     O_3   0.237183 0.700382 0.055564 -0.615862
H41   H     H_    0.272152 0.731622 0.021026 0.310121
O86   O     O_3   0.764807 0.697465 0.946331 -0.611118
H42   H     H_    0.730058 0.728570 0.981143 0.332985
O87   O     O_3   0.737202 0.200399 0.055566 -0.614870
H43   H     H_    0.772169 0.231625 0.021022 0.310257
O88   O     O_3   0.264828 0.197444 0.946333 -0.612006
H44   H     H_    0.230074 0.228564 0.981136 0.332877
O89   O     O_3   0.183251 0.562020 0.949666 -0.672563
H45   H     H_    0.149962 0.598808 0.915621 0.379895
O90   O     O_3   0.821159 0.566429 0.057082 -0.630406
H46   H     H_    0.827167 0.497525 0.023416 0.309367
O91   O     O_3   0.683246 0.062079 0.949685 -0.672173
H47   H     H_    0.649962 0.098817 0.915620 0.380091
O92   O     O_3   0.321144 0.066362 0.057096 -0.630691
H48   H     H_    0.327150 0.997360 0.023490 0.309109
C93   C     C_2   0.543622 0.602092 0.454775 0.662095
O93   O     O_2   0.589695 0.541011 0.427357 -0.470314
O94   O     O_R   0.476540 0.553721 0.464185 -0.667059
H49   H     H_    0.472212 0.467900 0.444905 0.341475
C94   C     C_2   0.579723 0.649279 0.610928 0.596044
O95   O     O_2   0.575748 0.541192 0.596264 -0.493771
O96   O     O_R   0.607234 0.685333 0.677251 -0.681518
H50   H     H_    0.621716 0.613880 0.708313 0.350019
C95   C     C_2   0.920233 0.149567 0.389128 0.596113
O97   O     O_2   0.924245 0.041455 0.403800 -0.494164
O98   O     O_R   0.892672 0.185754 0.322821 -0.682042
H51   H     H_    0.878171 0.114365 0.291781 0.349145
C96   C     C_2   0.956389 0.102190 0.545283 0.662143
O99   O     O_2   0.910335 0.041130 0.572706 -0.470105
O100  O     O_R   0.023479 0.053744 0.535880 -0.667070
H52   H     H_    0.027830 0.967895 0.555174 0.341633

loop_
_geom_bond_atom_site_label_1
_geom_bond_atom_site_label_2
_geom_bond_distance
_ccdc_geom_bond_type
C18   O42   1.295847 A    
Cr6   O50   1.979807 S    
Cr11  O51   1.979857 S    
O72   H34   1.013629 S    
O4    C12   1.278712 A    
C37   C43   1.391476 A    
O53   H17   0.991868 S    
O39   C19   1.315924 A    
O20   Cr12  2.061287 S    
C13   C76   1.444080 S    
C86   O72   1.399167 S    
C86   O71   1.218399 D    
C75   C79   1.327586 D    
C31   C32   1.429815 A    
C28   C32   1.428233 A    
O56   H20   0.991486 S    
C51   C55   1.387470 D    
C20   C64   1.457317 S    
C40   C42   1.392265 A    
C33   C34   1.378428 A    
O48   Cr12  1.941402 S    
C47   C59   1.358417 D    
C67   C68   1.482841 S    
C89   O77   1.219971 D    
C64   H7    1.085763 S    
O7    C3    1.259228 A    
C74   H14   1.084851 S    
C19   C63   1.472208 S    
C94   O95   1.222666 D    
C91   O81   1.219968 D    
C73   H13   1.089106 S    
O36   Cr8   2.057375 S    
O24   C12   1.274877 A    
C54   C86   1.499016 S    
C17   C61   1.457361 S    
O90   H46   0.991997 S    
C92   O83   1.220299 D    
C68   C96   1.482874 S    
C82   H10   1.088686 S    
C37   O65   1.380705 S    
C64   C67   1.347219 D    
C52   O88   1.378912 S    
O38   C18   1.315851 A    
C95   O97   1.222660 D    
C46   C58   1.365417 D    
C33   O53   1.375002 S    
C79   O59   1.383081 S    
C45   C57   1.358423 D    
C56   C88   1.498922 S    
C21   C69   1.434954 S    
O92   H48   0.992108 S    
O21   C9    1.272548 A    
O8    Cr4   1.940629 S    
O23   Cr11  1.936592 S    
C55   C87   1.498503 S    
O32   Cr4   1.935304 S    
C96   O99   1.221017 D    
O30   C14   1.266036 A    
C49   O85   1.379663 S    
C85   O70   1.399287 S    
C1    O9    1.294245 A    
O44   Cr12  2.055068 S    
C73   C77   1.331832 D    
C77   C81   1.454170 S    
C2    C51   1.478908 S    
C92   O84   1.399724 S    
O61   H25   0.989353 S    
C47   O91   1.378889 S    
C57   C89   1.496673 S    
C51   O87   1.379663 S    
O28   Cr4   2.058787 S    
O11   Cr7   2.057898 S    
C61   H6    1.085754 S    
O16   C8    1.275243 A    
O33   Cr5   2.056122 S    
C60   C92   1.497815 S    
O88   H44   0.991988 S    
C81   H9    1.088051 S    
C38   C44   1.392223 A    
C63   H8    1.086351 S    
O6    Cr2   1.940629 S    
C7    O19   1.283749 A    
C27   C36   1.401929 A    
O3    Cr3   2.053350 S    
O87   H43   0.992009 S    
Cr4   O52   1.983701 S    
C26   C33   1.401188 A    
C77   O57   1.383686 S    
C34   O54   1.374680 S    
O2    Cr2   2.054099 S    
C58   C90   1.497838 S    
O14   Cr6   1.940565 S    
C56   C60   1.506390 S    
C54   C58   1.506674 S    
O2    C10   1.278690 A    
C45   O89   1.378932 S    
C78   O58   1.383086 S    
O42   Cr10  2.055068 S    
C48   O92   1.381173 S    
Cr5   O49   1.980849 S    
O70   H33   1.013240 S    
O18   Cr10  2.061287 S    
C74   C78   1.327519 D    
O89   H45   0.982501 S    
C36   O56   1.374708 S    
C25   C29   1.424552 A    
C71   O63   1.381929 S    
C85   O69   1.218993 D    
C3    O11   1.294305 A    
C4    O12   1.294251 A    
O34   Cr6   2.057375 S    
Cr7   O51   1.980849 S    
C31   C39   1.427988 A    
O29   C13   1.268058 A    
C26   C30   1.428006 A    
C5    C26   1.483359 S    
C87   O74   1.399375 S    
O31   Cr3   1.934459 S    
C10   C46   1.477862 S    
O24   Cr12  1.936562 S    
O9    Cr5   2.057898 S    
O30   Cr2   1.935304 S    
C22   C70   1.430133 S    
O22   C10   1.274944 A    
C83   H11   1.088681 S    
O74   H35   1.013228 S    
C76   H16   1.089121 S    
O55   H19   0.991793 S    
C80   C84   1.454031 S    
O96   H50   1.013823 S    
O32   C16   1.267694 A    
C6    O18   1.281049 A    
O82   H39   1.014001 S    
C63   C68   1.361797 D    
C2    O10   1.294302 A    
C29   C37   1.428007 A    
O80   H38   1.013985 S    
C95   O98   1.399409 S    
O16   Cr8   1.940565 S    
O7    Cr3   1.941679 S    
C69   O61   1.381234 S    
C90   O79   1.220297 D    
O57   H21   0.992091 S    
C25   C34   1.402168 A    
C27   C31   1.424325 A    
O13   C5    1.271183 A    
O66   H30   0.990987 S    
O43   Cr11  2.055098 S    
O48   C24   1.276209 A    
O12   Cr8   2.057793 S    
Cr12  O52   1.980852 S    
C72   C84   1.358226 D    
O15   C7    1.271222 A    
O78   H37   1.014007 S    
C14   C75   1.435085 S    
C53   C57   1.503082 S    
O85   H41   0.992011 S    
O46   Cr10  1.941402 S    
O39   Cr7   1.938978 S    
O25   C21   1.258332 A    
O45   Cr9   1.942220 S    
O84   H40   1.013990 S    
C13   O33   1.269728 A    
C50   O86   1.378916 S    
O8    C4    1.257413 A    
Cr1   O49   1.983681 S    
C16   C73   1.444178 S    
O37   Cr5   1.938978 S    
O13   Cr5   1.939477 S    
C88   O75   1.218404 D    
O62   H26   0.989823 S    
C39   C41   1.391433 A    
C29   C30   1.429803 A    
O47   Cr11  1.942220 S    
C67   C95   1.494526 S    
C11   C47   1.490626 S    
C53   C85   1.498405 S    
C50   C54   1.387019 D    
C87   O73   1.218992 D    
Cr3   O51   1.983681 S    
O26   C22   1.255353 A    
O21   Cr9   1.936592 S    
O67   H31   0.990688 S    
C94   O96   1.399416 S    
O27   Cr3   2.060007 S    
C93   O94   1.398082 S    
C48   C60   1.365423 D    
C65   C66   1.482892 S    
O4    Cr4   2.054099 S    
O23   C11   1.272594 A    
C62   C65   1.361690 D    
C90   O80   1.399754 S    
C43   C44   1.384178 A    
O3    C11   1.283247 A    
O100  H52   1.013848 S    
C12   C48   1.477741 S    
C8    C27   1.484958 S    
C55   C59   1.503333 S    
O54   H18   0.991412 S    
C8    O20   1.281027 A    
C23   C71   1.430260 S    
C42   H2    1.081728 S    
O25   Cr1   2.060007 S    
C24   C72   1.434848 S    
C32   C40   1.431200 A    
C5    O17   1.283729 A    
O37   C17   1.271318 A    
O22   Cr10  1.936562 S    
O28   C24   1.258657 A    
O14   C6    1.275264 A    
C43   H3    1.080365 S    
C76   C80   1.331763 D    
O5    C1    1.259255 A    
O17   Cr9   2.061917 S    
O6    C2    1.257384 A    
C15   O35   1.267057 A    
O94   H49   1.013849 S    
C17   O41   1.269314 A    
C35   O55   1.374981 S    
C84   H12   1.088047 S    
C49   C53   1.387421 D    
O60   H24   0.992092 S    
Cr2   O50   1.983701 S    
C39   O67   1.380782 S    
C41   C42   1.384181 A    
C14   O34   1.266678 A    
C19   O43   1.295736 A    
C79   C83   1.451763 S    
O40   Cr8   1.938959 S    
C35   C36   1.378429 A    
C40   O68   1.381051 S    
C71   C83   1.359327 D    
C20   O44   1.269432 A    
O1    Cr1   2.053350 S    
C80   O60   1.383682 S    
O19   Cr11  2.061917 S    
C89   O78   1.399735 S    
O15   Cr7   1.939477 S    
O64   H28   0.989335 S    
C91   O82   1.399760 S    
O58   H22   0.991922 S    
O41   Cr9   2.055098 S    
Cr10  O50   1.980852 S    
C3    C50   1.480660 S    
C69   C81   1.358222 D    
O63   H27   0.989826 S    
O46   C22   1.278178 A    
C41   H1    1.080378 S    
C9    C45   1.490501 S    
C18   C62   1.472173 S    
O91   H47   0.982484 S    
O45   C21   1.275883 A    
O76   H36   1.013643 S    
C88   O76   1.399083 S    
C6    C25   1.485178 S    
O26   Cr2   2.058787 S    
C70   O62   1.381933 S    
O47   C23   1.277852 A    
O10   Cr6   2.057793 S    
O5    Cr1   1.941679 S    
O65   H29   0.990672 S    
O35   Cr7   2.056122 S    
C61   C66   1.347339 D    
C15   C74   1.434960 S    
C52   C56   1.386952 D    
O1    C9    1.283246 A    
O29   Cr1   1.934459 S    
O68   H32   0.990969 S    
C44   H4    1.081741 S    
C16   O36   1.269332 A    
O40   C20   1.271264 A    
C30   C38   1.431182 A    
Cr8   O52   1.979807 S    
O59   H23   0.991914 S    
C78   C82   1.451619 S    
C59   C91   1.496678 S    
O86   H42   0.991985 S    
C1    C52   1.480564 S    
O27   C23   1.255045 A    
C7    C28   1.483607 S    
C75   H15   1.084855 S    
C4    C49   1.478837 S    
C70   C82   1.359358 D    
C66   C94   1.494586 S    
C96   O100  1.398016 S    
C38   O66   1.381139 S    
C93   O93   1.221065 D    
C62   H5    1.086354 S    
O31   C15   1.266410 A    
Cr9   O49   1.979857 S    
O98   H51   1.013825 S    
C28   C35   1.401426 A    
C65   C93   1.482854 S    
C46   O90   1.381161 S    
O38   Cr6   1.938959 S    
C72   O64   1.381228 S    
