data_mof_unit_2954.cif
_audit_creation_date              2012-12-10T21:11:39-0500
_audit_creation_method            fapswitch 2.2
_symmetry_space_group_name_H-M    P1
_symmetry_Int_Tables_number       1
_space_group_crystal_system       triclinic
_cell_length_a                    17.571956
_cell_length_b                    16.787205
_cell_length_c                    10.827578
_cell_angle_alpha                 90.235965
_cell_angle_beta                  90.715817
_cell_angle_gamma                 89.597262
_cell_volume                      3193.60846385

loop_
_atom_site_label
_atom_site_type_symbol
_atom_type_description
_atom_site_fract_x
_atom_site_fract_y
_atom_site_fract_z
_atom_type_partial_charge
C1    C     C_R   0.353765 0.500404 0.498456 0.945861
C2    C     C_R   0.646746 0.499532 0.498646 0.983678
C3    C     C_R   0.886571 0.512721 0.474487 -0.127795
C4    C     C_R   0.115091 0.517521 0.468291 -0.108407
C5    C     C_1   0.966898 0.516998 0.467105 -0.008990
C6    C     C_1   0.034442 0.518373 0.465111 0.034217
C7    C     C_R   0.434257 0.834097 0.464858 0.190532
C8    C     C_R   0.550387 0.167347 0.576959 0.212771
C9    C     C_R   0.563857 0.833824 0.540052 0.183269
C10   C     C_R   0.448622 0.167940 0.423702 0.194363
C11   C     C_R   0.435865 0.748683 0.463077 0.403803
C12   C     C_R   0.547266 0.252557 0.579468 0.390312
C13   C     C_R   0.563622 0.748544 0.537504 0.393054
C14   C     C_R   0.452202 0.253073 0.421040 0.411362
C15   C     C_R   0.499675 0.876445 0.499013 -0.038422
C16   C     C_R   0.499461 0.125097 0.500224 -0.069520
C17   C     C_1   0.499367 0.964328 0.499680 0.253530
C18   C     C_1   0.499346 0.037250 0.500020 0.249607
C19   C     C_R   0.498349 0.499511 0.259317 0.831593
C20   C     C_R   0.498645 0.500242 0.740396 0.890208
C21   C     C_R   0.444645 0.640575 0.110406 0.281002
C22   C     C_R   0.441719 0.359728 0.883116 0.287680
C23   C     C_R   0.533322 0.645146 0.898008 0.257384
C24   C     C_R   0.526797 0.350920 0.103061 0.286426
C25   C     C_R   0.461633 0.714820 0.056287 0.381920
C26   C     C_R   0.456357 0.284770 0.937704 0.385911
C27   C     C_R   0.509833 0.717195 0.954240 0.390526
C28   C     C_R   0.502153 0.280162 0.044270 0.372053
C29   C     C_R   0.503473 0.572006 0.941599 -0.136377
C30   C     C_R   0.499805 0.425728 0.058027 -0.121877
C31   C     C_R   0.478708 0.570313 0.061898 -0.122458
C32   C     C_R   0.476157 0.428821 0.935685 -0.123130
C33   C     C_R   0.493049 0.500574 0.872705 -0.089885
C34   C     C_R   0.492453 0.498153 0.126363 -0.088679
C35   C     C_R   0.848512 0.558848 0.563543 0.099559
C36   C     C_R   0.155081 0.476545 0.375733 0.173930
C37   C     C_R   0.152534 0.551717 0.570620 0.116741
C38   C     C_R   0.847252 0.458746 0.397999 0.196939
C39   C     C_R   0.769388 0.550717 0.575771 0.385736
C40   C     C_R   0.234052 0.470135 0.384477 0.351021
C41   C     C_R   0.232182 0.544260 0.581132 0.353958
C42   C     C_R   0.768827 0.451245 0.409410 0.311191
C43   C     C_R   0.729618 0.498986 0.495975 -0.288067
C44   C     C_R   0.271870 0.502717 0.488984 -0.256839
N1    N     N_R   0.500000 0.707230 0.500000 -0.134958
N2    N     N_R   0.500000 0.292770 0.500000 -0.120291
O1    O     O_R   0.389110 0.566570 0.499990 -0.517642
O2    O     O_R   0.610890 0.433430 0.500010 -0.604028
O3    O     O_R   0.610890 0.566570 0.500010 -0.525110
O4    O     O_R   0.389110 0.433430 0.499990 -0.578693
O5    O     O_R   0.499990 0.566540 0.316770 -0.593630
O6    O     O_R   0.500010 0.433460 0.683230 -0.553782
O7    O     O_R   0.500010 0.566540 0.683230 -0.568771
O8    O     O_R   0.499990 0.433460 0.316770 -0.559544
Zn1   Zn    Zn3+2 0.500000 0.588860 0.500000 1.099108
Zn2   Zn    Zn3+2 0.500000 0.411140 0.500000 1.081341
O9    O     O_3   0.521660 0.205467 0.088157 -0.655453
H1    H     H_    0.548285 0.210707 0.168903 0.373239
O10   O     O_3   0.532076 0.790831 0.911567 -0.664341
H2    H     H_    0.561161 0.784029 0.834449 0.375174
O11   O     O_3   0.428675 0.214578 0.888021 -0.662842
H3    H     H_    0.402321 0.225565 0.808489 0.373728
O12   O     O_3   0.433695 0.786177 0.101584 -0.662099
H4    H     H_    0.403584 0.776321 0.176493 0.375195
O13   O     O_3   0.388751 0.637378 0.198535 -0.726206
H5    H     H_    0.369720 0.582033 0.203408 0.345008
O14   O     O_3   0.388586 0.364480 0.788166 -0.736410
H6    H     H_    0.369354 0.420080 0.783318 0.353534
O15   O     O_3   0.591992 0.647338 0.814738 -0.684462
H7    H     H_    0.616590 0.594027 0.813260 0.373443
O16   O     O_3   0.584776 0.345367 0.189717 -0.729304
H8    H     H_    0.612084 0.396842 0.191017 0.370206
N3    N     N_2   0.888997 0.613787 0.640254 -0.314914
H9    H     H_    0.942169 0.594875 0.669309 0.262894
C45   C     C_3   0.888471 0.694594 0.594428 -0.745666
H10   H     H_    0.919670 0.697685 0.505941 0.242824
H11   H     H_    0.916628 0.734323 0.662994 0.243283
H12   H     H_    0.829115 0.716140 0.579785 0.259376
N4    N     N_2   0.116654 0.443092 0.271132 -0.255414
H13   H     H_    0.068272 0.473324 0.242882 0.212687
C46   C     C_3   0.105971 0.357868 0.277505 -0.667351
H14   H     H_    0.070906 0.342745 0.358614 0.212909
H15   H     H_    0.161695 0.326535 0.285026 0.285280
H16   H     H_    0.076475 0.336795 0.192285 0.228732
N5    N     N_2   0.108957 0.590075 0.664144 -0.309584
H17   H     H_    0.125170 0.576944 0.753646 0.236941
C47   C     C_3   0.094818 0.673928 0.642958 -0.769711
H18   H     H_    0.057714 0.697960 0.716703 0.243729
H19   H     H_    0.065533 0.682821 0.552502 0.257978
H20   H     H_    0.149117 0.707428 0.644163 0.248396
N6    N     N_2   0.885897 0.411073 0.308844 -0.251280
H21   H     H_    0.932485 0.437371 0.269488 0.217648
C48   C     C_3   0.900690 0.329987 0.347492 -0.683150
H22   H     H_    0.938454 0.329380 0.430584 0.214497
H23   H     H_    0.929010 0.296711 0.271857 0.232916
H24   H     H_    0.846688 0.299305 0.368954 0.271838
O17   O     O_3   0.729223 0.590729 0.666163 -0.721027
H25   H     H_    0.764417 0.618294 0.723796 0.369436
O18   O     O_3   0.271613 0.434069 0.287170 -0.719036
H26   H     H_    0.326670 0.445294 0.291832 0.338511
O19   O     O_3   0.273486 0.575945 0.679272 -0.761983
H27   H     H_    0.242247 0.614913 0.725104 0.348656
O20   O     O_3   0.731771 0.400372 0.329247 -0.737202
H28   H     H_    0.699195 0.365535 0.379206 0.368351
O21   O     O_3   0.369199 0.877396 0.437225 -0.715308
H29   H     H_    0.324757 0.847591 0.467482 0.347036
O22   O     O_3   0.602412 0.124200 0.646664 -0.698514
H30   H     H_    0.647468 0.157770 0.663589 0.353424
O23   O     O_3   0.624894 0.876787 0.585713 -0.718030
H31   H     H_    0.652427 0.844239 0.648103 0.358735
O24   O     O_3   0.396240 0.125443 0.354353 -0.692940
H32   H     H_    0.350745 0.159370 0.339696 0.357399
O25   O     O_3   0.373494 0.706085 0.423609 -0.682694
H33   H     H_    0.340989 0.739519 0.369205 0.347333
O26   O     O_3   0.590677 0.296770 0.661026 -0.725846
H34   H     H_    0.599322 0.265182 0.737011 0.336774
O27   O     O_3   0.627364 0.706270 0.572627 -0.648326
H35   H     H_    0.672986 0.736205 0.547485 0.331156
O28   O     O_3   0.408565 0.297796 0.340170 -0.712803
H36   H     H_    0.397583 0.265531 0.265431 0.339944

loop_
_geom_bond_atom_site_label_1
_geom_bond_atom_site_label_2
_ccdc_geom_bond_type
C30   C32   A    
C47   H18   S    
C4    C36   A    
C48   H22   S    
N3    H9    S    
C23   O15   S    
O24   H32   S    
C42   O20   S    
C40   O18   S    
O17   H25   S    
C14   N2    A    
N5    H17   S    
C7    C11   A    
C21   C31   A    
O19   H27   S    
C22   C32   A    
C23   C29   A    
C37   N5    S    
C26   O11   S    
C38   C42   A    
C5    C6    T    
C39   O17   S    
O26   H34   S    
C29   C33   A    
C15   C17   S    
C25   O12   S    
C9    C13   A    
C3    C38   A    
O22   H30   S    
C7    O21   S    
C23   C27   A    
C1    O4    A    
C12   O26   S    
N5    C47   S    
O10   H2    S    
C8    C16   A    
C28   O9    S    
C29   C31   A    
N3    C45   S    
O11   H3    S    
C46   H15   S    
C46   H14   S    
O7    Zn1   S    
C9    O23   S    
O8    Zn2   S    
C30   C34   A    
O14   H6    S    
C36   C40   A    
C4    C6    S    
C10   C14   A    
N6    H21   S    
N4    C46   S    
C1    O1    A    
C39   C43   A    
C2    O2    A    
O3    Zn1   S    
C38   N6    S    
C19   C34   S    
O4    Zn2   S    
O12   H4    S    
C35   C39   A    
C45   H10   S    
C2    O3    A    
N6    C48   S    
C1    C44   S    
O18   H26   S    
C3    C35   A    
C2    C43   S    
C8    C12   A    
C17   C18   T    
C31   C34   A    
C10   O24   S    
C16   C18   S    
C45   H11   S    
C20   C33   S    
C19   O8    A    
C12   N2    A    
O13   H5    S    
C48   H24   S    
C47   H19   S    
C41   C44   A    
C11   N1    A    
C42   C43   A    
C8    O22   S    
C46   H16   S    
O1    Zn1   S    
O25   H33   S    
O2    Zn2   S    
C21   C25   A    
C35   N3    S    
C21   O13   S    
C24   C28   A    
C20   O7    A    
C3    C5    S    
C36   N4    S    
C13   O27   S    
O28   H36   S    
C25   C27   A    
O21   H29   S    
C26   C28   A    
C32   C33   A    
C9    C15   A    
O16   H8    S    
C20   O6    A    
C27   O10   S    
O23   H31   S    
C13   N1    A    
O9    H1    S    
C7    C15   A    
C41   O19   S    
O5    Zn1   S    
C37   C41   A    
O15   H7    S    
C11   O25   S    
C45   H12   S    
C24   C30   A    
C22   O14   S    
N4    H13   S    
C19   O5    A    
C40   C44   A    
C4    C37   A    
N1    Zn1   S    
C48   H23   S    
C14   O28   S    
C22   C26   A    
C47   H20   S    
N2    Zn2   S    
O20   H28   S    
C10   C16   A    
O27   H35   S    
O6    Zn2   S    
C24   O16   S    
