data_mof_unit_1932.cif
_audit_creation_date              2012-12-11T15:21:38-0500
_audit_creation_method            fapswitch 2.2
_symmetry_space_group_name_H-M    P1
_symmetry_Int_Tables_number       1
_space_group_crystal_system       triclinic
_cell_length_a                    19.097866
_cell_length_b                    7.308461
_cell_length_c                    17.959235
_cell_angle_alpha                 90.097115
_cell_angle_beta                  108.411692
_cell_angle_gamma                 90.067648
_cell_volume                      2378.3581313

loop_
_atom_site_label
_atom_site_type_symbol
_atom_type_description
_atom_site_fract_x
_atom_site_fract_y
_atom_site_fract_z
_atom_type_partial_charge
O1    O     O_R   0.562310 0.505770 0.439670 -0.534292
O2    O     O_R   0.437690 0.005770 0.560330 -0.519932
O3    O     O_R   0.411650 0.169150 0.405330 -0.504001
O4    O     O_R   0.588350 0.669150 0.594670 -0.529216
C1    C     C_R   0.385694 0.347792 0.382943 0.872999
C2    C     C_R   0.615554 0.847560 0.616016 0.768082
O5    O     O_R   0.560140 0.175610 0.430010 -0.502327
O6    O     O_R   0.439860 0.675610 0.569990 -0.500172
O7    O     O_R   0.587240 0.012100 0.585200 -0.556483
O8    O     O_R   0.412760 0.512100 0.414800 -0.550040
C3    C     C_R   0.580907 0.344793 0.415028 0.753584
C4    C     C_R   0.419446 0.844570 0.585022 0.774867
O9    O     O_3   0.508720 0.341420 0.550890 -0.397237
O10   O     O_3   0.491280 0.841420 0.449110 -0.378837
V1    V     V_3+5 0.498380 0.063930 0.490560 1.599814
V2    V     V_3+5 0.501620 0.563930 0.509440 1.575222
C5    C     C_R   0.165270 0.080108 0.848258 0.426993
C6    C     C_R   0.806664 0.524171 0.119523 0.441400
C7    C     C_R   0.126592 0.922499 0.860921 -0.200207
C8    C     C_R   0.870070 0.414576 0.134718 -0.186903
C9    C     C_R   0.131899 0.759549 0.821227 -0.213605
C10   C     C_R   0.884159 0.285272 0.195738 -0.265326
C11   C     C_R   0.176260 0.748983 0.771889 -0.059097
C12   C     C_R   0.836959 0.269794 0.242303 -0.054749
C13   C     C_R   0.222959 0.896889 0.769290 -0.015329
C14   C     C_R   0.779399 0.397533 0.232581 -0.005016
C15   C     C_R   0.217978 0.061898 0.808280 0.023755
C16   C     C_R   0.767710 0.532602 0.174431 -0.030270
C17   C     C_R   0.173757 0.594609 0.724019 0.333724
C18   C     C_R   0.845877 0.129341 0.298154 0.334226
C19   C     C_R   0.222902 0.580582 0.680181 0.606964
C20   C     C_R   0.795284 0.111318 0.340281 0.613376
C21   C     C_R   0.272737 0.722959 0.680464 -0.158874
C22   C     C_R   0.736938 0.236979 0.329762 -0.164194
C23   C     C_R   0.272213 0.883023 0.724632 -0.243024
C24   C     C_R   0.731779 0.386903 0.278913 -0.229175
C25   C     C_R   0.320356 0.029907 0.723727 -0.054159
C26   C     C_R   0.678648 0.525293 0.273649 -0.043092
C27   C     C_R   0.318321 0.189874 0.767291 0.579733
C28   C     C_R   0.671356 0.669344 0.219038 0.557754
C29   C     C_R   0.265135 0.207152 0.805529 -0.223441
C30   C     C_R   0.715244 0.669745 0.169448 -0.339694
C31   C     C_R   0.321789 0.709946 0.636085 0.625232
C32   C     C_R   0.683911 0.216556 0.369065 0.605011
C33   C     C_R   0.369910 0.855368 0.634700 -0.368324
C34   C     C_R   0.632714 0.357273 0.367333 -0.351580
C35   C     C_R   0.368996 0.014302 0.679024 0.581197
C36   C     C_R   0.633580 0.515351 0.322409 0.545102
H1    H     H_    0.099117 0.642348 0.826624 0.201844
H2    H     H_    0.930418 0.192871 0.204863 0.190912
H3    H     H_    0.262284 0.335704 0.833940 0.142199
H4    H     H_    0.709406 0.780150 0.127760 0.152707
C37   C     C_3   0.742438 0.846683 0.837725 0.787353
C38   C     C_3   0.252800 0.290751 0.165722 0.719784
C39   C     C_3   0.676994 0.789434 0.762151 0.946929
C40   C     C_3   0.318439 0.245284 0.244229 0.878946
H5    H     H_    0.738240 0.620564 0.664963 0.194155
H6    H     H_    0.247864 0.164522 0.339367 0.159191
C41   C     C_3   0.823473 0.772204 0.752563 0.893903
C42   C     C_3   0.172574 0.357864 0.263849 0.768444
C43   C     C_3   0.791679 0.109702 0.764779 0.660714
C44   C     C_3   0.230360 0.612052 0.203159 0.640620
C45   C     C_3   0.811430 0.920734 0.812675 -0.524950
C46   C     C_3   0.191749 0.420742 0.186134 -0.386624
C47   C     C_3   0.687739 0.877082 0.686400 -0.504881
C48   C     C_3   0.315375 0.377503 0.310963 -0.429746
C49   C     C_3   0.755036 0.767606 0.674778 0.092512
C50   C     C_3   0.245020 0.315565 0.332166 0.083563
C51   C     C_3   0.708759 0.094709 0.708121 0.673829
C52   C     C_3   0.309070 0.584196 0.271892 0.619516
O11   O     O_R   0.087220 0.271820 0.085230 -0.508117
O12   O     O_R   0.912780 0.771820 0.914770 -0.472338
O13   O     O_R   0.939860 0.595540 0.069990 -0.528222
O14   O     O_R   0.060140 0.095540 0.930010 -0.528160
C53   C     C_R   0.918343 0.426254 0.083784 0.704220
C54   C     C_R   0.079280 0.927540 0.913421 0.708446
O15   O     O_R   0.088340 0.601930 0.094680 -0.548682
O16   O     O_R   0.911660 0.101930 0.905320 -0.566723
O17   O     O_R   0.062310 0.765410 0.939660 -0.547192
O18   O     O_R   0.937690 0.265410 0.060340 -0.548607
C55   C     C_R   0.117553 0.432851 0.115786 0.864042
C56   C     C_R   0.883329 0.933130 0.883885 0.830901
O19   O     O_3   0.991270 0.429630 0.949130 -0.390456
O20   O     O_3   0.008730 0.929630 0.050870 -0.403304
V3    V     V_3+5 0.001620 0.707150 0.009440 1.501077
V4    V     V_3+5 0.998380 0.207150 0.990560 1.456072
O21   O     O_3   0.140481 0.253837 0.858784 -0.539430
C57   C     C_3   0.177290 0.320970 0.934659 -0.124478
H7    H     H_    0.138497 0.408636 0.953309 0.175909
H8    H     H_    0.223440 0.411353 0.933469 0.116017
H9    H     H_    0.195753 0.210807 0.979230 0.156297
O22   O     O_3   0.775115 0.592678 0.044824 -0.544240
C58   C     C_3   0.712990 0.481513 0.006938 -0.270972
H10   H     H_    0.727552 0.333490 0.009554 0.116389
H11   H     H_    0.690754 0.519174 0.944623 0.202872
H12   H     H_    0.667063 0.503095 0.031491 0.126943
O23   O     O_3   0.716757 0.981822 0.879493 -0.586314
C59   C     C_3   0.680336 0.914213 0.930926 -0.093093
H13   H     H_    0.644445 0.794777 0.907032 0.186140
H14   H     H_    0.644097 0.023888 0.940728 0.104546
H15   H     H_    0.721321 0.884088 0.988593 0.182557
O24   O     O_3   0.280152 0.377957 0.109039 -0.538113
C60   C     C_3   0.332852 0.275742 0.085378 -0.062877
H16   H     H_    0.337665 0.130721 0.103647 0.142254
H17   H     H_    0.387617 0.342959 0.108612 0.179867
H18   H     H_    0.319754 0.278913 0.021021 0.052913
F1    F     F_    0.609146 0.841478 0.768201 -0.699880
F2    F     F_    0.388165 0.256559 0.236183 -0.693136
F3    F     F_    0.674622 0.600436 0.756554 -0.670547
F4    F     F_    0.314279 0.067680 0.267051 -0.720514
F5    F     F_    0.829659 0.603163 0.788253 -0.649453
F6    F     F_    0.129865 0.202299 0.247869 -0.781454
O25   O     O_3   0.836766 0.124658 0.714953 -0.552291
C61   C     C_3   0.908669 0.198400 0.749281 0.001466
H19   H     H_    0.910665 0.323085 0.784763 0.189472
H20   H     H_    0.930169 0.236913 0.700999 0.091448
H21   H     H_    0.947594 0.095876 0.784586 0.140606
O26   O     O_3   0.184014 0.719817 0.232932 -0.595112
C62   C     C_3   0.155549 0.880090 0.194880 0.100721
H22   H     H_    0.195071 0.982536 0.225134 0.251278
H23   H     H_    0.101620 0.903288 0.204300 0.169853
H24   H     H_    0.145025 0.884201 0.130865 0.208181
O27   O     O_3   0.801064 0.279631 0.807527 -0.507135
C63   C     C_3   0.785174 0.297916 0.878774 0.199528
H25   H     H_    0.804447 0.188479 0.921990 0.054537
H26   H     H_    0.726401 0.330007 0.867749 0.184323
H27   H     H_    0.818139 0.414112 0.910753 0.205250
O28   O     O_3   0.229790 0.672807 0.126206 -0.556492
C64   C     C_3   0.284069 0.792971 0.117894 -0.103249
H28   H     H_    0.327523 0.716040 0.102318 0.155350
H29   H     H_    0.308119 0.877244 0.169697 0.236339
H30   H     H_    0.258142 0.881791 0.066692 0.145562
O29   O     O_3   0.666047 0.156297 0.756028 -0.576257
C65   C     C_3   0.596775 0.236640 0.718717 0.180417
H31   H     H_    0.554847 0.132209 0.690799 0.169970
H32   H     H_    0.599734 0.348764 0.678738 0.197054
H33   H     H_    0.577616 0.300749 0.764849 0.129517
O30   O     O_3   0.363465 0.586627 0.232276 -0.579398
C66   C     C_3   0.427971 0.690791 0.266454 0.020355
H34   H     H_    0.462342 0.628199 0.321230 0.205984
H35   H     H_    0.416464 0.836618 0.275031 0.206138
H36   H     H_    0.460593 0.689089 0.225306 0.139662
O31   O     O_3   0.697900 0.226990 0.645816 -0.556382
C67   C     C_3   0.718478 0.185125 0.578792 0.023003
H37   H     H_    0.690828 0.063072 0.547192 0.199504
H38   H     H_    0.778378 0.181734 0.588688 0.194713
H39   H     H_    0.699797 0.300575 0.537803 0.055818
O32   O     O_3   0.323094 0.736975 0.325942 -0.529650
C68   C     C_3   0.287113 0.746943 0.383804 0.010051
H40   H     H_    0.317205 0.672476 0.437731 0.172820
H41   H     H_    0.228823 0.707260 0.364611 0.208021
H42   H     H_    0.288460 0.891448 0.402612 0.089201
O33   O     O_3   0.890160 0.809756 0.735868 -0.548919
C69   C     C_3   0.918562 0.657380 0.706606 -0.079451
H43   H     H_    0.876050 0.554873 0.676429 0.135599
H44   H     H_    0.962176 0.592098 0.755348 0.126613
H45   H     H_    0.944451 0.707133 0.663241 0.139227
O34   O     O_3   0.133770 0.493792 0.292672 -0.531122
C70   C     C_3   0.057238 0.464410 0.273074 -0.034671
H46   H     H_    0.045397 0.350006 0.307993 0.163113
H47   H     H_    0.032194 0.438719 0.209682 0.107287
H48   H     H_    0.032080 0.589598 0.287872 0.108299
O35   O     O_3   0.776165 0.835678 0.611038 -0.542928
C71   C     C_3   0.753537 0.718120 0.545091 -0.154340
H49   H     H_    0.692606 0.703082 0.523132 0.144356
H50   H     H_    0.780192 0.581859 0.558371 0.090429
H51   H     H_    0.770946 0.778808 0.497286 0.259889
O36   O     O_3   0.244665 0.393203 0.404640 -0.550214
C72   C     C_3   0.212223 0.274127 0.446383 -0.048171
H52   H     H_    0.251442 0.163271 0.474404 0.113512
H53   H     H_    0.159319 0.214723 0.408378 0.133646
H54   H     H_    0.199841 0.353211 0.493335 0.230859
O37   O     O_3   0.124348 0.454533 0.722075 -0.523027
C73   C     C_3   0.068768 0.453344 0.648337 -0.160730
H55   H     H_    0.021354 0.372758 0.653408 0.133671
H56   H     H_    0.088407 0.385148 0.603362 0.190401
H57   H     H_    0.048159 0.593235 0.628369 0.095594
O38   O     O_3   0.906374 0.014825 0.314732 -0.538716
C74   C     C_3   0.884144 0.848941 0.274252 -0.167593
H58   H     H_    0.860129 0.871362 0.209856 0.117470
H59   H     H_    0.844903 0.773791 0.297482 0.184363
H60   H     H_    0.933203 0.761210 0.283798 0.141387
F7    F     F_    0.222085 0.425382 0.638319 -0.656070
F8    F     F_    0.805662 0.974826 0.393830 -0.652432
F9    F     F_    0.321119 0.558127 0.592044 -0.603471
F10   F     F_    0.682652 0.060462 0.409365 -0.639840
F11   F     F_    0.416069 0.153646 0.678842 -0.633992
F12   F     F_    0.590110 0.659488 0.325641 -0.649625
O39   O     O_3   0.363398 0.337744 0.766526 -0.492247
C75   C     C_3   0.419420 0.348141 0.839673 -0.200650
H61   H     H_    0.396412 0.382222 0.887689 0.078472
H62   H     H_    0.458059 0.459549 0.837003 0.175863
H63   H     H_    0.451831 0.218921 0.853148 0.128106
O40   O     O_3   0.623176 0.812881 0.215941 -0.499089
C76   C     C_3   0.565139 0.806577 0.144079 -0.203341
H64   H     H_    0.521653 0.903831 0.147395 0.161823
H65   H     H_    0.539436 0.668120 0.132325 0.107120
H66   H     H_    0.584237 0.850689 0.094527 0.099770
F13   F     F_    0.765949 0.696670 0.885537 -0.664066
F14   F     F_    0.218610 0.135386 0.129932 -0.764862

loop_
_geom_bond_atom_site_label_1
_geom_bond_atom_site_label_2
_ccdc_geom_bond_type
C48   C50   S    
O21   C57   S    
C75   H61   S    
C72   H53   S    
C72   H52   S    
O35   C71   S    
O1    C3    A    
C54   O17   A    
O2    C4    A    
O28   C64   S    
C65   H33   S    
C9    H1    S    
O12   V3    S    
C41   O33   S    
O27   C63   S    
C27   C29   A    
C28   O40   S    
O37   C73   S    
O5    C3    A    
C58   H10   S    
O14   C54   A    
C11   C17   A    
C71   H49   S    
C23   C25   A    
C42   O34   S    
C36   F12   S    
C68   H41   S    
C27   O39   S    
C66   H36   S    
C40   C48   S    
C34   C36   A    
C31   F9    S    
O31   C67   S    
O23   C59   S    
C14   C24   A    
C2    O7    A    
C38   F14   S    
C44   C52   S    
C6    C8    A    
C64   H29   S    
C33   C35   A    
C43   C45   S    
C15   C29   A    
C73   H55   S    
C40   F2    S    
C44   C46   S    
C75   H63   S    
C41   C49   S    
O26   C62   S    
C2    C47   S    
C47   C49   S    
C41   F5    S    
C70   H47   S    
C25   C35   A    
C53   O18   A    
C69   H44   S    
C64   H30   S    
C10   H2    S    
C76   H66   S    
C19   F7    S    
O16   V4    S    
C37   C39   S    
O40   C76   S    
O15   V3    S    
O6    V2    S    
C38   O24   S    
C39   F3    S    
O13   C53   A    
O39   C75   S    
H5    C49   S    
C67   H39   S    
C40   F4    S    
C14   C16   A    
C39   C47   S    
C32   C34   A    
C61   H19   S    
C73   H56   S    
C62   H23   S    
C58   H11   S    
C38   C40   S    
C45   C56   S    
C66   H35   S    
C5    C15   A    
O38   C74   S    
C6    C16   A    
O20   V3    S    
C69   H45   S    
C67   H38   S    
C68   H42   S    
C17   O37   S    
C67   H37   S    
C65   H32   S    
O5    V1    S    
C37   O23   S    
C76   H64   S    
C8    C53   S    
C39   F1    S    
C37   F13   S    
O34   C70   S    
O4    V2    S    
C42   F6    S    
C18   C20   A    
O11   V4    S    
O16   C56   A    
C70   H46   S    
C57   H9    S    
O15   C55   A    
O6    C4    A    
C19   C21   A    
C18   O38   S    
C70   H48   S    
C22   C32   A    
C60   H17   S    
O1    V2    S    
O14   V4    S    
C62   H22   S    
O2    V1    S    
C31   C33   A    
C73   H57   S    
O13   V3    S    
C69   H43   S    
C13   C23   A    
C63   H27   S    
C50   O36   S    
H6    C50   S    
O36   C72   S    
C57   H8    S    
C52   O30   S    
C58   H12   S    
C59   H14   S    
C9    C11   A    
C43   O25   S    
O29   C65   S    
C72   H54   S    
C10   C12   A    
C44   O28   S    
O4    C2    A    
C52   O32   S    
C35   F11   S    
C24   C26   A    
O17   V3    S    
O3    V1    S    
C63   H26   S    
O25   C61   S    
C62   H24   S    
C43   C51   S    
C30   H4    S    
C7    C54   S    
C75   H62   S    
C7    C9    A    
C5    O21   S    
C26   C36   A    
C20   F8    S    
C71   H51   S    
C12   C14   A    
C8    C10   A    
C28   C30   A    
O3    C1    A    
C61   H20   S    
C66   H34   S    
C65   H31   S    
C4    C33   S    
C51   O29   S    
C51   O31   S    
C59   H15   S    
C41   C45   S    
O11   C55   A    
C42   C46   S    
C43   O27   S    
C6    O22   S    
C74   H60   S    
C71   H50   S    
C64   H28   S    
C1    O8    A    
C25   C27   A    
O8    V2    S    
C68   H40   S    
C1    C48   S    
C26   C28   A    
C37   C45   S    
C48   C52   S    
C38   C46   S    
C47   C51   S    
C16   C30   A    
O22   C58   S    
C21   C23   A    
C60   H18   S    
C22   C24   A    
O32   C68   S    
C11   C13   A    
O7    V1    S    
O24   C60   S    
C12   C18   A    
C46   C55   S    
C44   O26   S    
C61   H21   S    
O30   C66   S    
C74   H58   S    
C5    C7    A    
C49   O35   S    
O18   V4    S    
O19   V4    S    
C57   H7    S    
C42   C50   S    
C17   C19   A    
C59   H13   S    
O9    V2    S    
C32   F10   S    
C60   H16   S    
O10   V1    S    
C3    C34   S    
C74   H59   S    
O33   C69   S    
C21   C31   A    
C29   H3    S    
O12   C56   A    
C20   C22   A    
C63   H25   S    
C76   H65   S    
C13   C15   A    
