data_mof_unit_988.cif
_audit_creation_date              2012-12-11T17:07:28-0500
_audit_creation_method            fapswitch 2.2
_symmetry_space_group_name_H-M    P1
_symmetry_Int_Tables_number       1
_space_group_crystal_system       triclinic
_cell_length_a                    6.945763
_cell_length_b                    14.500632
_cell_length_c                    16.081232
_cell_angle_alpha                 89.972466
_cell_angle_beta                  89.975121
_cell_angle_gamma                 89.987339
_cell_volume                      1619.66839315

loop_
_atom_site_label
_atom_site_type_symbol
_atom_type_description
_atom_site_fract_x
_atom_site_fract_y
_atom_site_fract_z
_atom_type_partial_charge
O1    O     O_R   0.505720 0.583900 0.413310 -0.536832
O2    O     O_R   0.175940 0.594920 0.586080 -0.537078
O3    O     O_R   0.005640 0.416100 0.586690 -0.537098
C1    C     C_R   0.344531 0.616666 0.614953 0.717870
O4    O     O_R   0.176000 0.594930 0.413930 -0.543416
O5    O     O_R   0.005700 0.416110 0.413310 -0.542606
C2    C     C_R   0.344730 0.616859 0.385222 0.727007
O6    O     O_R   0.505660 0.583890 0.586690 -0.544562
O7    O     O_3   0.339200 0.441330 0.500000 -0.369109
V1    V     V_3+5 0.064350 0.510880 0.500000 1.422157
O8    O     O_R   0.675980 0.405080 0.413920 -0.539899
C3    C     C_R   0.845076 0.383116 0.385055 0.689918
O9    O     O_R   0.675920 0.405070 0.586070 -0.537862
C4    C     C_R   0.844721 0.383175 0.614633 0.694733
V2    V     V_3+5 0.564340 0.489120 0.500000 1.419177
O10   O     O_3   0.839360 0.558670 0.500000 -0.370592
H1    H     H_    0.089178 0.087786 0.510437 0.152914
C5    C     C_R   0.727548 0.430275 0.782034 -0.161040
C6    C     C_R   0.671753 0.455473 0.862101 -0.085917
C7    C     C_R   0.683836 0.392229 0.926867 -0.093388
C8    C     C_R   0.751827 0.303291 0.912087 -0.149746
C9    C     C_R   0.808547 0.275448 0.831348 0.071609
C10   C     C_R   0.796073 0.340271 0.764925 0.065050
C11   C     C_R   0.879877 0.185255 0.816482 -0.156033
C12   C     C_R   0.938348 0.159880 0.735087 0.014152
C13   C     C_R   0.925613 0.224665 0.668669 0.074734
C14   C     C_R   0.854746 0.314912 0.683574 -0.161921
C15   C     C_R   0.006400 0.069822 0.717920 -0.213134
C16   C     C_R   0.060376 0.044274 0.637614 0.435775
C17   C     C_R   0.048018 0.107645 0.572869 -0.146539
C18   C     C_R   0.981292 0.196727 0.587851 -0.211043
H2    H     H_    0.717248 0.482348 0.734028 0.103660
H3    H     H_    0.619683 0.524621 0.873989 0.143575
H4    H     H_    0.641193 0.412302 0.989044 0.136433
H5    H     H_    0.760588 0.257041 0.964767 0.100174
H6    H     H_    0.016983 0.018085 0.766207 0.133999
H7    H     H_    0.972244 0.242977 0.535181 0.121117
C19   C     C_R   0.728467 0.181855 0.242072 0.114627
C20   C     C_R   0.882077 0.182366 0.185550 -0.109899
C21   C     C_R   0.033230 0.244865 0.200663 -0.172728
H8    H     H_    0.155214 0.247605 0.159027 0.135453
C22   C     C_R   0.022032 0.309051 0.266220 -0.166875
H9    H     H_    0.136264 0.359090 0.273265 0.131091
C23   C     C_R   0.859067 0.312849 0.318427 -0.114869
C24   C     C_R   0.716963 0.245615 0.306735 0.108081
C25   C     C_3   0.505319 0.257004 0.295723 -0.404766
C26   C     C_3   0.517759 0.187127 0.225560 -0.402744
H10   H     H_    0.467325 0.327510 0.274160 0.168878
H11   H     H_    0.422631 0.231628 0.350329 0.179724
H12   H     H_    0.486206 0.216842 0.163309 0.170667
H13   H     H_    0.443055 0.121167 0.239747 0.166304
C27   C     C_R   0.485130 0.757164 0.683372 0.157691
C28   C     C_R   0.351200 0.685247 0.682858 -0.153780
C29   C     C_R   0.216421 0.682346 0.748329 -0.122383
H14   H     H_    0.107907 0.628648 0.749275 0.133204
C30   C     C_R   0.229496 0.743462 0.816593 0.175416
C31   C     C_R   0.375182 0.812724 0.818361 -0.148838
C32   C     C_R   0.495201 0.819756 0.748581 0.124124
C33   C     C_3   0.709166 0.825672 0.742312 -0.392634
C34   C     C_3   0.697846 0.756925 0.671028 -0.365474
H15   H     H_    0.781742 0.797542 0.798134 0.187530
H16   H     H_    0.757938 0.895250 0.722503 0.201715
H17   H     H_    0.764689 0.689188 0.685892 0.168183
H18   H     H_    0.740071 0.787040 0.610122 0.208433
C35   C     C_R   0.483015 0.674564 0.250539 0.034950
C36   C     C_R   0.351784 0.683794 0.316004 -0.153460
C37   C     C_R   0.218772 0.756900 0.311497 -0.131402
H19   H     H_    0.111980 0.765115 0.360091 0.150907
C38   C     C_R   0.231105 0.824354 0.248366 0.204796
C39   C     C_R   0.374470 0.817006 0.185067 -0.191670
C40   C     C_R   0.492813 0.738734 0.186455 0.086010
C41   C     C_3   0.706720 0.730359 0.181181 0.258228
C42   C     C_3   0.695535 0.659663 0.251123 -0.422407
H20   H     H_    0.782189 0.794771 0.198734 0.094604
H21   H     H_    0.764216 0.683739 0.309674 0.154453
H22   H     H_    0.734586 0.588342 0.232186 0.199174
O11   O     O_R   0.229140 0.916090 0.913340 -0.543507
O12   O     O_R   0.558860 0.905090 0.086080 -0.532021
O13   O     O_R   0.729100 0.083920 0.086690 -0.543104
C43   C     C_R   0.389707 0.884931 0.116354 0.722729
O14   O     O_R   0.558860 0.905090 0.913930 -0.533617
O15   O     O_R   0.729100 0.083920 0.913310 -0.536969
C44   C     C_R   0.389350 0.881198 0.886666 0.725320
O16   O     O_R   0.229140 0.916080 0.086720 -0.537235
O17   O     O_3   0.395570 0.058660 0.000020 -0.373947
V3    V     V_3+5 0.670450 0.989140 0.000000 1.452270
O18   O     O_R   0.058810 0.094980 0.913910 -0.537816
C45   C     C_R   0.889970 0.116971 0.885432 0.692673
O19   O     O_R   0.058810 0.094980 0.086060 -0.547642
C46   C     C_R   0.889999 0.116963 0.114876 0.677889
V4    V     V_3+5 0.170450 0.010950 0.999970 1.422599
O20   O     O_3   0.895460 0.941370 0.999990 -0.360667
N1    N     N_3   0.105594 0.727331 0.886425 -0.632847
H23   H     H_    0.190978 0.718047 0.939311 0.251755
H24   H     H_    0.018126 0.784855 0.895749 0.257919
N2    N     N_3   0.108613 0.903624 0.255242 -0.669396
H25   H     H_    0.194354 0.962891 0.255208 0.218027
H26   H     H_    0.016057 0.906199 0.204241 0.241163
Cl1   Cl    Cl    0.781286 0.682232 0.084240 -0.650578
Cl2   Cl    Cl    0.141679 0.931779 0.617917 -0.709551

loop_
_geom_bond_atom_site_label_1
_geom_bond_atom_site_label_2
_ccdc_geom_bond_type
O18   C45   A    
N1    H23   S    
O18   V4    S    
C1    C28   S    
C6    C7    A    
C43   O16   A    
C38   N2    S    
O17   V4    S    
V1    O10   S    
C28   C29   A    
C23   C24   A    
C12   C15   A    
C25   H11   S    
C13   C14   A    
C34   H17   S    
C15   C16   A    
O5    C3    A    
C17   C18   A    
O12   C43   A    
O11   C44   A    
V2    O10   S    
C35   C42   S    
C30   C31   A    
C5    C6    A    
C19   C24   A    
C27   C34   S    
C29   H14   S    
O8    V2    S    
O13   C46   A    
N2    H26   S    
C31   C44   S    
C39   C40   A    
O1    V2    S    
O16   V4    S    
C10   C14   A    
C4    C14   S    
O19   V4    S    
O7    V1    S    
C20   C46   S    
O14   V3    S    
C1    O6    A    
C7    H4    S    
O12   V3    S    
C21   C22   A    
C36   C37   A    
C33   C34   S    
N1    H24   S    
O9    C4    A    
H1    C17   S    
C42   H21   S    
C22   C23   A    
O14   C44   A    
C26   H12   S    
C25   H10   S    
C30   N1    S    
C29   C30   A    
C33   H15   S    
C39   C43   S    
C5    C10   A    
C11   C12   A    
C41   H20   S    
C6    H3    S    
C20   C21   A    
O4    C2    A    
C26   H13   S    
C32   C33   S    
O17   V3    S    
C37   H19   S    
C37   C38   A    
O2    C1    A    
C16   C17   A    
N2    H25   S    
C11   C45   S    
C19   C26   S    
O3    C4    A    
C27   C32   A    
C21   H8    S    
O6    V2    S    
O9    V2    S    
C42   H22   S    
C9    C11   A    
C24   C25   S    
C5    H2    S    
C22   H9    S    
O2    V1    S    
V4    O20   S    
C27   C28   A    
C25   C26   S    
O11   V4    S    
C33   H16   S    
C16   Cl2   S    
O1    C2    A    
C41   C42   S    
O5    V1    S    
O8    C3    A    
C8    H5    S    
C34   H18   S    
C12   C13   A    
O4    V1    S    
C3    C23   S    
O3    V1    S    
C35   C40   A    
C2    C36   S    
O15   V3    S    
C31   C32   A    
C19   C20   A    
O15   C45   A    
O7    V2    S    
C38   C39   A    
C18   H7    S    
C13   C18   A    
C40   C41   S    
C7    C8    A    
C15   H6    S    
C35   C36   A    
C9    C10   A    
V3    O20   S    
O19   C46   A    
C8    C9    A    
O13   V3    S    
C41   Cl1   S    
