data_mof_unit_4390.cif
_audit_creation_date              2012-10-26T20:01:52-0400
_audit_creation_method            fapswitch 2.2
_symmetry_space_group_name_H-M    P1
_symmetry_Int_Tables_number       1
_space_group_crystal_system       triclinic
_cell_length_a                    11.684252
_cell_length_b                    10.782576
_cell_length_c                    9.64103
_cell_angle_alpha                 90.49459
_cell_angle_beta                  90.027935
_cell_angle_gamma                 93.880376
_cell_volume                      1211.80764894

loop_
_atom_site_label
_atom_site_type_symbol
_atom_type_description
_atom_site_fract_x
_atom_site_fract_y
_atom_site_fract_z
_atom_type_partial_charge
C1    C     C_R   0.496761 0.262606 0.499557 0.570396
C2    C     C_R   0.490332 0.870117 0.500787 -0.033401
C3    C     C_R   0.669799 0.641378 0.150884 -0.067102
C4    C     C_R   0.284231 0.499823 0.499959 0.517731
C5    C     C_R   0.773834 0.677987 0.092390 0.193121
C6    C     C_R   0.783994 0.669576 0.949678 -0.146259
C7    C     C_R   0.685445 0.640354 0.866731 0.265210
C8    C     C_R   0.588406 0.569059 0.927802 0.153240
C9    C     C_R   0.584765 0.569738 0.077041 0.071107
C10   C     C_R   0.419052 0.433398 0.072795 0.009602
C11   C     C_R   0.418615 0.434016 0.925351 -0.007273
C12   C     C_R   0.224294 0.046645 0.703730 -0.125260
C13   C     C_R   0.496656 0.736822 0.500358 0.543735
C14   C     C_R   0.715776 0.500600 0.499966 0.561502
C15   C     C_1   0.162563 0.501653 0.499888 -0.037469
C16   C     C_1   0.060089 0.503166 0.499865 -0.050197
C17   C     C_1   0.940291 0.503933 0.499910 -0.045811
C18   C     C_1   0.837660 0.502944 0.499928 -0.022901
C19   C     C_R   0.311279 0.116914 0.635537 -0.106898
C20   C     C_3   0.767743 0.093163 0.348254 -0.000966
C21   C     C_3   0.859730 0.200480 0.340964 -0.240963
C22   C     C_3   0.978172 0.154876 0.312089 -0.496054
C23   C     C_R   0.225268 0.917844 0.706500 -0.126098
C24   C     C_3   0.768521 0.770258 0.685642 0.015865
C25   C     C_3   0.775559 0.902666 0.746670 -0.275714
C26   C     C_3   0.893981 0.967718 0.724104 -0.492509
C27   C     C_3   0.927171 0.822725 0.141809 -0.000186
C28   C     C_3   0.049095 0.795499 0.098178 -0.252999
C29   C     C_3   0.124128 0.915010 0.075593 -0.488482
C30   C     C_R   0.312886 0.858614 0.640776 -0.088599
C31   C     C_R   0.402803 0.928043 0.572349 0.014061
C32   C     C_R   0.402428 0.058932 0.570079 -0.023294
C33   C     C_R   0.491158 0.127947 0.498605 0.014559
C34   C     C_R   0.577007 0.069120 0.426179 0.240561
C35   C     C_R   0.572881 0.939281 0.424277 -0.158981
Cu1   Cu    Cu3+1 0.499990 0.499990 0.640660 0.977320
Cu2   Cu    Cu3+1 0.500010 0.500010 0.359340 0.956363
H1    H     H_    0.865530 0.700155 0.905906 0.107401
H2    H     H_    0.772286 0.033823 0.253768 0.135662
H3    H     H_    0.785801 0.037891 0.441954 0.114342
H4    H     H_    0.837948 0.265946 0.258010 0.197232
H5    H     H_    0.861991 0.250951 0.441821 0.166941
H6    H     H_    0.000624 0.085955 0.390888 0.142895
H7    H     H_    0.043310 0.234759 0.315997 0.159073
H8    H     H_    0.979825 0.112022 0.207092 0.138843
H9    H     H_    0.754395 0.778786 0.572256 0.134144
H10   H     H_    0.849811 0.722922 0.691925 0.113850
H11   H     H_    0.709740 0.957028 0.696359 0.163812
H12   H     H_    0.351890 0.379469 0.870038 0.108779
H13   H     H_    0.756978 0.901364 0.859492 0.164534
H14   H     H_    0.958890 0.920350 0.784394 0.138500
H15   H     H_    0.894277 0.065809 0.760160 0.150440
H16   H     H_    0.917485 0.966257 0.612585 0.143276
H17   H     H_    0.932985 0.883549 0.235373 0.141232
H18   H     H_    0.885004 0.876287 0.060075 0.108452
H19   H     H_    0.088676 0.740458 0.180207 0.189955
H20   H     H_    0.046419 0.739706 0.000797 0.150217
H21   H     H_    0.084500 0.974374 0.997893 0.137065
H22   H     H_    0.209720 0.891825 0.037093 0.162898
H23   H     H_    0.304822 0.216395 0.632811 0.122043
H24   H     H_    0.136063 0.967348 0.174819 0.153677
H25   H     H_    0.155203 0.092261 0.753295 0.104835
H26   H     H_    0.157174 0.863220 0.758211 0.104146
H27   H     H_    0.307699 0.758249 0.642072 0.137202
H28   H     H_    0.635319 0.891048 0.365186 0.098018
H29   H     H_    0.352657 0.378250 0.126828 0.113750
H30   H     H_    0.661255 0.668594 0.256184 0.193249
N1    N     N_R   0.501070 0.501210 0.147910 -0.237226
N2    N     N_R   0.501110 0.501290 0.852040 -0.226272
O1    O     O_R   0.499990 0.319640 0.618810 -0.518470
O2    O     O_3   0.673201 0.697661 0.739563 -0.511666
O3    O     O_3   0.865435 0.710852 0.180362 -0.571055
O4    O     O_R   0.500000 0.319660 0.381240 -0.456367
O5    O     O_R   0.337190 0.500000 0.618790 -0.522854
O6    O     O_R   0.337200 0.500030 0.381210 -0.502444
O7    O     O_R   0.500000 0.680340 0.618760 -0.433890
O8    O     O_R   0.500010 0.680360 0.381190 -0.533196
O9    O     O_R   0.662800 0.499970 0.618790 -0.452143
O10   O     O_R   0.662810 0.500000 0.381210 -0.500360
O11   O     O_3   0.658918 0.143012 0.353508 -0.547477

loop_
_geom_bond_atom_site_label_1
_geom_bond_atom_site_label_2
_ccdc_geom_bond_type
C2    C35   A    
C30   H27   S    
C14   C18   S    
C28   H19   S    
C27   H17   S    
C1    C33   S    
C7    C8    A    
C28   H20   S    
Cu2   O10   S    
C12   C23   A    
C8    N2    A    
C3    C9    A    
C28   C29   S    
C5    O3    S    
C7    O2    S    
C5    C6    A    
C20   H3    S    
C27   H18   S    
C35   H28   S    
C15   C16   T    
Cu2   N1    S    
C34   C35   A    
C2    C13   S    
C25   H13   S    
C4    O6    A    
Cu1   O7    S    
C34   O11   S    
C22   H7    S    
C31   C32   A    
C8    C9    A    
C6    H1    S    
C4    O5    A    
C23   H26   S    
Cu2   O6    S    
C21   C22   S    
C19   C32   A    
Cu1   O1    S    
C33   C34   A    
C13   O8    A    
C10   H29   S    
C29   H24   S    
C20   O11   S    
C23   C30   A    
C29   H22   S    
C24   C25   S    
C20   H2    S    
C16   C17   S    
C25   C26   S    
Cu2   O8    S    
C2    C31   A    
C11   H12   S    
C26   H15   S    
C12   H25   S    
C22   H6    S    
C13   O7    A    
C17   C18   T    
C14   O10   A    
C20   C21   S    
C25   H11   S    
Cu1   O5    S    
C21   H4    S    
C26   H16   S    
Cu1   N2    S    
Cu2   O4    S    
Cu1   Cu2   S    
C24   H10   S    
C3    H30   S    
C3    C5    A    
C11   N2    A    
C6    C7    A    
C10   N1    A    
C19   H23   S    
C1    O1    A    
C24   H9    S    
C32   C33   A    
C4    C15   S    
C9    N1    A    
C1    O4    A    
Cu1   O9    S    
C26   H14   S    
C30   C31   A    
C12   C19   A    
C14   O9    A    
C10   C11   A    
C21   H5    S    
C22   H8    S    
C29   H21   S    
C27   C28   S    
C27   O3    S    
C24   O2    S    
