data_mof_unit_4976.cif
_audit_creation_date              2012-12-11T16:21:55-0500
_audit_creation_method            fapswitch 2.2
_symmetry_space_group_name_H-M    P1
_symmetry_Int_Tables_number       1
_space_group_crystal_system       triclinic
_cell_length_a                    13.535692
_cell_length_b                    14.019506
_cell_length_c                    30.091716
_cell_angle_alpha                 97.872451
_cell_angle_beta                  90.637696
_cell_angle_gamma                 118.857693
_cell_volume                      4934.41017436

loop_
_atom_site_label
_atom_site_type_symbol
_atom_type_description
_atom_site_fract_x
_atom_site_fract_y
_atom_site_fract_z
_atom_type_partial_charge
C1    C     C_R   0.719110 0.098044 0.569839 0.544894
C2    C     C_R   0.350895 0.668651 0.675581 0.079576
C3    C     C_R   0.257084 0.667570 0.654110 -0.014509
C4    C     C_R   0.265553 0.699024 0.611529 -0.116276
C5    C     C_R   0.225467 0.586397 0.820778 -0.142736
C6    C     C_R   0.206564 0.568220 0.864625 -0.142433
C7    C     C_R   0.409719 0.649154 0.883977 0.010721
C8    C     C_R   0.428701 0.665083 0.838494 0.035529
C9    C     C_R   0.334630 0.631177 0.807152 0.040998
C10   C     C_1   0.345508 0.642599 0.760643 -0.028944
C11   C     C_1   0.349415 0.652585 0.721682 -0.002477
C12   C     C_R   0.384171 0.788833 0.551049 0.540936
C13   C     C_R   0.296700 0.594904 0.896238 0.027580
C14   C     C_3   0.242721 0.102290 0.723624 0.139392
C15   C     C_3   0.293019 0.060692 0.757071 0.121369
C16   C     C_1   0.299284 0.195582 0.877643 -0.011833
C17   C     C_1   0.374394 0.135238 0.615062 -0.002330
C18   C     C_3   0.281008 0.209380 0.756887 0.108991
C19   C     C_3   0.330151 0.167042 0.790947 0.073367
C20   C     C_3   0.395053 0.263890 0.736376 0.001954
C21   C     C_3   0.356225 0.155789 0.703006 0.037352
C22   C     C_3   0.445027 0.221369 0.770321 -0.019973
C23   C     C_R   0.398801 0.118786 0.569772 0.541092
C24   C     C_3   0.408080 0.112760 0.736368 -0.103992
C25   C     C_1   0.313128 0.177266 0.838754 -0.028052
C26   C     C_1   0.364287 0.146282 0.654629 -0.030726
C27   C     C_3   0.896448 0.228854 0.736528 0.034459
C28   C     C_3   0.826122 0.259516 0.769082 0.110746
C29   C     C_1   0.878577 0.197366 0.881515 -0.022441
C30   C     C_1   0.757261 0.125004 0.616706 -0.013912
C31   C     C_3   0.876761 0.134197 0.762293 -0.003927
C32   C     C_3   0.807804 0.166754 0.795444 0.100025
C33   C     C_3   0.767676 0.053228 0.731317 -0.084671
C34   C     C_R   0.720413 0.095619 0.442929 0.567796
C35   C     C_3   0.787230 0.149499 0.706088 0.010595
C36   C     C_3   0.700224 0.088091 0.764404 0.094986
C37   C     C_3   0.715673 0.181826 0.738353 -0.098599
C38   C     C_1   0.837565 0.181395 0.843738 -0.028159
C39   C     C_1   0.775240 0.138931 0.656982 -0.059397
C40   C     C_3   0.242802 0.599159 0.258087 0.110986
C41   C     C_3   0.266747 0.689732 0.229299 -0.002435
C42   C     C_1   0.309757 0.606192 0.111222 -0.010972
C43   C     C_1   0.363753 0.731873 0.379051 -0.020927
C44   C     C_3   0.313205 0.559484 0.229000 0.042393
C45   C     C_R   0.381467 0.783397 0.424755 0.538255
C46   C     C_3   0.339127 0.651720 0.200329 0.017868
C47   C     C_3   0.419559 0.640914 0.261008 0.113089
C48   C     C_3   0.348440 0.678513 0.290385 0.087588
C49   C     C_3   0.446530 0.732211 0.232161 0.023694
C50   C     C_3   0.373788 0.768761 0.261160 0.102174
C51   C     C_1   0.328105 0.632457 0.151303 -0.052648
C52   C     C_1   0.354687 0.701523 0.339272 -0.017773
C53   C     C_R   0.349482 0.136902 0.402881 0.034814
C54   C     C_R   0.387384 0.247742 0.396241 0.008056
C55   C     C_R   0.380069 0.269809 0.352009 0.023554
C56   C     C_R   0.394626 0.114839 0.443260 0.537356
C57   C     C_R   0.324153 0.180296 0.316694 0.028189
C58   C     C_R   0.269929 0.072513 0.324982 -0.110570
C59   C     C_R   0.282099 0.048756 0.367386 -0.031452
C60   C     C_R   0.238519 0.119903 0.156162 -0.120001
C61   C     C_R   0.229244 0.123146 0.110283 -0.030796
C62   C     C_R   0.422030 0.280768 0.119023 0.099543
C63   C     C_R   0.429513 0.275257 0.165279 0.050452
C64   C     C_R   0.334185 0.198667 0.183686 0.003877
C65   C     C_1   0.332133 0.198303 0.231095 -0.037486
C66   C     C_1   0.328533 0.194102 0.270492 -0.032056
C67   C     C_R   0.366201 0.731953 0.590384 -0.019213
C68   C     C_R   0.317060 0.211569 0.091983 0.022394
C69   C     C_R   0.780222 0.132859 0.402705 0.034688
C70   C     C_R   0.782668 0.053547 0.369479 -0.161767
C71   C     C_R   0.811894 0.077517 0.326793 -0.145306
C72   C     C_R   0.840420 0.181293 0.316545 0.039543
C73   C     C_R   0.849663 0.266233 0.350465 0.129360
C74   C     C_R   0.819408 0.241479 0.393880 0.125170
C75   C     C_R   0.881453 0.296821 0.167521 -0.112972
C76   C     C_R   0.902868 0.307327 0.122476 0.090121
C77   C     C_R   0.866269 0.117312 0.108645 -0.143235
C78   C     C_R   0.456012 0.725057 0.610719 -0.119024
C79   C     C_R   0.845287 0.107141 0.153523 0.009667
C80   C     C_R   0.857523 0.199517 0.183373 0.033655
C81   C     C_1   0.853183 0.198486 0.230755 -0.029472
C82   C     C_1   0.849616 0.193801 0.270187 -0.024424
C83   C     C_R   0.901253 0.218175 0.093197 0.028961
C84   C     C_R   0.284044 0.232032 0.922319 0.546895
C85   C     C_R   0.266231 0.547771 0.938231 0.533328
C86   C     C_R   0.942357 0.220869 0.923646 0.541628
C87   C     C_R   0.293316 0.243333 0.049357 0.540158
C88   C     C_R   0.275604 0.558699 0.065055 0.544057
C89   C     C_R   0.449485 0.694437 0.653446 0.100417
C90   C     C_R   0.954552 0.233308 0.050155 0.552081
Cr1   Cr    Cr6+3 0.583430 0.162610 0.509470 1.039395
Cr2   Cr    Cr6+3 0.584210 0.916680 0.495400 1.018372
Cr3   Cr    Cr6+3 0.332380 0.920740 0.495100 1.012979
Cr4   Cr    Cr6+3 0.086810 0.177030 0.983130 1.008214
Cr5   Cr    Cr6+3 0.337180 0.419300 0.994610 1.007543
Cr6   Cr    Cr6+3 0.084840 0.422330 0.995830 1.037311
H1    H     H_    0.119575 0.526941 0.873026 0.138937
H2    H     H_    0.457700 0.070452 0.726941 0.107367
H3    H     H_    0.651042 0.202194 0.727011 0.107031
H4    H     H_    0.743426 0.967638 0.715589 0.107020
H5    H     H_    0.153586 0.562043 0.796885 0.106370
H6    H     H_    0.168708 0.057354 0.171004 0.114470
H7    H     H_    0.224477 0.005609 0.297075 0.106678
H8    H     H_    0.887763 0.366245 0.190770 0.095004
H9    H     H_    0.754032 0.969998 0.375347 0.141713
H10   H     H_    0.195496 0.703150 0.595906 0.141175
H11   H     H_    0.861789 0.047389 0.086379 0.127486
H12   H     H_    0.806258 0.012679 0.300925 0.109626
H13   H     H_    0.533971 0.749699 0.594607 0.131080
O1    O     O_R   0.493980 0.188910 0.559650 -0.514455
O2    O     O_R   0.480180 0.824400 0.444640 -0.491837
O3    O     O_R   0.308310 0.808540 0.439800 -0.524702
O4    O     O_R   0.340740 0.020600 0.455570 -0.508961
O5    O     O_3   0.500010 0.000010 0.499990 -0.247337
O6    O     O_R   0.969650 0.150960 0.933380 -0.508250
O7    O     O_R   0.187740 0.180870 0.937580 -0.492680
O8    O     O_R   0.358510 0.327410 0.940870 -0.509712
O9    O     O_R   0.324180 0.507870 0.953930 -0.498899
O10   O     O_R   0.170560 0.527890 0.952050 -0.518373
O11   O     O_R   0.987620 0.318470 0.945550 -0.496940
O12   O     O_R   0.678640 0.153520 0.554450 -0.492893
O13   O     O_R   0.976400 0.159270 0.031530 -0.543122
O14   O     O_R   0.194000 0.188570 0.028560 -0.503938
O15   O     O_R   0.365260 0.335720 0.039020 -0.523040
O16   O     O_R   0.330440 0.515580 0.044910 -0.504100
O17   O     O_R   0.177310 0.536200 0.050190 -0.488780
O18   O     O_R   0.993870 0.326170 0.036530 -0.461557
O19   O     O_3   0.169610 0.339550 0.991190 -0.242365
O20   O     O_R   0.698130 0.004030 0.549500 -0.511385
O21   O     O_R   0.481060 0.827210 0.535360 -0.504493
O22   O     O_R   0.309260 0.811560 0.537660 -0.512146
O23   O     O_R   0.341620 0.023400 0.546290 -0.490630
O24   O     O_R   0.493030 0.185890 0.461780 -0.509077
O25   O     O_R   0.677760 0.150720 0.463730 -0.459046
O26   O     O_R   0.697180 0.001010 0.451640 -0.527135
N1    N     N_3   0.135117 0.034606 0.696362 -0.633102
H14   H     H_    0.075453 0.986371 0.716890 0.220537
H15   H     H_    0.109636 0.087508 0.685310 0.230419
C91   C     C_3   0.558704 0.291926 0.797961 -0.393147
H16   H     H_    0.625804 0.333037 0.775525 0.151828
H17   H     H_    0.554610 0.356426 0.822478 0.140493
H18   H     H_    0.579378 0.239777 0.816493 0.148460
C92   C     C_3   0.452700 0.379668 0.724405 -0.394338
H19   H     H_    0.469486 0.440999 0.755077 0.139840
H20   H     H_    0.533993 0.396977 0.710282 0.139684
H21   H     H_    0.397071 0.386248 0.699041 0.145345
N2    N     N_3   0.215208 0.264788 0.767919 -0.666277
H22   H     H_    0.207856 0.296297 0.739349 0.225106
H23   H     H_    0.263317 0.332764 0.792932 0.237784
N3    N     N_3   0.857108 0.371359 0.790034 -0.644655
H24   H     H_    0.866409 0.416945 0.764150 0.223318
H25   H     H_    0.936913 0.405438 0.807510 0.225922
C93   C     C_3   0.007142 0.310791 0.720436 -0.403716
H26   H     H_    0.070108 0.359784 0.749786 0.136553
H27   H     H_    0.039326 0.265755 0.697149 0.134213
H28   H     H_    0.992419 0.367233 0.702363 0.124157
N4    N     N_3   0.594410 0.009904 0.780144 -0.629908
H29   H     H_    0.538103 0.962597 0.751781 0.230193
H30   H     H_    0.560765 0.055146 0.798045 0.238471
C94   C     C_3   0.963679 0.103348 0.776771 -0.394068
H31   H     H_    0.007874 0.095085 0.747306 0.157101
H32   H     H_    0.024946 0.168386 0.803723 0.177609
H33   H     H_    0.920974 0.023789 0.789710 0.128694
C95   C     C_3   0.180174 0.718487 0.211841 -0.412681
H34   H     H_    0.142776 0.743818 0.240625 0.118123
H35   H     H_    0.222044 0.787388 0.192375 0.137506
H36   H     H_    0.112087 0.645369 0.189697 0.138238
N5    N     N_3   0.132667 0.525840 0.272414 -0.635265
H37   H     H_    0.077179 0.483597 0.243397 0.226598
H38   H     H_    0.103507 0.575344 0.290223 0.222767
N6    N     N_3   0.407881 0.883337 0.278924 -0.624143
H39   H     H_    0.418752 0.924592 0.251438 0.234002
H40   H     H_    0.339815 0.883921 0.294675 0.223637
C96   C     C_3   0.562286 0.808917 0.217940 -0.399849
H41   H     H_    0.622007 0.857261 0.248272 0.139040
H42   H     H_    0.594609 0.759702 0.197367 0.119039
H43   H     H_    0.555366 0.866299 0.197728 0.139785
N7    N     N_3   0.501377 0.613005 0.278547 -0.647486
H44   H     H_    0.539475 0.594689 0.251136 0.220754
H45   H     H_    0.564675 0.684171 0.298591 0.229760
C97   C     C_3   0.278887 0.439939 0.210843 -0.366041
H46   H     H_    0.268558 0.394099 0.239284 0.158256
H47   H     H_    0.197641 0.400901 0.189392 0.140768
H48   H     H_    0.345366 0.436967 0.190420 0.133865
C98   C     C_3   0.123391 0.032518 0.082812 -0.375439
H49   H     H_    0.063246 0.062872 0.076864 0.173627
H50   H     H_    0.145174 0.002254 0.050382 0.142577
H51   H     H_    0.079189 0.960385 0.100512 0.103268
C99   C     C_3   0.149816 0.637753 0.677027 -0.405340
H52   H     H_    0.084539 0.640763 0.655477 0.129026
H53   H     H_    0.114342 0.552852 0.684855 0.127660
H54   H     H_    0.168360 0.696203 0.708841 0.136987
C100  C     C_3   0.228951 0.928459 0.371988 -0.366960
H55   H     H_    0.175082 0.873090 0.341185 0.094165
H56   H     H_    0.296606 0.907337 0.377454 0.173648
H57   H     H_    0.173453 0.911042 0.400074 0.159458
C101  C     C_3   0.432507 0.341122 0.435875 -0.380224
H58   H     H_    0.391156 0.392412 0.433928 0.122201
H59   H     H_    0.412621 0.311110 0.468607 0.145630
H60   H     H_    0.525633 0.392981 0.435896 0.142791
C102  C     C_3   0.536637 0.352708 0.195643 -0.375557
H61   H     H_    0.518465 0.403404 0.222459 0.120549
H62   H     H_    0.567364 0.303846 0.211596 0.135427
H63   H     H_    0.606338 0.410073 0.177658 0.161430
N8    N     N_3   0.521675 0.356998 0.100443 -0.650350
H64   H     H_    0.516082 0.427310 0.096770 0.256418
H65   H     H_    0.530565 0.318975 0.069515 0.245485
C103  C     C_3   0.432474 0.386165 0.341257 -0.375982
H66   H     H_    0.493467 0.396730 0.315466 0.144516
H67   H     H_    0.364982 0.400507 0.327673 0.156843
H68   H     H_    0.479838 0.451385 0.370530 0.131095
N9    N     N_3   0.931706 0.409743 0.107264 -0.586393
H69   H     H_    0.938421 0.469212 0.134036 0.209182
H70   H     H_    0.864375 0.395141 0.084923 0.228893
N10   N     N_3   0.884668 0.376084 0.341658 -0.642356
H71   H     H_    0.965315 0.428093 0.358264 0.232084
H72   H     H_    0.892900 0.381486 0.307527 0.238796
N11   N     N_3   0.824944 0.325442 0.428594 -0.602581
H73   H     H_    0.773955 0.355944 0.417327 0.255637
H74   H     H_    0.908567 0.389888 0.434078 0.225581
C104  C     C_3   0.815878 0.998488 0.168217 -0.406463
H75   H     H_    0.798595 0.997078 0.204098 0.134987
H76   H     H_    0.738975 0.931379 0.147632 0.124974
H77   H     H_    0.887058 0.981002 0.163028 0.123902
C105  C     C_3   0.548111 0.716830 0.824025 -0.388986
H78   H     H_    0.551242 0.718237 0.787330 0.146189
H79   H     H_    0.597794 0.803526 0.841377 0.147945
H80   H     H_    0.589708 0.669370 0.832632 0.121527
C106  C     C_3   0.509560 0.690966 0.918632 -0.382707
H81   H     H_    0.485228 0.691831 0.953659 0.139128
H82   H     H_    0.550777 0.639036 0.912631 0.136013
H83   H     H_    0.572062 0.777844 0.916542 0.124264
N12   N     N_3   0.544113 0.693698 0.675292 -0.637761
H84   H     H_    0.607435 0.707931 0.653366 0.223033
H85   H     H_    0.578977 0.759956 0.701948 0.223297
N13   N     N_3   0.237627 0.950087 0.768628 -0.626638
H86   H     H_    0.217689 0.894575 0.738657 0.235156
H87   H     H_    0.160960 0.936439 0.781134 0.226784

loop_
_geom_bond_atom_site_label_1
_geom_bond_atom_site_label_2
_ccdc_geom_bond_type
Cr5   O15   S    
C27   C93   S    
C92   H21   S    
C21   C26   S    
C49   C50   S    
C28   N3    S    
N4    H29   S    
C16   C25   T    
C12   O22   A    
C99   H54   S    
C102  H62   S    
C73   C74   A    
C14   C18   S    
Cr6   O10   S    
Cr2   O21   S    
N2    H22   S    
C57   C66   S    
N6    H39   S    
C33   C36   S    
C7    C13   A    
C56   O24   A    
C98   H49   S    
C45   O3    A    
C7    C8    A    
C47   C49   S    
C53   C54   A    
C59   C100  S    
C101  H60   S    
C15   C19   S    
C55   C103  S    
N6    H40   S    
C46   C49   S    
C106  H81   S    
C54   C101  S    
C12   O21   A    
C34   O26   A    
C24   H2    S    
C17   C26   T    
C32   C36   S    
Cr1   O1    S    
C95   H34   S    
C35   C37   S    
C47   N7    S    
C1    O20   A    
C69   C70   A    
N10   H72   S    
C87   O15   A    
C80   C81   S    
C91   H18   S    
C43   C52   T    
C98   H50   S    
C34   O25   A    
C92   H19   S    
C9    C10   S    
C92   H20   S    
C16   C84   S    
C105  H80   S    
N13   H86   S    
Cr6   O19   S    
C85   O10   A    
C18   C19   S    
C102  H61   S    
C89   N12   S    
C99   H53   S    
C96   H41   S    
C88   O17   A    
C33   C35   S    
Cr5   O19   S    
C28   C32   S    
C31   C32   S    
C8    C9    A    
C100  H56   S    
C29   C38   T    
C30   C39   T    
C36   C37   S    
C56   O4    A    
C31   C33   S    
C70   C71   A    
C32   C38   S    
C93   H27   S    
Cr3   O23   S    
C63   C102  S    
C75   C80   A    
C62   N8    S    
C18   C20   S    
C31   C94   S    
C44   C47   S    
C42   C51   T    
C106  H83   S    
Cr4   O14   S    
C76   N9    S    
N5    H38   S    
N4    H30   S    
C104  H76   S    
C86   O6    A    
C71   H12   S    
C90   O13   A    
C20   C92   S    
C8    C105  S    
C101  H58   S    
C67   C78   A    
C17   C23   S    
C60   H6    S    
C2    C11   S    
C76   C83   A    
C49   C96   S    
C44   C46   S    
C79   C104  S    
C57   C58   A    
N8    H65   S    
C78   C89   A    
C53   C59   A    
C12   C67   S    
C5    H5    S    
C27   C31   S    
C94   H33   S    
N7    H44   S    
C77   H11   S    
C19   C22   S    
N1    H15   S    
C18   N2    S    
C97   H47   S    
Cr5   O8    S    
Cr4   O7    S    
C103  H66   S    
C98   H51   S    
C101  H59   S    
C27   C35   S    
C58   C59   A    
C97   H46   S    
C4    H10   S    
C46   C51   S    
C83   C90   S    
C81   C82   T    
C63   C64   A    
Cr6   O18   S    
C60   C61   A    
C94   H32   S    
C90   O18   A    
C15   N13   S    
C2    C89   A    
C35   C39   S    
C75   C76   A    
C6    H1    S    
C5    C9    A    
C104  H75   S    
C43   C45   S    
Cr5   O16   S    
N11   H74   S    
C47   C48   S    
Cr1   O24   S    
C48   C52   S    
C41   C46   S    
C100  H57   S    
C74   N11   S    
C62   C63   A    
C61   C98   S    
C105  H78   S    
C77   C79   A    
Cr6   O17   S    
C69   C74   A    
Cr3   O4    S    
N9    H69   S    
C93   H28   S    
C48   C50   S    
N12   H85   S    
C96   H43   S    
C29   C86   S    
C50   N6    S    
C36   N4    S    
Cr4   O13   S    
N5    H37   S    
C20   C22   S    
C65   C66   T    
C55   C57   A    
C75   H8    S    
C102  H63   S    
C22   C24   S    
C84   O7    A    
C41   C95   S    
Cr2   O26   S    
C42   C88   S    
C3    C4    A    
C41   C50   S    
C37   H3    S    
C91   H16   S    
C7    C106  S    
C53   C56   S    
C99   H52   S    
C40   C48   S    
C23   O1    A    
N8    H64   S    
C54   C55   A    
C40   C41   S    
C97   H48   S    
N2    H23   S    
Cr5   O9    S    
C14   C15   S    
C34   C69   S    
Cr6   O11   S    
C95   H36   S    
C73   N10   S    
N9    H70   S    
C72   C73   A    
C70   H9    S    
C4    C67   A    
N7    H45   S    
Cr4   O6    S    
C45   O2    A    
Cr2   O2    S    
Cr4   O19   S    
C104  H77   S    
Cr1   O5    S    
C62   C68   A    
C60   C64   A    
C33   H4    S    
C64   C65   S    
C3    C99   S    
Cr2   O20   S    
C71   C72   A    
C106  H82   S    
C94   H31   S    
C15   C24   S    
C87   O14   A    
C91   H17   S    
C61   C68   A    
N11   H73   S    
C5    C6    A    
Cr1   O25   S    
C14   N1    S    
C28   C37   S    
C103  H68   S    
C22   C91   S    
C95   H35   S    
C1    C30   S    
C105  H79   S    
C96   H42   S    
N13   H87   S    
C23   O23   A    
C2    C3    A    
C78   H13   S    
N3    H25   S    
Cr3   O5    S    
N10   H71   S    
C85   O9    A    
C19   C25   S    
C1    O12   A    
C40   N5    S    
C88   O16   A    
C10   C11   T    
C84   O8    A    
Cr3   O3    S    
C14   C21   S    
C79   C80   A    
C40   C44   S    
C20   C21   S    
C103  H67   S    
C100  H55   S    
Cr1   O12   S    
C21   C24   S    
C13   C85   S    
C27   C28   S    
C68   C87   S    
C77   C83   A    
N3    H24   S    
N1    H14   S    
C86   O11   A    
C58   H7    S    
C93   H26   S    
Cr3   O22   S    
Cr2   O5    S    
C44   C97   S    
C72   C82   S    
N12   H84   S    
C6    C13   A    
