data_mof_unit_310.cif
_audit_creation_date              2012-12-11T15:12:22-0500
_audit_creation_method            fapswitch 2.2
_symmetry_space_group_name_H-M    P1
_symmetry_Int_Tables_number       1
_space_group_crystal_system       triclinic
_cell_length_a                    31.29881
_cell_length_b                    22.542347
_cell_length_c                    18.099454
_cell_angle_alpha                 89.152502
_cell_angle_beta                  124.517503
_cell_angle_gamma                 89.939194
_cell_volume                      10520.0764017

loop_
_atom_site_label
_atom_site_type_symbol
_atom_type_description
_atom_site_fract_x
_atom_site_fract_y
_atom_site_fract_z
_atom_type_partial_charge
C1    C     C_R   0.541980 0.593535 0.732609 -0.050228
C2    C     C_R   0.458020 0.406465 0.267391 -0.050228
C3    C     C_R   0.465641 0.608933 0.290738 -0.035621
C4    C     C_R   0.534359 0.391067 0.709262 -0.035621
C5    C     C_R   0.047734 0.078042 0.747116 -0.047338
C6    C     C_R   0.952266 0.921958 0.252884 -0.047338
C7    C     C_R   0.954073 0.083896 0.256306 -0.047496
C8    C     C_R   0.045927 0.916104 0.743694 -0.047495
C9    C     C_R   0.754911 0.344085 0.524428 0.092270
C10   C     C_R   0.245088 0.655915 0.475571 0.092271
C11   C     C_R   0.239430 0.350597 0.468417 0.097277
C12   C     C_R   0.760569 0.649403 0.531583 0.097277
C13   C     C_R   0.232382 0.803807 0.545507 0.092933
C14   C     C_R   0.767618 0.196193 0.454493 0.092932
C15   C     C_R   0.766216 0.785634 0.422603 0.096674
C16   C     C_R   0.233783 0.214366 0.577398 0.096675
C17   C     C_R   0.742938 0.286180 0.490719 0.001162
C18   C     C_R   0.257062 0.713820 0.509281 0.001162
C19   C     C_R   0.254999 0.299921 0.524527 0.001468
C20   C     C_R   0.745001 0.700079 0.475473 0.001469
C21   C     C_R   0.220031 0.745863 0.512315 0.004744
C22   C     C_R   0.779969 0.254137 0.487685 0.004744
C23   C     C_R   0.782550 0.733686 0.476157 0.003407
C24   C     C_R   0.217450 0.266314 0.523843 0.003407
C25   C     C_R   0.694276 0.260022 0.461541 -0.045456
C26   C     C_R   0.305724 0.739978 0.538459 -0.045456
C27   C     C_R   0.307778 0.280588 0.577182 -0.041888
C28   C     C_R   0.692222 0.719413 0.422818 -0.041888
C29   C     C_R   0.170419 0.720986 0.480221 -0.047256
C30   C     C_R   0.829581 0.279014 0.519779 -0.047256
C31   C     C_R   0.836261 0.717785 0.533981 -0.052317
C32   C     C_R   0.163739 0.282215 0.466018 -0.052317
C33   C     C_R   0.802523 0.369390 0.554094 -0.234346
C34   C     C_R   0.197477 0.630610 0.445906 -0.234347
C35   C     C_R   0.187710 0.369227 0.416716 -0.244534
C36   C     C_R   0.812289 0.630772 0.583282 -0.244533
C37   C     C_R   0.280856 0.828077 0.579571 -0.238832
C38   C     C_R   0.719144 0.171923 0.420429 -0.238832
C39   C     C_R   0.713955 0.799714 0.361471 -0.274935
C40   C     C_R   0.286045 0.200287 0.638531 -0.274935
C41   C     C_R   0.318059 0.796681 0.577853 0.368893
C42   C     C_R   0.681941 0.203319 0.422147 0.368893
C43   C     C_R   0.676519 0.766405 0.359676 0.390512
C44   C     C_R   0.323481 0.233596 0.640326 0.390512
C45   C     C_R   0.840262 0.337621 0.553382 0.365744
C46   C     C_R   0.159737 0.662379 0.446618 0.365744
C47   C     C_R   0.149563 0.335640 0.413965 0.371572
C48   C     C_R   0.850436 0.664359 0.586034 0.371572
C49   C     C_R   0.402316 0.696668 0.205719 -0.049574
C50   C     C_R   0.597684 0.303332 0.794280 -0.049573
C51   C     C_R   0.617113 0.652998 0.853941 -0.051786
C52   C     C_R   0.382887 0.347002 0.146059 -0.051786
C53   C     C_R   0.871880 0.125371 0.112285 -0.023907
C54   C     C_R   0.128120 0.874629 0.887715 -0.023907
C55   C     C_R   0.134724 0.110206 0.889289 -0.027373
C56   C     C_R   0.865276 0.889794 0.110711 -0.027374
C57   C     C_R   0.404887 0.774359 0.112408 0.260576
C58   C     C_R   0.595112 0.225640 0.887592 0.260575
C59   C     C_R   0.641439 0.681385 0.001974 0.260982
C60   C     C_R   0.358560 0.318615 0.998026 0.260983
C61   C     C_R   0.863130 0.175285 0.983240 0.285594
C62   C     C_R   0.136870 0.824715 0.016760 0.285593
C63   C     C_R   0.181126 0.100322 0.051605 0.262546
C64   C     C_R   0.818874 0.899678 0.948395 0.262545
C65   C     C_R   0.420504 0.717776 0.154079 0.263646
C66   C     C_R   0.579496 0.282224 0.845921 0.263646
C67   C     C_R   0.615322 0.642829 0.929207 0.275037
C68   C     C_R   0.384678 0.357171 0.070793 0.275037
C69   C     C_R   0.894136 0.157266 0.074184 0.290487
C70   C     C_R   0.105864 0.842734 0.925816 0.290487
C71   C     C_R   0.139842 0.083225 0.964734 0.276365
C72   C     C_R   0.860158 0.916775 0.035266 0.276366
C73   C     C_R   0.365972 0.731058 0.208642 -0.270469
C74   C     C_R   0.634027 0.268942 0.791358 -0.270469
C75   C     C_R   0.644306 0.700692 0.851214 -0.269289
C76   C     C_R   0.355694 0.299308 0.148786 -0.269288
C77   C     C_R   0.818157 0.116444 0.059782 -0.250669
C78   C     C_R   0.181843 0.883556 0.940218 -0.250669
C79   C     C_R   0.170613 0.151522 0.900875 -0.281249
C80   C     C_R   0.829387 0.848477 0.099125 -0.281249
C81   C     C_R   0.343809 0.783003 0.155900 0.063640
C82   C     C_R   0.656191 0.216997 0.844100 0.063640
C83   C     C_R   0.672672 0.737974 0.924201 0.065819
C84   C     C_R   0.327328 0.262026 0.075799 0.065819
C85   C     C_R   0.785518 0.143315 0.974410 0.062521
C86   C     C_R   0.214482 0.856685 0.025590 0.062521
C87   C     C_R   0.215752 0.161062 0.984329 0.051162
C88   C     C_R   0.784247 0.838938 0.015670 0.051161
C89   C     C_R   0.640845 0.590248 0.573779 -0.189733
C90   C     C_R   0.359154 0.409752 0.426221 -0.189732
C91   C     C_R   0.359795 0.592507 0.423832 -0.206027
C92   C     C_R   0.640205 0.407493 0.576168 -0.206028
C93   C     C_R   0.122118 0.110897 0.574251 -0.178316
C94   C     C_R   0.877882 0.889103 0.425749 -0.178317
C95   C     C_R   0.876678 0.111037 0.423365 -0.180720
C96   C     C_R   0.123322 0.888963 0.576635 -0.180719
C97   C     C_R   0.364792 0.805662 0.109495 -0.019770
C98   C     C_R   0.635207 0.194338 0.890504 -0.019770
C99   C     C_R   0.671871 0.727415 0.001221 -0.013952
C100  C     C_R   0.328129 0.272584 0.998779 -0.013952
C101  C     C_R   0.808620 0.171267 0.934761 -0.013640
C102  C     C_R   0.191380 0.828733 0.065239 -0.013639
C103  C     C_R   0.219375 0.139741 0.061458 -0.012194
C104  C     C_R   0.780625 0.860259 0.938542 -0.012193
C105  C     C_R   0.297279 0.808555 0.139087 0.117808
C106  C     C_R   0.702721 0.191445 0.860913 0.117808
C107  C     C_R   0.705517 0.782049 0.925531 0.113795
C108  C     C_R   0.294483 0.217950 0.074469 0.113795
C109  C     C_R   0.731095 0.150035 0.933045 0.114498
C110  C     C_R   0.268905 0.849965 0.066955 0.114498
C111  C     C_R   0.256402 0.193444 0.991532 0.119297
C112  C     C_R   0.743598 0.806556 0.008467 0.119297
C113  C     C_R   0.724579 0.209873 0.814565 -0.230103
C114  C     C_R   0.275421 0.790127 0.185435 -0.230103
C115  C     C_R   0.297226 0.198378 0.151824 -0.221370
C116  C     C_R   0.702774 0.801622 0.848176 -0.221370
C117  C     C_R   0.294887 0.878210 0.033414 -0.224036
C118  C     C_R   0.705113 0.121790 0.966586 -0.224036
C119  C     C_R   0.739575 0.799226 0.081850 -0.235593
C120  C     C_R   0.260424 0.200774 0.918149 -0.235593
C121  C     C_R   0.776522 0.198866 0.850196 -0.086055
C122  C     C_R   0.223478 0.801134 0.149804 -0.086055
C123  C     C_R   0.261279 0.158331 0.145519 -0.100557
C124  C     C_R   0.738720 0.841669 0.854481 -0.100557
C125  C     C_R   0.342545 0.856980 0.055728 -0.099177
C126  C     C_R   0.657455 0.143020 0.944272 -0.099177
C127  C     C_R   0.703424 0.761461 0.077383 -0.091220
C128  C     C_R   0.296575 0.238539 0.922616 -0.091221
C129  C     C_R   0.592388 0.586663 0.424415 0.264635
C130  C     C_R   0.407612 0.413337 0.575585 0.264634
C131  C     C_R   0.408726 0.591580 0.573527 0.295861
C132  C     C_R   0.591274 0.408420 0.426473 0.295861
C133  C     C_R   0.078570 0.108272 0.425085 0.310598
C134  C     C_R   0.921430 0.891728 0.574915 0.310599
C135  C     C_R   0.923025 0.109863 0.572811 0.313709
C136  C     C_R   0.076975 0.890137 0.427189 0.313709
C137  C     C_R   0.391699 0.606103 0.283258 -0.119091
C138  C     C_R   0.608301 0.393897 0.716742 -0.119090
C139  C     C_R   0.614073 0.592864 0.733527 -0.130372
C140  C     C_R   0.385927 0.407136 0.266473 -0.130372
C141  C     C_R   0.883467 0.086231 0.257686 -0.145504
C142  C     C_R   0.116533 0.913769 0.742314 -0.145504
C143  C     C_R   0.117803 0.078869 0.744052 -0.168341
C144  C     C_R   0.882197 0.921131 0.255948 -0.168340
C145  C     C_R   0.591929 0.614460 0.776354 0.101410
C146  C     C_R   0.408071 0.385540 0.223646 0.101410
C147  C     C_R   0.418705 0.638595 0.255585 0.099618
C148  C     C_R   0.581295 0.361405 0.744415 0.099618
C149  C     C_R   0.099979 0.090896 0.796567 0.107056
C150  C     C_R   0.900021 0.909104 0.203433 0.107055
C151  C     C_R   0.902807 0.103296 0.207428 0.112820
C152  C     C_R   0.097193 0.896704 0.792572 0.112820
C153  C     C_R   0.636813 0.609021 0.497609 -0.025742
C154  C     C_R   0.363187 0.390978 0.502391 -0.025743
C155  C     C_R   0.364676 0.614375 0.497864 -0.027454
C156  C     C_R   0.635324 0.385625 0.502136 -0.027454
C157  C     C_R   0.111244 0.142301 0.499944 -0.051154
C158  C     C_R   0.888756 0.857699 0.500056 -0.051154
C159  C     C_R   0.889108 0.143363 0.496359 -0.058004
C160  C     C_R   0.110892 0.856637 0.503641 -0.058005
C161  C     C_R   0.660218 0.291945 0.473033 0.164709
C162  C     C_R   0.339782 0.708055 0.526967 0.164709
C163  C     C_R   0.342186 0.307279 0.561721 0.179831
C164  C     C_R   0.657814 0.692721 0.438279 0.179830
C165  C     C_R   0.133838 0.756946 0.481304 0.164239
C166  C     C_R   0.866162 0.243054 0.518695 0.164239
C167  C     C_R   0.872734 0.757667 0.539191 0.164531
C168  C     C_R   0.127266 0.242333 0.460809 0.164531
C169  C     C_R   0.672592 0.350284 0.502552 0.046665
C170  C     C_R   0.327408 0.649716 0.497448 0.046665
C171  C     C_R   0.325996 0.358688 0.507425 0.052542
C172  C     C_R   0.674004 0.641312 0.492575 0.052542
C173  C     C_R   0.147169 0.815467 0.509827 0.060090
C174  C     C_R   0.852831 0.184533 0.490173 0.060090
C175  C     C_R   0.854618 0.812313 0.492648 0.067039
C176  C     C_R   0.145382 0.187687 0.507352 0.067039
C177  C     C_R   0.718949 0.376317 0.528294 -0.171294
C178  C     C_R   0.281051 0.623682 0.471706 -0.171295
C179  C     C_R   0.275753 0.381098 0.462765 -0.188806
C180  C     C_R   0.724247 0.618902 0.537234 -0.188806
C181  C     C_R   0.195766 0.838091 0.542973 -0.178497
C182  C     C_R   0.804234 0.161909 0.457027 -0.178497
C183  C     C_R   0.802157 0.824919 0.433223 -0.205604
C184  C     C_R   0.197843 0.175082 0.566777 -0.205604
H1    H     H_    0.516357 0.599695 0.753217 0.190573
H2    H     H_    0.483643 0.400305 0.246782 0.190573
H3    H     H_    0.497404 0.624530 0.289403 0.157951
H4    H     H_    0.502596 0.375470 0.710597 0.157951
H5    H     H_    0.025373 0.072487 0.774855 0.199089
H6    H     H_    0.974627 0.927513 0.225145 0.199089
H7    H     H_    0.976268 0.076868 0.228540 0.202374
H8    H     H_    0.023732 0.923132 0.771460 0.202374
H9    H     H_    0.647335 0.285796 0.752015 0.136750
H10   H     H_    0.352665 0.714204 0.247985 0.136750
H11   H     H_    0.354694 0.294397 0.207197 0.144149
H12   H     H_    0.645306 0.705603 0.792803 0.144149
H13   H     H_    0.198103 0.907961 0.910625 0.134383
H14   H     H_    0.801897 0.092039 0.089375 0.134383
H15   H     H_    0.836336 0.825400 0.157978 0.156971
H16   H     H_    0.163664 0.174600 0.842021 0.156971
H17   H     H_    0.702839 0.234589 0.752018 0.132247
H18   H     H_    0.297160 0.765411 0.247982 0.132247
H19   H     H_    0.328109 0.211354 0.218470 0.137822
H20   H     H_    0.671890 0.788646 0.781530 0.137822
H21   H     H_    0.278528 0.915765 0.987596 0.135345
H22   H     H_    0.721472 0.084235 0.012403 0.135345
H23   H     H_    0.763635 0.823450 0.143213 0.128537
H24   H     H_    0.236365 0.176550 0.856787 0.128536
H25   H     H_    0.673946 0.593363 0.642563 0.127948
H26   H     H_    0.326054 0.406637 0.357437 0.127947
H27   H     H_    0.326231 0.595168 0.355267 0.129184
H28   H     H_    0.673769 0.404832 0.644733 0.129184
H29   H     H_    0.149116 0.122472 0.643624 0.122891
H30   H     H_    0.850884 0.877528 0.356376 0.122891
H31   H     H_    0.847079 0.121625 0.353993 0.132700
H32   H     H_    0.152921 0.878375 0.646007 0.132700
H33   H     H_    0.353287 0.615451 0.266160 0.104788
H34   H     H_    0.646713 0.384549 0.733840 0.104788
H35   H     H_    0.653969 0.597097 0.755143 0.114114
H36   H     H_    0.346031 0.402903 0.244857 0.114114
H37   H     H_    0.843241 0.085742 0.234636 0.096996
H38   H     H_    0.156759 0.914258 0.765364 0.096996
H39   H     H_    0.158102 0.075244 0.767342 0.107924
H40   H     H_    0.841898 0.924756 0.232658 0.107923
H41   H     H_    0.726751 0.421744 0.551366 0.140151
H42   H     H_    0.273249 0.578256 0.448634 0.140151
H43   H     H_    0.264842 0.421216 0.421705 0.135363
H44   H     H_    0.735158 0.578783 0.578294 0.135363
H45   H     H_    0.204555 0.883777 0.564875 0.145404
H46   H     H_    0.795445 0.116223 0.435125 0.145404
H47   H     H_    0.789002 0.866995 0.396554 0.141246
H48   H     H_    0.210998 0.133006 0.603447 0.141246
H49   H     H_    0.810923 0.414029 0.580046 0.174127
H50   H     H_    0.189076 0.585971 0.419953 0.174127
H51   H     H_    0.176500 0.408956 0.374902 0.176018
H52   H     H_    0.823500 0.591043 0.625096 0.176018
H53   H     H_    0.289931 0.872063 0.607908 0.175825
H54   H     H_    0.710069 0.127937 0.392092 0.175825
H55   H     H_    0.702179 0.837764 0.316306 0.171536
H56   H     H_    0.297820 0.162237 0.683695 0.171535
H57   H     H_    0.791770 0.217031 0.814104 0.177061
H58   H     H_    0.208230 0.782969 0.185896 0.177061
H59   H     H_    0.266073 0.143581 0.206938 0.178162
H60   H     H_    0.733927 0.856418 0.793062 0.178162
H61   H     H_    0.359197 0.878505 0.024022 0.181859
H62   H     H_    0.640803 0.121495 0.975978 0.181859
H63   H     H_    0.702846 0.757098 0.136359 0.175792
H64   H     H_    0.297154 0.242902 0.863641 0.175792
N1    N     N_R   0.532970 0.559900 0.665210 -0.056287
N2    N     N_R   0.467030 0.440100 0.334790 -0.056287
N3    N     N_R   0.467030 0.559900 0.334790 -0.049685
N4    N     N_R   0.532970 0.440100 0.665210 -0.049685
N5    N     N_R   0.032970 0.059900 0.665210 -0.064339
N6    N     N_R   0.967030 0.940100 0.334790 -0.064339
N7    N     N_R   0.967030 0.059900 0.334790 -0.066900
N8    N     N_R   0.032970 0.940100 0.665210 -0.066900
N9    N     N_R   0.597900 0.559930 0.545530 -0.057240
N10   N     N_R   0.402100 0.440070 0.454470 -0.057240
N11   N     N_R   0.402100 0.559930 0.454470 -0.056719
N12   N     N_R   0.597900 0.440070 0.545530 -0.056719
N13   N     N_R   0.097900 0.059930 0.545530 -0.054022
N14   N     N_R   0.902100 0.940070 0.454470 -0.054022
N15   N     N_R   0.902100 0.059930 0.454470 -0.055123
N16   N     N_R   0.097900 0.940070 0.545530 -0.055123
N17   N     N_R   0.567170 0.559950 0.454460 -0.081181
N18   N     N_R   0.432830 0.440050 0.545540 -0.081181
N19   N     N_R   0.432830 0.559950 0.545540 -0.077026
N20   N     N_R   0.567170 0.440050 0.454460 -0.077026
N21   N     N_R   0.067170 0.059950 0.454460 -0.069109
N22   N     N_R   0.932830 0.940050 0.545540 -0.069110
N23   N     N_R   0.932830 0.059950 0.545540 -0.067428
N24   N     N_R   0.067170 0.940050 0.454460 -0.067427
N25   N     N_R   0.421470 0.559970 0.334770 -0.050130
N26   N     N_R   0.578530 0.440030 0.665230 -0.050130
N27   N     N_R   0.578530 0.559970 0.665230 -0.050509
N28   N     N_R   0.421470 0.440030 0.334770 -0.050509
N29   N     N_R   0.921470 0.059970 0.334770 -0.047267
N30   N     N_R   0.078530 0.940030 0.665230 -0.047266
N31   N     N_R   0.078530 0.059970 0.665230 -0.045566
N32   N     N_R   0.921470 0.940030 0.334770 -0.045566
Ni1   Ni    Ni4+2 0.483030 0.500000 0.604430 0.300068
Ni2   Ni    Ni4+2 0.516970 0.500000 0.395570 0.300068
Ni3   Ni    Ni4+2 0.983030 0.000000 0.604430 0.278852
Ni4   Ni    Ni4+2 0.016970 0.000000 0.395570 0.278852
Ni5   Ni    Ni4+2 0.587400 0.500000 0.604430 0.211397
Ni6   Ni    Ni4+2 0.412600 0.500000 0.395570 0.211397
Ni7   Ni    Ni4+2 0.087400 0.000000 0.604430 0.203814
Ni8   Ni    Ni4+2 0.912600 0.000000 0.395570 0.203813
Br1   Br    Br    0.540707 0.332211 0.874487 -0.306344
Br2   Br    Br    0.459293 0.667789 0.125513 -0.306344
Br3   Br    Br    0.417049 0.427140 0.061364 -0.315386
Br4   Br    Br    0.582951 0.572860 0.938636 -0.315386
Br5   Br    Br    0.036012 0.813368 0.853066 -0.378732
Br6   Br    Br    0.963988 0.186632 0.146934 -0.378733
Br7   Br    Br    0.906184 0.979095 0.049493 -0.413225
Br8   Br    Br    0.093816 0.020905 0.950507 -0.413224
Br9   Br    Br    0.435067 0.805422 0.051592 -0.358715
Br10  Br    Br    0.564933 0.194577 0.948408 -0.358715
Br11  Br    Br    0.637668 0.668105 0.104079 -0.341332
Br12  Br    Br    0.362331 0.331895 0.895921 -0.341332
Br13  Br    Br    0.895622 0.211675 0.929559 -0.347942
Br14  Br    Br    0.104378 0.788325 0.070441 -0.347942
Br15  Br    Br    0.186213 0.067041 0.155211 -0.381079
Br16  Br    Br    0.813786 0.932959 0.844789 -0.381079
Br17  Br    Br    0.581156 0.573546 0.310095 -0.368630
Br18  Br    Br    0.418844 0.426454 0.689905 -0.368630
Br19  Br    Br    0.418099 0.584794 0.687461 -0.413908
Br20  Br    Br    0.581901 0.415206 0.312539 -0.413908
Br21  Br    Br    0.077607 0.110467 0.318535 -0.418847
Br22  Br    Br    0.922392 0.889533 0.681465 -0.418847
Br23  Br    Br    0.929920 0.118494 0.684212 -0.461102
Br24  Br    Br    0.070079 0.881506 0.315788 -0.461102
N33   N     N_2   0.615732 0.264804 0.461568 -0.078251
H65   H     H_    0.581862 0.289359 0.424628 0.194477
C185  C     C_3   0.624426 0.239626 0.543097 -0.827277
H66   H     H_    0.589293 0.215549 0.527073 0.264216
H67   H     H_    0.632525 0.275225 0.591086 0.216175
H68   H     H_    0.657538 0.207645 0.574710 0.261174
N34   N     N_2   0.384268 0.735196 0.538432 -0.078251
H69   H     H_    0.418138 0.710641 0.575372 0.194477
C186  C     C_3   0.375574 0.760374 0.456903 -0.827276
H70   H     H_    0.410707 0.784451 0.472927 0.264216
H71   H     H_    0.342462 0.792355 0.425290 0.261174
H72   H     H_    0.367475 0.724775 0.408914 0.216174
N35   N     N_2   0.389813 0.278151 0.589974 -0.083308
H73   H     H_    0.422472 0.303908 0.621792 0.198800
C187  C     C_3   0.386683 0.239732 0.523831 -0.837568
H74   H     H_    0.424118 0.215614 0.553703 0.262291
H75   H     H_    0.378624 0.266238 0.464875 0.229504
H76   H     H_    0.355617 0.206546 0.501829 0.262524
N36   N     N_2   0.610187 0.721849 0.410027 -0.083308
H77   H     H_    0.577528 0.696092 0.378208 0.198801
C188  C     C_3   0.613317 0.760267 0.476171 -0.837569
H78   H     H_    0.575882 0.784385 0.446299 0.262292
H79   H     H_    0.644383 0.793453 0.498174 0.262524
H80   H     H_    0.621375 0.733760 0.535126 0.229505
N37   N     N_2   0.084445 0.735411 0.454976 -0.081484
H81   H     H_    0.053826 0.762944 0.410260 0.202485
C189  C     C_3   0.081885 0.716144 0.529012 -0.779353
H82   H     H_    0.043485 0.696101 0.502504 0.259534
H83   H     H_    0.086908 0.754381 0.571219 0.223321
H84   H     H_    0.112419 0.682148 0.570851 0.268594
N38   N     N_2   0.915555 0.264589 0.545023 -0.081484
H85   H     H_    0.946174 0.237056 0.589740 0.202485
C190  C     C_3   0.918115 0.283856 0.470988 -0.779353
H86   H     H_    0.956515 0.303899 0.497496 0.259535
H87   H     H_    0.887581 0.317852 0.429149 0.268593
H88   H     H_    0.913092 0.245619 0.428781 0.223320
N39   N     N_2   0.926546 0.743245 0.588367 -0.076038
H89   H     H_    0.950662 0.775826 0.630883 0.225814
C191  C     C_3   0.943147 0.720155 0.534194 -0.786958
H90   H     H_    0.984477 0.706064 0.578331 0.263239
H91   H     H_    0.939196 0.754770 0.486259 0.220048
H92   H     H_    0.919722 0.680977 0.496511 0.267941
N40   N     N_2   0.073454 0.256755 0.411632 -0.076038
H93   H     H_    0.049338 0.224173 0.369116 0.225814
C192  C     C_3   0.056852 0.279845 0.465805 -0.786956
H94   H     H_    0.015522 0.293936 0.421667 0.263239
H95   H     H_    0.080277 0.319023 0.503487 0.267941
H96   H     H_    0.060803 0.245230 0.513739 0.220047
Br25  Br    Br    0.384809 0.834240 0.637879 -0.454495
Br26  Br    Br    0.615190 0.165760 0.362121 -0.454495
Br27  Br    Br    0.605723 0.786080 0.264867 -0.378901
Br28  Br    Br    0.394277 0.213921 0.735135 -0.378899
Br29  Br    Br    0.904945 0.378628 0.604789 -0.445868
Br30  Br    Br    0.095055 0.621372 0.395211 -0.445868
Br31  Br    Br    0.079974 0.365520 0.331231 -0.415175
Br32  Br    Br    0.920025 0.634479 0.668767 -0.415176

loop_
_geom_bond_atom_site_label_1
_geom_bond_atom_site_label_2
_ccdc_geom_bond_type
N16   N24   A    
C105  C110  A    
C192  H94   S    
C126  H62   S    
C18   C21   A    
C33   C45   A    
C107  C112  A    
C30   C45   A    
C92   C156  A    
C35   C47   A    
C79   C87   A    
N37   H81   S    
C43   Br27  S    
C188  H78   S    
C138  N26   A    
C162  N34   S    
C48   Br32  S    
C131  N19   A    
C51   C145  S    
C60   Br12  S    
C61   Br13  S    
C163  N35   S    
C189  H83   S    
C88   C104  A    
C129  Br17  S    
C140  H36   S    
C56   C72   A    
C115  H19   S    
N1    N27   A    
C113  H17   S    
C124  H60   S    
C135  Br23  S    
C136  Br24  S    
C95   N15   A    
C103  C123  A    
C141  C151  A    
C73   H10   S    
N7    N29   A    
C82   C98   A    
C142  N30   A    
C10   C178  A    
C73   C81   A    
C14   C182  A    
C109  C118  A    
N29   Ni8   S    
C94   H30   S    
C115  C123  A    
N30   Ni7   S    
N2    N28   A    
C84   C100  A    
N9    N17   A    
C4    N4    A    
C54   C152  S    
C130  Br18  S    
C21   C29   A    
C8    N8    A    
N3    Ni2   S    
C23   C31   A    
C24   C32   A    
C76   H11   S    
C14   C38   A    
N40   H93   S    
C54   C70   A    
C57   C97   A    
C12   C20   A    
C135  N23   A    
C13   C21   A    
C136  N24   A    
C190  H88   S    
C15   C39   A    
C134  Br22  S    
C87   C103  A    
C94   N14   A    
C170  C178  A    
C192  H96   S    
C31   C48   A    
C32   C168  A    
C32   C47   A    
C49   C73   A    
C11   C179  A    
N27   Ni5   S    
C9    C177  A    
C175  C183  A    
C188  H80   S    
C176  C184  A    
C52   C146  S    
C79   H16   S    
C86   C110  A    
C60   C100  A    
C3    H3    S    
C16   C184  A    
C164  N36   S    
C1    H1    S    
C117  H21   S    
C96   H32   S    
C108  C111  A    
C17   C25   A    
C4    H4    S    
C11   C35   A    
C5    H5    S    
C80   C88   A    
N4    Ni1   S    
C118  H22   S    
C10   C18   A    
C44   Br28  S    
C143  C149  A    
C186  H70   S    
C68   Br3   S    
C137  H33   S    
C69   Br6   S    
N4    N26   A    
C55   C71   A    
N5    Ni3   S    
C141  H37   S    
N13   Ni7   S    
C4    C148  A    
C65   Br2   S    
N24   Ni4   S    
N14   Ni8   S    
N34   C186  S    
C3    C147  A    
N39   H89   S    
C160  C173  S    
C1    C145  A    
C191  H90   S    
C58   C98   A    
C174  C182  A    
C39   H55   S    
C191  H92   S    
C5    C149  A    
C121  H57   S    
C62   C70   A    
C95   C159  A    
C108  C115  A    
C8    C152  A    
C3    N3    A    
C57   Br9   S    
C50   C74   A    
C1    N1    A    
N33   C185  S    
C142  C152  A    
C5    N5    A    
N35   C187  S    
C144  C150  A    
C27   C163  A    
C37   H53   S    
C27   C44   A    
C182  H46   S    
C25   C161  A    
C34   C46   A    
N12   N20   A    
C77   H14   S    
N13   N21   A    
C161  C169  A    
C75   H12   S    
N15   N23   A    
C77   C85   A    
C96   N16   A    
C139  N27   A    
C169  C177  A    
C58   Br10  S    
C55   C149  S    
C81   C105  A    
C106  C113  A    
C91   H27   S    
C187  H75   S    
C89   H25   S    
C53   C69   A    
C80   H15   S    
C89   C153  A    
N31   Ni7   S    
N11   Ni6   S    
C61   C101  A    
C38   H54   S    
C50   C66   A    
N23   Ni3   S    
C20   C23   A    
C186  H72   S    
C130  C154  A    
C51   C67   A    
C134  C158  A    
C13   C181  A    
N38   C190  S    
C45   Br29  S    
C92   H28   S    
C35   H51   S    
C56   C150  S    
N10   N18   A    
C183  H47   S    
C33   H49   S    
C167  C175  A    
C50   C148  S    
C168  C176  A    
C89   N9    A    
C131  Br19  S    
C185  H68   S    
C22   C30   A    
N8    Ni3   S    
C12   C180  A    
C100  C128  A    
C52   C76   A    
C104  C124  A    
C36   H52   S    
C56   C80   A    
C14   C22   A    
C40   H56   S    
C88   C112  A    
C129  C153  A    
C153  C172  S    
C132  C156  A    
C154  C171  S    
C36   C48   A    
C133  C157  A    
C82   C106  A    
C37   C41   A    
C107  C116  A    
C164  C172  A    
C157  C176  S    
C177  H41   S    
C136  C160  A    
C139  H35   S    
C158  C175  S    
C40   C44   A    
C189  H84   S    
C113  C121  A    
C192  H95   S    
C53   C151  S    
C117  C125  A    
N6    Ni4   S    
C62   C102  A    
C106  C109  A    
C119  C127  A    
C125  H61   S    
C18   C26   A    
C166  N38   S    
C76   C84   A    
N28   Ni6   S    
C42   Br26  S    
C11   C19   A    
N1    Ni1   S    
C74   C82   A    
C85   C109  A    
C87   C111  A    
C95   H31   S    
C64   C104  A    
C70   Br5   S    
C29   C165  A    
N5    N31   A    
C116  H20   S    
N6    N32   A    
C66   Br1   S    
C159  C174  S    
C15   C183  A    
C114  H18   S    
C190  H87   S    
C163  C171  A    
C172  C180  A    
C74   H9    S    
C173  C181  A    
C185  H66   S    
C94   C158  A    
C83   C99   A    
C9    C33   A    
N25   Ni6   S    
C7    H7    S    
C132  Br20  S    
C110  C117  A    
C123  H59   S    
N37   C189  S    
N17   Ni2   S    
C188  H79   S    
N40   C192  S    
C166  C174  A    
C93   H29   S    
C62   Br14  S    
C135  C159  A    
C63   C103  A    
C140  C146  A    
C167  N39   S    
C99   C127  A    
C67   Br4   S    
C180  H44   S    
C101  C121  A    
N20   Ni2   S    
C120  H24   S    
C53   C77   A    
N36   H77   S    
N32   Ni8   S    
N14   N22   A    
C55   C79   A    
C189  H82   S    
C162  C170  A    
N9    Ni5   S    
C41   Br25  S    
C7    C151  A    
C97   C125  A    
C134  N22   A    
C129  N17   A    
C30   C166  A    
N15   Ni8   S    
C116  C124  A    
C7    N7    A    
C137  C147  A    
C57   C65   A    
C25   C42   A    
C112  C119  A    
C120  C128  A    
C20   C28   A    
C28   C43   A    
C17   C22   A    
C29   C46   A    
C171  C179  A    
C131  C155  A    
C19   C24   A    
C187  H74   S    
C155  C170  S    
C75   C83   A    
N33   H65   S    
C84   C108  A    
C26   C162  A    
C71   Br8   S    
N35   H73   S    
C8    H8    S    
C72   Br7   S    
N11   N19   A    
N34   H69   S    
C130  N18   A    
C98   C126  A    
C60   C68   A    
C102  C122  A    
C54   C78   A    
N38   H85   S    
C63   Br15  S    
C64   Br16  S    
C59   C99   A    
C133  Br21  S    
C122  H58   S    
C49   C147  S    
C49   C65   A    
N8    N30   A    
C51   C75   A    
C38   C42   A    
C46   Br30  S    
C143  H39   S    
N19   Ni1   S    
C165  C173  A    
C144  N32   A    
C156  C169  S    
C6    N6    A    
C31   C167  A    
C58   C66   A    
C181  H45   S    
C186  H71   S    
N7    Ni4   S    
N21   Ni4   S    
C78   H13   S    
N22   Ni3   S    
C12   C36   A    
C19   C27   A    
C13   C37   A    
N12   Ni5   S    
C52   C68   A    
C86   C102  A    
C59   C67   A    
C78   C86   A    
C168  N40   S    
C15   C23   A    
C16   C24   A    
C179  H43   S    
N2    Ni2   S    
C47   Br31  S    
C92   N12   A    
C93   N13   A    
C185  H67   S    
C178  H42   S    
C128  H64   S    
C105  C114  A    
C91   N11   A    
C184  H48   S    
C138  C148  A    
C90   H26   S    
C39   C43   A    
C111  C120  A    
C2    H2    S    
C91   C155  A    
C191  H91   S    
C132  N20   A    
C2    N2    A    
C133  N21   A    
C6    H6    S    
C143  N31   A    
C10   C34   A    
N26   Ni5   S    
C6    C150  A    
C93   C157  A    
N36   C188  S    
C165  N37   S    
N18   Ni1   S    
C9    C17   A    
C96   C160  A    
C16   C40   A    
C59   Br11  S    
C119  H23   S    
C34   H50   S    
C85   C101  A    
C28   C164  A    
C61   C69   A    
C139  C145  A    
N16   Ni7   S    
N3    N25   A    
C63   C71   A    
C187  H76   S    
C2    C146  A    
N10   Ni6   S    
C140  N28   A    
C141  N29   A    
C90   C154  A    
C81   C97   A    
C137  N25   A    
C83   C107  A    
C64   C72   A    
C144  H40   S    
C114  C122  A    
C127  H63   S    
C138  H34   S    
N39   C191  S    
C161  N33   S    
C118  C126  A    
C190  H86   S    
C142  H38   S    
C26   C41   A    
C90   N10   A    
