data_mof_unit_3237.cif
_audit_creation_date              2012-10-26T18:32:20-0400
_audit_creation_method            fapswitch 2.2
_symmetry_space_group_name_H-M    P1
_symmetry_Int_Tables_number       1
_space_group_crystal_system       triclinic
_cell_length_a                    12.397747
_cell_length_b                    13.158161
_cell_length_c                    15.884693
_cell_angle_alpha                 76.861035
_cell_angle_beta                  101.509242
_cell_angle_gamma                 116.815205
_cell_volume                      2238.03600194

loop_
_atom_site_label
_atom_site_type_symbol
_atom_type_description
_atom_site_fract_x
_atom_site_fract_y
_atom_site_fract_z
_atom_type_partial_charge
Br1   Br    Br    0.009458 0.734495 0.046913 -0.433776
Br2   Br    Br    0.199728 0.141973 0.352100 -0.450923
Br3   Br    Br    0.984935 0.104581 0.533309 -0.415457
Br4   Br    Br    0.342509 0.204787 0.736109 -0.441869
C1    C     C_R   0.855272 0.286691 0.502774 0.549963
C2    C     C_R   0.226957 0.837024 0.474390 -0.023476
C3    C     C_R   0.816743 0.076861 0.519416 0.169808
C4    C     C_R   0.999842 0.499477 0.659499 0.556351
C5    C     C_R   0.735029 0.961281 0.529101 -0.086089
C6    C     C_R   0.610826 0.928996 0.515689 -0.134287
C7    C     C_R   0.563637 0.012176 0.485423 0.035950
C8    C     C_R   0.646526 0.129297 0.466000 -0.001048
C9    C     C_R   0.436484 0.981757 0.469945 0.020854
C10   C     C_R   0.393088 0.065257 0.425649 0.060229
C11   C     C_R   0.476829 0.176545 0.396507 -0.100605
C12   C     C_3   0.055486 0.420243 0.072529 -0.145357
C13   C     C_R   0.600697 0.207127 0.414635 -0.118212
C14   C     C_R   0.351209 0.870001 0.497428 -0.115074
C15   C     C_R   0.184598 0.919738 0.431918 -0.072521
C16   C     C_R   0.144885 0.713877 0.488552 0.558367
C17   C     C_R   0.773148 0.163668 0.494624 0.003908
C18   C     C_R   0.345540 0.324503 0.637971 0.128156
C19   C     C_R   0.755737 0.636428 0.376675 0.055897
C20   C     C_R   0.650029 0.647622 0.337842 -0.044389
C21   C     C_R   0.544088 0.586120 0.378776 -0.125514
C22   C     C_R   0.544718 0.520713 0.462724 -0.018590
C23   C     C_3   0.993977 0.497289 0.082750 0.011855
C24   C     C_R   0.651565 0.502232 0.494364 0.171920
C25   C     C_R   0.442232 0.466755 0.513788 -0.037332
C26   C     C_R   0.444072 0.382302 0.587519 0.034897
C27   C     C_R   0.545894 0.358254 0.611363 -0.126849
C28   C     C_R   0.999919 0.500214 0.340528 0.558813
C29   C     C_R   0.647604 0.418621 0.567444 -0.091732
C30   C     C_R   0.340820 0.495870 0.498607 0.112520
C31   C     C_R   0.247406 0.354229 0.617482 0.147361
C32   C     C_3   0.054446 0.420140 0.974426 -0.238726
C33   C     C_3   0.857314 0.447998 0.938000 -0.018201
C34   C     C_3   0.065579 0.622038 0.034840 0.047603
C35   C     C_3   0.859353 0.441960 0.038969 -0.106123
C36   C     C_1   0.998651 0.499189 0.251072 0.033339
C37   C     C_3   0.992102 0.495450 0.916408 -0.017888
C38   C     C_1   0.180663 0.456071 0.117441 0.214119
C39   C     C_1   0.148348 0.297031 0.670634 0.365779
C40   C     C_1   0.340098 0.593614 0.435692 0.251608
C41   C     C_1   0.648506 0.717316 0.253731 0.225190
C42   C     C_1   0.798913 0.521625 0.883884 0.235811
C43   C     C_1   0.783306 0.331231 0.914526 0.184247
C44   C     C_1   0.779794 0.487171 0.060605 0.259136
C45   C     C_3   0.065979 0.620033 0.937793 -0.201133
C46   C     C_1   0.996811 0.498230 0.175542 -0.007688
C47   C     C_1   0.996626 0.496859 0.824409 -0.043061
C48   C     C_1   0.998926 0.498095 0.749104 0.012016
C49   C     C_R   0.266587 0.033982 0.408792 0.177567
Cu1   Cu    Cu3+1 0.098280 0.475420 0.519630 1.029452
Cu2   Cu    Cu3+1 0.901720 0.524580 0.480370 0.944943
H1    H     H_    0.002572 0.330069 0.103347 0.140033
H2    H     H_    0.550631 0.294349 0.666532 0.183227
H3    H     H_    0.837290 0.680852 0.343978 0.151089
H4    H     H_    0.461469 0.584588 0.340712 0.157211
H5    H     H_    0.720604 0.394537 0.592114 0.187037
H6    H     H_    0.820097 0.349728 0.069999 0.102884
H7    H     H_    0.161645 0.653389 0.923750 0.130791
H8    H     H_    0.029049 0.679214 0.894947 0.189372
H9    H     H_    0.161535 0.655950 0.065282 0.163264
H10   H     H_    0.148505 0.452845 0.957024 0.154040
H11   H     H_    0.088015 0.895351 0.414919 0.171164
H12   H     H_    0.447871 0.240930 0.358188 0.174276
H13   H     H_    0.379334 0.806060 0.536779 0.136542
H14   H     H_    0.554520 0.837468 0.524157 0.119484
H15   H     H_    0.768092 0.894969 0.547672 0.162230
H16   H     H_    0.005765 0.329973 0.960748 0.156748
H17   H     H_    0.659146 0.291081 0.383332 0.162435
N1    N     N_R   0.246300 0.438200 0.549400 -0.281915
N2    N     N_R   0.754300 0.561180 0.451130 -0.251665
N3    N     N_1   0.278484 0.484072 0.152679 -0.241636
N4    N     N_1   0.069392 0.250471 0.713858 -0.226808
N5    N     N_1   0.340171 0.672392 0.384989 -0.295916
N6    N     N_1   0.647263 0.773287 0.186152 -0.211885
N7    N     N_1   0.753477 0.578971 0.841587 -0.235296
N8    N     N_1   0.725496 0.240001 0.896129 -0.236059
N9    N     N_1   0.717392 0.521894 0.077685 -0.205511
O1    O     O_R   0.972520 0.318130 0.524690 -0.449219
O2    O     O_R   0.806530 0.359650 0.491530 -0.544474
O3    O     O_R   0.083030 0.479240 0.637150 -0.502098
O4    O     O_R   0.917040 0.520750 0.603990 -0.511400
O5    O     O_R   0.193470 0.640350 0.508470 -0.500451
O6    O     O_R   0.027480 0.681870 0.475310 -0.503485
O7    O     O_R   0.082960 0.479250 0.396010 -0.474178
O8    O     O_R   0.916970 0.520760 0.362850 -0.511571

loop_
_geom_bond_atom_site_label_1
_geom_bond_atom_site_label_2
_ccdc_geom_bond_type
C19   H3    S    
C45   H8    S    
C24   N2    A    
Cu1   O3    S    
C34   C45   S    
C18   C31   A    
C38   N3    T    
C9    C14   A    
C20   C41   S    
C40   N5    T    
Br3   C3    S    
C42   N7    T    
C1    O2    A    
C23   C34   S    
C14   H13   S    
C28   O7    A    
C16   O6    A    
C44   N9    T    
C15   H11   S    
C3    C5    A    
C4    O4    A    
Cu2   N2    S    
C23   C35   S    
C16   O5    A    
C8    C13   A    
C19   C20   A    
C27   C29   A    
C41   N6    T    
C33   C43   S    
C31   C39   S    
C5    C6    A    
C4    C48   S    
C32   H16   S    
C15   C49   A    
C12   C23   S    
C9    C10   A    
Cu2   O6    S    
C32   C37   S    
C43   N8    T    
C35   H6    S    
C37   C45   S    
C34   H9    S    
C2    C14   A    
C47   C48   T    
C30   C40   S    
C20   C21   A    
Cu1   O5    S    
C32   H10   S    
C21   C22   A    
C3    C17   A    
C25   C30   A    
Cu2   O4    S    
C12   H1    S    
C25   C26   A    
C2    C15   A    
Cu1   N1    S    
Br4   C18   S    
C28   O8    A    
C11   H12   S    
C5    H15   S    
Br1   C34   S    
C22   C25   A    
C24   C29   A    
C29   H5    S    
C19   N2    A    
Cu2   O2    S    
C12   C38   S    
Cu1   O1    S    
C39   N4    T    
C11   C13   A    
Cu1   Cu2   S    
C31   N1    A    
C45   H7    S    
C18   C26   A    
C4    O3    A    
Br2   C49   S    
C7    C8    A    
C23   C46   S    
C2    C16   S    
C22   C24   A    
C27   H2    S    
C33   C35   S    
C12   C32   S    
Cu1   O7    S    
C1    O1    A    
C7    C9    A    
C26   C27   A    
C36   C46   T    
C8    C17   A    
C28   C36   S    
C33   C37   S    
C6    C7    A    
C30   N1    A    
C6    H14   S    
C10   C49   A    
C1    C17   S    
C13   H17   S    
Cu2   O8    S    
C10   C11   A    
C21   H4    S    
C33   C42   S    
C37   C47   S    
C35   C44   S    
