data_mof_unit_2169.cif
_audit_creation_date              2012-12-10T16:57:10-0500
_audit_creation_method            fapswitch 2.2
_symmetry_space_group_name_H-M    P1
_symmetry_Int_Tables_number       1
_space_group_crystal_system       triclinic
_cell_length_a                    7.766707
_cell_length_b                    8.580949
_cell_length_c                    16.545996
_cell_angle_alpha                 91.689612
_cell_angle_beta                  80.851271
_cell_angle_gamma                 93.701409
_cell_volume                      1086.21425278

loop_
_atom_site_label
_atom_site_type_symbol
_atom_type_description
_atom_site_fract_x
_atom_site_fract_y
_atom_site_fract_z
_atom_type_partial_charge
C1    C     C_R   0.546181 0.794810 0.497986 0.958397
C2    C     C_R   0.381135 0.479567 0.219916 0.610359
C3    C     C_R   0.533702 0.260562 0.835451 -0.243620
C4    C     C_R   0.377407 0.422090 0.140980 -0.235352
C5    C     C_R   0.390327 0.303121 0.892451 0.099199
C6    C     C_R   0.518302 0.341926 0.099214 0.108177
C7    C     C_R   0.272676 0.404828 0.870378 -0.156812
C8    C     C_R   0.666487 0.327117 0.135786 -0.174900
C9    C     C_R   0.304024 0.471301 0.793409 -0.252980
C10   C     C_R   0.670928 0.384783 0.214729 -0.252797
C11   C     C_2   0.379758 0.268647 0.979012 -0.194683
C12   C     C_R   0.453808 0.205194 0.502126 0.962662
C13   C     C_2   0.524242 0.292491 0.013528 -0.182618
C14   C     C_2   0.570522 0.958257 0.496920 -0.348557
C15   C     C_2   0.429445 0.041782 0.503429 -0.358495
C16   C     C_R   0.476050 0.492420 0.654434 0.894393
C17   C     C_R   0.521589 0.494207 0.345100 0.901393
C18   C     C_R   0.453469 0.436467 0.737995 -0.174022
C19   C     C_R   0.526944 0.458612 0.257990 -0.175418
C20   C     C_R   0.566624 0.327861 0.758984 0.612592
F1    F     F_    0.706607 0.283307 0.705240 -0.659536
F2    F     F_    0.241953 0.554988 0.258724 -0.664953
H1    H     H_    0.784977 0.366978 0.242667 0.201607
H2    H     H_    0.296233 0.990722 0.509644 0.184601
H3    H     H_    0.022737 0.380376 0.439310 0.203320
H4    H     H_    0.977270 0.619656 0.560667 0.194668
H5    H     H_    0.212672 0.551022 0.777454 0.184278
H6    H     H_    0.652317 0.300135 0.975705 0.150593
H7    H     H_    0.251424 0.261468 0.016438 0.147693
H8    H     H_    0.161810 0.439141 0.914160 0.143811
H9    H     H_    0.778483 0.270159 0.103326 0.145562
H10   H     H_    0.265688 0.444477 0.112451 0.154122
H11   H     H_    0.623543 0.179166 0.851166 0.161987
H12   H     H_    0.703731 0.009327 0.490735 0.188472
N1    N     N_2   0.953500 0.457650 0.478520 -0.141446
N2    N     N_2   0.046500 0.542350 0.521480 -0.149816
O1    O     O_R   0.388470 0.738640 0.505270 -0.611762
O2    O     O_R   0.611530 0.261360 0.494730 -0.601007
O3    O     O_R   0.679650 0.711510 0.491500 -0.627778
O4    O     O_R   0.320350 0.288490 0.508500 -0.630525
O5    O     O_R   0.337210 0.515200 0.623500 -0.619034
O6    O     O_R   0.662790 0.484800 0.376500 -0.619950
O7    O     O_R   0.628380 0.488060 0.609730 -0.564438
O8    O     O_R   0.371620 0.511940 0.390270 -0.564865
Zn1   Zn    Zn3+2 0.305580 0.518120 0.509190 0.994491
Zn2   Zn    Zn3+2 0.694420 0.481880 0.490810 1.002989

loop_
_geom_bond_atom_site_label_1
_geom_bond_atom_site_label_2
_ccdc_geom_bond_type
C14   H12   S    
C2    C4    A    
C3    H11   S    
C13   H6    S    
C12   O4    A    
C10   H1    S    
N1    N2    D    
C12   C15   S    
C1    O1    A    
C10   C19   A    
C17   O8    A    
N2    Zn1   S    
C7    H8    S    
C2    F2    S    
C20   F1    S    
C6    C13   S    
C11   C13   D    
C16   O7    A    
C11   H7    S    
C4    H10   S    
H3    N1    S    
O3    Zn2   S    
H4    N2    S    
C15   H2    S    
C17   C19   S    
C5    C11   S    
C18   C20   A    
C12   O2    A    
O4    Zn1   S    
O7    Zn2   S    
O2    Zn2   S    
C4    C6    A    
C1    O3    A    
O1    Zn1   S    
C7    C9    A    
C9    C18   A    
C3    C20   A    
O8    Zn1   S    
C9    H5    S    
C16   C18   S    
O6    Zn2   S    
C5    C7    A    
O5    Zn1   S    
C14   C15   D    
C6    C8    A    
C1    C14   S    
C2    C19   A    
C17   O6    A    
N1    Zn2   S    
C16   O5    A    
C8    C10   A    
C8    H9    S    
C3    C5    A    
