data_mof_unit_1382.cif
_audit_creation_date              2012-12-10T17:30:24-0500
_audit_creation_method            fapswitch 2.2
_symmetry_space_group_name_H-M    P1
_symmetry_Int_Tables_number       1
_space_group_crystal_system       triclinic
_cell_length_a                    11.980569
_cell_length_b                    12.820419
_cell_length_c                    14.971047
_cell_angle_alpha                 91.485862
_cell_angle_beta                  86.242377
_cell_angle_gamma                 93.817624
_cell_volume                      2288.91952815

loop_
_atom_site_label
_atom_site_type_symbol
_atom_type_description
_atom_site_fract_x
_atom_site_fract_y
_atom_site_fract_z
_atom_type_partial_charge
C1    C     C_R   0.522572 0.700209 0.496977 0.924827
C2    C     C_R   0.477705 0.299950 0.505749 0.929942
C3    C     C_R   0.441836 0.680685 0.970464 -0.011009
C4    C     C_R   0.559660 0.314495 0.029407 -0.019016
C5    C     C_R   0.462989 0.188621 0.509000 -0.141918
C6    C     C_R   0.537809 0.811440 0.500097 -0.155284
C7    C     C_R   0.616625 0.964624 0.574017 -0.197548
C8    C     C_R   0.375025 0.032206 0.447423 -0.195397
C9    C     C_R   0.616556 0.858656 0.555538 -0.333299
C10   C     C_R   0.376647 0.138514 0.462677 -0.332814
C11   C     C_R   0.462337 0.869559 0.458494 0.484868
C12   C     C_R   0.543157 0.132559 0.548325 0.469056
C13   C     C_R   0.458904 0.975343 0.479761 -0.022873
C14   C     C_R   0.539899 0.024432 0.534944 -0.010491
C15   C     C_R   0.953403 0.397803 0.418544 -0.339522
C16   C     C_R   0.046649 0.602577 0.581070 -0.333350
C17   C     C_R   0.837402 0.408551 0.425913 -0.006164
C18   C     C_R   0.162734 0.592276 0.573283 0.053279
C19   C     C_R   0.858849 0.544822 0.534700 -0.044600
C20   C     C_R   0.141098 0.454861 0.465579 -0.045056
C21   C     C_R   0.976131 0.537355 0.529433 0.090696
C22   C     C_R   0.023842 0.462540 0.470633 0.095548
C23   C     C_R   0.500787 0.505301 0.673011 0.884974
C24   C     C_R   0.498853 0.492556 0.327109 0.882583
C25   C     C_R   0.542153 0.403300 0.179862 -0.093866
C26   C     C_R   0.456265 0.591303 0.820842 -0.093520
C27   C     C_R   0.496550 0.485885 0.231410 -0.102644
C28   C     C_R   0.502400 0.509598 0.768661 -0.105391
C29   C     C_R   0.450403 0.567936 0.191869 -0.266978
C30   C     C_R   0.548047 0.426532 0.807553 -0.257007
C31   C     C_R   0.457803 0.575865 0.100232 0.113468
C32   C     C_R   0.542387 0.418984 0.899421 0.109137
C33   C     C_R   0.498118 0.493099 0.046518 0.038572
C34   C     C_R   0.502991 0.501921 0.953401 0.036472
C35   C     C_R   0.532804 0.401722 0.085970 0.021452
C36   C     C_R   0.467792 0.593146 0.914214 0.019376
C37   C     C_R   0.431134 0.668512 0.062654 -0.278694
C38   C     C_R   0.569773 0.326653 0.937068 -0.273473
H1    H     H_    0.987486 0.339497 0.372716 0.142545
H2    H     H_    0.012588 0.661101 0.626693 0.141685
H3    H     H_    0.415950 0.629954 0.233296 0.159663
H4    H     H_    0.580242 0.363387 0.765658 0.175764
H5    H     H_    0.408956 0.734308 0.105776 0.134401
H6    H     H_    0.591954 0.260912 0.893814 0.151140
H7    H     H_    0.314898 0.182516 0.432973 0.173997
H8    H     H_    0.673377 0.812502 0.588809 0.170454
H9    H     H_    0.674279 0.997995 0.621123 0.181115
H10   H     H_    0.309909 0.995428 0.408152 0.197949
H11   H     H_    0.179431 0.397893 0.420804 0.117516
H12   H     H_    0.820482 0.601564 0.579683 0.119171
H13   H     H_    0.217506 0.642733 0.612065 0.160380
H14   H     H_    0.782740 0.358608 0.386551 0.161106
N1    N     N_R   0.207800 0.519350 0.516680 -0.104006
N2    N     N_R   0.792200 0.480650 0.483320 -0.104790
O1    O     O_R   0.421700 0.658830 0.504450 -0.577598
O2    O     O_R   0.578300 0.341170 0.495550 -0.603540
O3    O     O_R   0.609310 0.646410 0.493750 -0.637089
O4    O     O_R   0.390690 0.353590 0.506250 -0.638937
O5    O     O_R   0.406180 0.506230 0.637500 -0.619687
O6    O     O_R   0.593820 0.493770 0.362500 -0.615307
O7    O     O_R   0.593800 0.493820 0.626800 -0.621575
O8    O     O_R   0.406200 0.506180 0.373200 -0.614229
Zn1   Zn    Zn3+2 0.374730 0.508290 0.507150 0.967970
Zn2   Zn    Zn3+2 0.625270 0.491710 0.492850 0.948607
C39   C     C_R   0.610855 0.327863 0.221600 0.141404
C40   C     C_R   0.726019 0.327133 0.196629 -0.130003
C41   C     C_R   0.789317 0.248912 0.226752 -0.174431
C42   C     C_R   0.738291 0.171268 0.282249 -0.147163
C43   C     C_R   0.624365 0.172592 0.308554 -0.124428
C44   C     C_R   0.560895 0.251501 0.279614 -0.123575
H15   H     H_    0.765844 0.385439 0.151822 0.128264
H16   H     H_    0.877618 0.247988 0.206448 0.129043
H17   H     H_    0.786947 0.110025 0.304828 0.126294
H18   H     H_    0.585129 0.111222 0.350078 0.136319
H19   H     H_    0.472062 0.250221 0.298588 0.103426
C45   C     C_R   0.382675 0.664188 0.781101 0.141133
C46   C     C_R   0.427320 0.741601 0.722053 -0.127814
C47   C     C_R   0.359401 0.817996 0.694751 -0.093561
C48   C     C_R   0.246305 0.816116 0.724396 -0.135132
C49   C     C_R   0.200468 0.737381 0.781099 -0.186571
C50   C     C_R   0.268206 0.661501 0.809243 -0.132275
H20   H     H_    0.515580 0.745494 0.701135 0.104732
H21   H     H_    0.394569 0.880002 0.652080 0.147180
H22   H     H_    0.194210 0.875539 0.703322 0.132006
H23   H     H_    0.112775 0.735692 0.803886 0.131586
H24   H     H_    0.232385 0.602361 0.854983 0.130044
C51   C     C_R   0.442641 0.789191 0.938003 0.151885
C52   C     C_R   0.349997 0.849593 0.957208 -0.149431
C53   C     C_R   0.353076 0.952958 0.929002 -0.120976
C54   C     C_R   0.449012 0.997233 0.882672 -0.071159
C55   C     C_R   0.542218 0.938323 0.864697 -0.133280
C56   C     C_R   0.539514 0.834920 0.892753 -0.165153
H25   H     H_    0.275286 0.816300 0.993278 0.120606
H26   H     H_    0.281248 0.998917 0.943441 0.120597
H27   H     H_    0.451402 0.077378 0.861233 0.125631
H28   H     H_    0.616714 0.972896 0.829302 0.126705
H29   H     H_    0.612616 0.790340 0.879015 0.121516
C57   C     C_R   0.559844 0.205808 0.061095 0.151112
C58   C     C_R   0.462224 0.157820 0.103441 -0.150151
C59   C     C_R   0.459783 0.053439 0.128849 -0.144824
C60   C     C_R   0.554074 0.995876 0.111135 -0.086721
C61   C     C_R   0.650899 0.042534 0.067861 -0.110712
C62   C     C_R   0.653683 0.146845 0.042246 -0.148827
H30   H     H_    0.388153 0.201226 0.116544 0.120046
H31   H     H_    0.384492 0.016950 0.161641 0.118818
H32   H     H_    0.551817 0.914871 0.130196 0.112427
H33   H     H_    0.723557 0.997623 0.053570 0.118429
H34   H     H_    0.728913 0.181876 0.008117 0.120073
O9    O     O_3   0.619803 0.183928 0.602865 -0.627786
C63   C     C_3   0.726896 0.196404 0.556848 -0.269602
H35   H     H_    0.765581 0.274303 0.575353 0.205180
H36   H     H_    0.725381 0.192277 0.482482 0.149778
H37   H     H_    0.782721 0.137793 0.578684 0.144958
O10   O     O_3   0.388361 0.821501 0.400538 -0.594028
C64   C     C_3   0.436007 0.833162 0.312384 -0.386773
H38   H     H_    0.372542 0.805118 0.265152 0.188460
H39   H     H_    0.510330 0.785795 0.300861 0.163971
H40   H     H_    0.459881 0.916405 0.296652 0.161710

loop_
_geom_bond_atom_site_label_1
_geom_bond_atom_site_label_2
_ccdc_geom_bond_type
C51   C52   A    
C16   H2    S    
C8    C13   A    
C4    C57   S    
C27   C29   A    
C11   C13   A    
C24   C27   S    
C6    C9    A    
O10   C64   S    
C54   H27   S    
C46   C47   A    
C23   O5    A    
C59   H31   S    
C16   C21   A    
C3    C36   A    
C21   C22   A    
C19   C21   A    
C48   H22   S    
C39   C44   A    
C60   H32   S    
C7    C9    A    
C41   H16   S    
C53   H26   S    
C11   O10   S    
C63   H35   S    
C18   N1    A    
C55   H28   S    
C47   H21   S    
C15   C22   A    
O8    Zn1   S    
C58   C59   A    
C42   C43   A    
C64   H39   S    
O1    Zn1   S    
C56   H29   S    
C26   C45   S    
O2    Zn2   S    
C62   H34   S    
C32   C38   A    
C50   H24   S    
C58   H30   S    
C4    C35   A    
C9    H8    S    
C13   C14   A    
C49   H23   S    
C43   C44   A    
C17   H14   S    
C12   O9    S    
C18   H13   S    
C7    C14   A    
C3    C51   S    
C41   C42   A    
C60   C61   A    
C61   H33   S    
C25   C39   S    
C45   C46   A    
C5    C12   A    
C55   C56   A    
C47   C48   A    
C49   C50   A    
C42   H17   S    
C1    C6    S    
C7    H9    S    
C37   H5    S    
O7    Zn2   S    
C8    H10   S    
C38   H6    S    
C20   H11   S    
C1    O3    A    
C40   H15   S    
C24   O6    A    
C64   H40   S    
C10   H7    S    
C31   C33   A    
C33   C34   A    
C43   H18   S    
C23   C28   S    
C63   H37   S    
C15   H1    S    
C25   C35   A    
C19   N2    A    
C26   C36   A    
C4    C38   A    
C57   C58   A    
C2    C5    S    
C6    C11   A    
O3    Zn2   S    
O4    Zn1   S    
C15   C17   A    
C52   H25   S    
C24   O8    A    
C29   H3    S    
C26   C28   A    
C8    C10   A    
C20   C22   A    
C20   N1    A    
C45   C50   A    
C2    O4    A    
C25   C27   A    
O5    Zn1   S    
O6    Zn2   S    
C28   C30   A    
C12   C14   A    
C5    C10   A    
C29   C31   A    
C2    O2    A    
O9    C63   S    
C30   C32   A    
N1    Zn1   S    
C19   H12   S    
C54   C55   A    
N2    Zn2   S    
C46   H20   S    
C59   C60   A    
C33   C35   A    
C40   C41   A    
C34   C36   A    
C1    O1    A    
C61   C62   A    
C63   H36   S    
C48   C49   A    
C31   C37   A    
C23   O7    A    
C52   C53   A    
C3    C37   A    
C16   C18   A    
C39   C40   A    
C44   H19   S    
C30   H4    S    
C64   H38   S    
C53   C54   A    
C51   C56   A    
C17   N2    A    
C57   C62   A    
C32   C34   A    
