data_mof_unit_2329.cif
_audit_creation_date              2012-12-10T20:21:38-0500
_audit_creation_method            fapswitch 2.2
_symmetry_space_group_name_H-M    P1
_symmetry_Int_Tables_number       1
_space_group_crystal_system       triclinic
_cell_length_a                    19.251389
_cell_length_b                    18.515168
_cell_length_c                    8.881424
_cell_angle_alpha                 89.754415
_cell_angle_beta                  90.323492
_cell_angle_gamma                 89.975189
_cell_volume                      3165.63889631

loop_
_atom_site_label
_atom_site_type_symbol
_atom_type_description
_atom_site_fract_x
_atom_site_fract_y
_atom_site_fract_z
_atom_type_partial_charge
C1    C     C_R   0.365883 0.500028 0.499760 0.846934
C2    C     C_R   0.634036 0.499978 0.500734 0.845030
C3    C     C_R   0.544635 0.725768 0.592951 0.542553
C4    C     C_R   0.455039 0.274311 0.407670 0.541902
C5    C     C_R   0.455292 0.726061 0.407004 0.537749
C6    C     C_R   0.544958 0.273885 0.592304 0.538647
C7    C     C_R   0.546626 0.802061 0.590173 -0.400052
C8    C     C_R   0.453178 0.198010 0.409931 -0.400870
C9    C     C_R   0.453395 0.802369 0.409113 -0.401531
C10   C     C_R   0.546874 0.197591 0.589909 -0.400814
C11   C     C_R   0.500027 0.841491 0.499528 0.016138
C12   C     C_R   0.500049 0.158534 0.499844 0.016182
C13   C     C_R   0.486836 0.962381 0.366570 -0.193887
C14   C     C_R   0.513202 0.037664 0.632733 -0.193928
C15   C     C_R   0.513157 0.961765 0.632663 -0.194390
C16   C     C_R   0.486855 0.038287 0.366657 -0.194428
C17   C     C_R   0.500049 0.077245 0.499738 0.187127
C18   C     C_R   0.499995 0.922793 0.499572 0.187184
C19   C     C_R   0.500399 0.500096 0.218567 0.924267
C20   C     C_R   0.499573 0.499901 0.781432 0.924187
C21   C     C_1   0.500208 0.500131 0.065404 -0.230770
C22   C     C_1   0.499716 0.499847 0.934595 -0.230135
C23   C     C_R   0.745265 0.452371 0.411827 -0.191104
C24   C     C_R   0.256066 0.552991 0.584448 -0.182418
C25   C     C_R   0.254256 0.447391 0.422177 -0.195761
C26   C     C_R   0.743773 0.547147 0.600849 -0.193636
C27   C     C_R   0.817214 0.453185 0.413747 -0.191126
C28   C     C_R   0.184189 0.552481 0.588883 -0.199686
C29   C     C_R   0.182306 0.448046 0.423526 -0.205585
C30   C     C_R   0.815684 0.546239 0.606323 -0.197279
C31   C     C_R   0.852161 0.499778 0.511673 0.170813
C32   C     C_R   0.147491 0.500339 0.507578 0.185928
C33   C     C_R   0.708732 0.499909 0.504250 -0.005679
C34   C     C_R   0.291041 0.500174 0.501854 -0.011915
C35   C     C_R   0.962484 0.549378 0.415467 0.118947
C36   C     C_R   0.037043 0.452537 0.608119 0.117562
C37   C     C_R   0.035752 0.549367 0.414034 0.116833
C38   C     C_R   0.963762 0.452727 0.609804 0.117648
C39   C     C_R   0.071930 0.500737 0.509961 -0.067541
C40   C     C_R   0.927643 0.500825 0.512821 -0.069236
H1    H     H_    0.718153 0.416025 0.336416 0.143243
H2    H     H_    0.284348 0.593665 0.647130 0.148661
H3    H     H_    0.281123 0.406615 0.357579 0.183865
H4    H     H_    0.715500 0.583570 0.673322 0.176748
H5    H     H_    0.845747 0.417852 0.339380 0.132392
H6    H     H_    0.156989 0.592916 0.653798 0.130620
H7    H     H_    0.153632 0.407736 0.360677 0.132997
H8    H     H_    0.842990 0.581781 0.683003 0.133298
H9    H     H_    0.585168 0.830170 0.656931 0.160313
H10   H     H_    0.414458 0.169920 0.343621 0.159744
H11   H     H_    0.414824 0.830718 0.342305 0.160146
H12   H     H_    0.585570 0.169205 0.656314 0.160662
H13   H     H_    0.477640 0.934681 0.261236 0.126424
H14   H     H_    0.522408 0.065372 0.738056 0.126460
H15   H     H_    0.522317 0.933583 0.737964 0.126218
H16   H     H_    0.477656 0.066494 0.261396 0.126363
N1    N     N_R   0.500000 0.689440 0.500000 -0.164933
N2    N     N_R   0.500000 0.310560 0.500000 -0.164601
O1    O     O_R   0.398180 0.560840 0.499960 -0.582497
O2    O     O_R   0.601820 0.439160 0.500040 -0.580058
O3    O     O_R   0.601820 0.560840 0.500040 -0.583680
O4    O     O_R   0.398180 0.439160 0.499960 -0.584292
O5    O     O_R   0.500000 0.560800 0.285330 -0.604253
O6    O     O_R   0.500000 0.439200 0.714670 -0.604863
O7    O     O_R   0.500000 0.560800 0.714670 -0.606766
O8    O     O_R   0.500000 0.439200 0.285330 -0.607062
Zn1   Zn    Zn3+2 0.500000 0.581210 0.500000 1.001364
Zn2   Zn    Zn3+2 0.500000 0.418790 0.500000 1.001673
C41   C     C_3   0.921018 0.600718 0.313451 -0.391257
C42   C     C_3   0.909527 0.673953 0.388196 -0.869583
H17   H     H_    0.875226 0.668354 0.487241 0.264458
H18   H     H_    0.959363 0.698118 0.425773 0.248248
H19   H     H_    0.884262 0.711407 0.306716 0.249701
H20   H     H_    0.946728 0.608688 0.203464 0.205229
H21   H     H_    0.869739 0.577940 0.281947 0.212416
C43   C     C_3   0.078586 0.402325 0.712437 -0.387675
C44   C     C_3   0.095471 0.438762 0.861963 -0.887118
H22   H     H_    0.127076 0.488046 0.843845 0.271288
H23   H     H_    0.047039 0.453797 0.920916 0.250364
H24   H     H_    0.125405 0.401020 0.935011 0.250137
H25   H     H_    0.050990 0.351044 0.734819 0.210185
H26   H     H_    0.127670 0.384380 0.660081 0.213016
C45   C     C_3   0.075839 0.599462 0.307842 -0.386001
C46   C     C_3   0.089777 0.563225 0.157043 -0.886575
H27   H     H_    0.121755 0.513934 0.172853 0.272223
H28   H     H_    0.040244 0.548222 0.101216 0.248483
H29   H     H_    0.118279 0.601041 0.082268 0.250696
H30   H     H_    0.048294 0.651068 0.287690 0.209619
H31   H     H_    0.125975 0.616853 0.357333 0.214777
C47   C     C_3   0.923614 0.402232 0.714891 -0.391352
C48   C     C_3   0.910567 0.328606 0.642781 -0.867325
H32   H     H_    0.874098 0.333669 0.546456 0.265634
H33   H     H_    0.959556 0.304214 0.601902 0.247525
H34   H     H_    0.887120 0.291603 0.727018 0.249652
H35   H     H_    0.950990 0.394759 0.823797 0.204861
H36   H     H_    0.872978 0.425687 0.748050 0.212105
O9    O     O_3   0.591501 0.686968 0.679900 -0.582433
C49   C     C_3   0.577800 0.698577 0.834136 0.103276
H37   H     H_    0.523006 0.684566 0.861584 0.141172
H38   H     H_    0.587868 0.755605 0.866444 0.116336
C50   C     C_3   0.625608 0.650852 0.928589 -0.824583
H39   H     H_    0.680525 0.667083 0.911300 0.241485
H40   H     H_    0.612725 0.656521 0.049709 0.208373
H41   H     H_    0.619496 0.593428 0.895827 0.254061
O10   O     O_3   0.407551 0.313204 0.322547 -0.585236
C51   C     C_3   0.420144 0.301999 0.167764 0.100432
H42   H     H_    0.409377 0.245162 0.135061 0.116757
H43   H     H_    0.474853 0.315636 0.138707 0.141751
C52   C     C_3   0.372072 0.350491 0.075654 -0.818515
H44   H     H_    0.378879 0.407736 0.109184 0.255806
H45   H     H_    0.384059 0.345167 0.954020 0.207724
H46   H     H_    0.317151 0.334697 0.094535 0.240983
O11   O     O_3   0.408016 0.687504 0.321427 -0.573855
C53   C     C_3   0.421058 0.699190 0.166776 0.106625
H47   H     H_    0.475803 0.685420 0.138500 0.138195
H48   H     H_    0.410557 0.756186 0.133761 0.113041
C54   C     C_3   0.373088 0.651214 0.074182 -0.801046
H49   H     H_    0.318145 0.666989 0.092764 0.246921
H50   H     H_    0.385234 0.657110 0.952637 0.195488
H51   H     H_    0.379827 0.593798 0.107550 0.257876
O12   O     O_3   0.592319 0.312385 0.677750 -0.572615
C55   C     C_3   0.579297 0.300721 0.832415 0.108795
H52   H     H_    0.589886 0.243741 0.865433 0.113297
H53   H     H_    0.524532 0.314410 0.860754 0.137388
C56   C     C_3   0.627202 0.348794 0.924935 -0.803574
H54   H     H_    0.620358 0.406195 0.891531 0.256742
H55   H     H_    0.615078 0.342895 0.046492 0.196318
H56   H     H_    0.682166 0.333112 0.906315 0.247238

loop_
_geom_bond_atom_site_label_1
_geom_bond_atom_site_label_2
_ccdc_geom_bond_type
C15   C18   A    
O8    Zn2   S    
C11   C18   S    
C50   H39   S    
C24   H2    S    
C6    N2    A    
C9    H11   S    
C46   H29   S    
C4    C8    A    
C10   H12   S    
C1    O4    A    
C25   H3    S    
C53   H47   S    
C26   H4    S    
C47   H35   S    
C44   H22   S    
C7    C11   A    
C28   H6    S    
C13   C18   A    
C29   H7    S    
O6    Zn2   S    
C30   H8    S    
C35   C37   A    
C46   H28   S    
C29   C32   A    
C3    C7    A    
C1    O1    A    
C30   C31   A    
C2    O2    A    
C51   H42   S    
C31   C40   S    
C19   O8    A    
C32   C39   S    
C3    O9    S    
C36   C43   S    
C52   H45   S    
O1    Zn1   S    
C19   O5    A    
C16   C17   A    
C23   C33   A    
C12   C17   S    
C56   H56   S    
C42   H17   S    
C23   C27   A    
C2    O3    A    
C25   C34   A    
C27   H5    S    
C45   H30   S    
C50   H40   S    
C21   C22   T    
C14   C17   A    
N1    Zn1   S    
C1    C34   S    
O9    C49   S    
C13   H13   S    
C44   H23   S    
C25   C29   A    
C45   H31   S    
O5    Zn1   S    
C27   C31   A    
C20   O7    A    
C28   C32   A    
C46   H27   S    
C7    H9    S    
C54   H51   S    
C43   H26   S    
C48   H32   S    
O7    Zn1   S    
C24   C34   A    
C15   H15   S    
C20   O6    A    
C16   H16   S    
C5    C9    A    
C48   H33   S    
O3    Zn1   S    
C26   C33   A    
C45   C46   S    
C8    C12   A    
C42   H19   S    
C41   H20   S    
C43   C44   S    
C9    C11   A    
O2    Zn2   S    
O12   C55   S    
C10   C12   A    
C3    N1    A    
C2    C33   S    
N2    Zn2   S    
C14   H14   S    
C20   C22   S    
C26   C30   A    
C50   H41   S    
C49   H38   S    
C56   H54   S    
C52   H46   S    
C55   H53   S    
C8    H10   S    
O11   C53   S    
C4    O10   S    
C44   H24   S    
C5    O11   S    
C36   C39   A    
C24   C28   A    
C43   H25   S    
C6    C10   A    
C53   H48   S    
C47   H36   S    
C5    N1    A    
C49   C50   S    
O10   C51   S    
C38   C47   S    
C23   H1    S    
O4    Zn2   S    
C55   C56   S    
C54   H50   S    
C35   C40   A    
C37   C39   A    
C52   H44   S    
C48   H34   S    
C38   C40   A    
C47   C48   S    
C51   H43   S    
C36   C38   A    
C41   H21   S    
C41   C42   S    
C53   C54   S    
C35   C41   S    
C49   H37   S    
C13   C16   A    
C4    N2    A    
C56   H55   S    
C14   C15   A    
C37   C45   S    
C42   H18   S    
C6    O12   S    
C55   H52   S    
C54   H49   S    
C19   C21   S    
C51   C52   S    
