data_mof_unit_1719.cif
_audit_creation_date              2012-12-10T17:58:17-0500
_audit_creation_method            fapswitch 2.2
_symmetry_space_group_name_H-M    P1
_symmetry_Int_Tables_number       1
_space_group_crystal_system       triclinic
_cell_length_a                    9.613406
_cell_length_b                    10.748817
_cell_length_c                    15.634337
_cell_angle_alpha                 88.073663
_cell_angle_beta                  72.229873
_cell_angle_gamma                 92.692832
_cell_volume                      1534.8065934

loop_
_atom_site_label
_atom_site_type_symbol
_atom_type_description
_atom_site_fract_x
_atom_site_fract_y
_atom_site_fract_z
_atom_type_partial_charge
C1    C     C_R   0.997649 0.262309 0.500033 0.826961
C2    C     C_R   0.003067 0.737547 0.498855 0.783922
C3    C     C_R   0.602400 0.487589 0.105892 -0.044019
C4    C     C_R   0.534432 0.723827 0.955600 -0.067689
C5    C     C_R   0.741719 0.456998 0.054920 -0.179933
C6    C     C_R   0.402356 0.766166 0.008717 -0.132314
C7    C     C_R   0.903432 0.054986 0.571070 -0.083330
C8    C     C_R   0.099489 0.944093 0.427441 -0.090997
C9    C     C_R   0.907605 0.926422 0.571275 -0.147483
C10   C     C_R   0.094962 0.072966 0.427166 -0.126438
C11   C     C_R   0.006187 0.871290 0.499830 -0.008703
C12   C     C_R   0.995466 0.128207 0.498467 -0.017459
C13   C     C_R   0.543624 0.402960 0.542241 0.548430
C14   C     C_R   0.457404 0.594791 0.455392 0.510389
C15   C     C_R   0.396358 0.406628 0.542837 -0.123511
C16   C     C_R   0.603331 0.593644 0.457503 -0.114701
C17   C     C_R   0.914744 0.502798 0.672633 0.828238
C18   C     C_R   0.084650 0.506233 0.328323 0.877902
C19   C     C_R   0.864568 0.502751 0.772693 -0.151690
C20   C     C_R   0.140987 0.548097 0.233554 -0.092550
C21   C     C_R   0.920364 0.439676 0.909145 -0.160866
C22   C     C_R   0.175397 0.728317 0.130538 -0.151960
C23   C     C_R   0.960103 0.454065 0.816190 -0.205826
C24   C     C_R   0.090772 0.658465 0.206739 -0.241154
C25   C     C_R   0.727380 0.547021 0.826022 0.291214
C26   C     C_R   0.273324 0.503101 0.180925 0.306959
C27   C     C_R   0.701292 0.550964 0.920818 -0.039804
C28   C     C_R   0.369326 0.582604 0.111314 -0.033718
C29   C     C_R   0.788992 0.483049 0.961700 0.106659
C30   C     C_R   0.315313 0.692792 0.083460 0.106033
C31   C     C_R   0.582285 0.609525 0.978677 0.043646
C32   C     C_R   0.515430 0.555860 0.065773 0.049107
Cu1   Cu    Cu3+1 0.140660 0.500020 0.500000 1.066051
Cu2   Cu    Cu3+1 0.859340 0.499980 0.500000 1.083889
H1    H     H_    0.808446 0.406604 0.087353 0.162016
H2    H     H_    0.364399 0.852281 0.988345 0.158531
H3    H     H_    0.989909 0.694501 0.247811 0.175819
H4    H     H_    0.063532 0.419207 0.777906 0.193282
H5    H     H_    0.991823 0.392831 0.939931 0.157219
H6    H     H_    0.134361 0.813360 0.110902 0.164268
H7    H     H_    0.566624 0.463550 0.177114 0.201114
H8    H     H_    0.595888 0.777454 0.894832 0.179653
H9    H     H_    0.831618 0.096348 0.628564 0.175426
H10   H     H_    0.173234 0.901552 0.370826 0.192445
H11   H     H_    0.835448 0.869963 0.627442 0.176680
H12   H     H_    0.168080 0.129489 0.371469 0.213021
H13   H     H_    0.316173 0.332767 0.576073 0.203279
H14   H     H_    0.682904 0.668104 0.424549 0.212725
N1    N     N_R   0.352080 0.500030 0.499980 -0.254609
N2    N     N_R   0.647920 0.499970 0.500020 -0.247853
O1    O     O_R   0.118740 0.319660 0.500000 -0.594427
O2    O     O_R   0.881260 0.680340 0.500000 -0.591485
O3    O     O_R   0.881170 0.319630 0.500010 -0.491906
O4    O     O_R   0.118830 0.680370 0.499990 -0.505314
O5    O     O_R   0.055570 0.500030 0.629830 -0.597638
O6    O     O_R   0.944430 0.499970 0.370170 -0.602399
O7    O     O_R   0.818000 0.500000 0.629840 -0.462951
O8    O     O_R   0.182000 0.500000 0.370160 -0.513911
S1    S     S_3+6 0.295773 0.340051 0.192432 -0.022787
O9    O     O_2   0.367433 0.315546 0.263871 -0.280255
O10   O     O_2   0.148229 0.270566 0.220289 -0.321331
O11   O     O_3   0.397742 0.285453 0.094954 -0.503413
H15   H     H_    0.345945 0.306615 0.050981 0.340386
S2    S     S_3+6 0.580167 0.576464 0.779653 0.006333
O12   O     O_2   0.618126 0.695773 0.722485 -0.277831
O13   O     O_2   0.557268 0.473408 0.722774 -0.249523
O14   O     O_3   0.415145 0.585575 0.856545 -0.513616
H16   H     H_    0.388692 0.500411 0.884998 0.343448
S3    S     S_3+6 0.579400 0.260039 0.591258 0.054099
O15   O     O_2   0.437746 0.196365 0.649571 -0.318003
O16   O     O_2   0.645293 0.175084 0.517044 -0.256878
O17   O     O_3   0.689752 0.278232 0.655670 -0.526094
H17   H     H_    0.639963 0.230720 0.713168 0.362808
S4    S     S_3+6 0.425524 0.730519 0.397295 0.012442
O18   O     O_2   0.326071 0.705539 0.341722 -0.324954
O19   O     O_2   0.363339 0.825098 0.465141 -0.268039
O20   O     O_3   0.585128 0.792820 0.327014 -0.566503
H18   H     H_    0.560848 0.872973 0.303533 0.391468

loop_
_geom_bond_atom_site_label_1
_geom_bond_atom_site_label_2
_ccdc_geom_bond_type
Cu1   O5    S    
Cu2   O6    S    
Cu1   O8    S    
C27   C29   A    
C15   H13   S    
C16   H14   S    
O20   H18   S    
C9    H11   S    
C13   S3    S    
C14   S4    S    
C16   N2    A    
C14   N1    A    
Cu1   N1    S    
S3    O16   D    
C1    O3    A    
C18   O8    A    
C20   C24   A    
S4    O20   S    
C10   H12   S    
Cu2   O7    S    
C14   C16   A    
C7    H9    S    
C26   S1    S    
C17   O5    A    
C18   O6    A    
S1    O9    D    
C3    C32   A    
C1    C12   S    
C2    C11   S    
C10   C12   A    
C24   H3    S    
C5    C29   A    
C21   C23   A    
C7    C12   A    
Cu2   N2    S    
S1    O10   D    
S4    O18   D    
C27   C31   A    
O14   H16   S    
S2    O14   S    
C28   C32   A    
C4    C6    A    
C2    O4    A    
C21   C29   A    
C25   S2    S    
S2    O13   D    
S3    O17   S    
C19   C23   A    
O11   H15   S    
C9    C11   A    
C31   C32   A    
C21   H5    S    
C22   H6    S    
Cu1   Cu2   S    
C1    O1    A    
C2    O2    A    
C6    C30   A    
C13   C15   A    
C4    H8    S    
C22   C24   A    
Cu1   O1    S    
S4    O19   D    
Cu1   O4    S    
C7    C9    A    
C3    H7    S    
S1    O11   S    
C22   C30   A    
Cu2   O2    S    
C8    H10   S    
O17   H17   S    
C3    C5    A    
C25   C27   A    
C23   H4    S    
C26   C28   A    
S2    O12   D    
C28   C30   A    
C20   C26   A    
C8    C11   A    
C5    H1    S    
C17   C19   S    
C6    H2    S    
C18   C20   S    
C15   N1    A    
S3    O15   D    
C19   C25   A    
C4    C31   A    
C13   N2    A    
Cu2   O3    S    
C8    C10   A    
C17   O7    A    
