data_mof_unit_1753.cif
_audit_creation_date              2012-12-10T18:47:40-0500
_audit_creation_method            fapswitch 2.2
_symmetry_space_group_name_H-M    P1
_symmetry_Int_Tables_number       1
_space_group_crystal_system       triclinic
_cell_length_a                    9.996253
_cell_length_b                    10.661561
_cell_length_c                    14.8019
_cell_angle_alpha                 90.312912
_cell_angle_beta                  72.312808
_cell_angle_gamma                 90.072559
_cell_volume                      1502.92934639

loop_
_atom_site_label
_atom_site_type_symbol
_atom_type_description
_atom_site_fract_x
_atom_site_fract_y
_atom_site_fract_z
_atom_type_partial_charge
C1    C     C_R   0.500509 0.739480 0.499313 0.940816
C2    C     C_R   0.499507 0.260525 0.500653 0.934415
C3    C     C_R   0.319115 0.281521 0.100969 0.605114
C4    C     C_R   0.644090 0.248302 0.910412 0.621839
C5    C     C_R   0.224621 0.314874 0.052784 0.446826
C6    C     C_R   0.744120 0.260206 0.958793 0.429100
C7    C     C_R   0.623730 0.936441 0.451002 0.685116
C8    C     C_R   0.376302 0.063607 0.548960 0.690290
C9    C     C_R   0.622511 0.065088 0.452132 -0.291671
C10   C     C_R   0.377485 0.934963 0.547757 -0.288528
C11   C     C_R   0.499113 0.127930 0.500893 -0.260943
C12   C     C_R   0.500907 0.872107 0.499045 -0.279671
C13   C     C_R   0.948450 0.406599 0.456006 0.425816
C14   C     C_R   0.051083 0.592332 0.545296 0.441546
C15   C     C_R   0.091557 0.407343 0.455158 0.548654
C16   C     C_R   0.908401 0.592502 0.545048 0.476541
C17   C     C_R   0.415324 0.496098 0.676759 0.969022
C18   C     C_R   0.585061 0.495140 0.322847 0.929069
C19   C     C_R   0.373809 0.467198 0.778887 -0.388755
C20   C     C_R   0.625649 0.454886 0.221970 -0.417830
C21   C     C_R   0.203495 0.468122 0.934084 0.707798
C22   C     C_R   0.802749 0.390143 0.078156 0.672601
C23   C     C_R   0.243193 0.505901 0.839028 0.320009
C24   C     C_R   0.765986 0.456084 0.164650 0.318335
C25   C     C_R   0.467652 0.401432 0.816939 0.486361
C26   C     C_R   0.521708 0.406298 0.184273 0.534911
C27   C     C_R   0.417323 0.346867 0.908168 -0.133618
C28   C     C_R   0.561030 0.333689 0.099663 -0.124662
C29   C     C_R   0.277445 0.372771 0.963413 -0.296156
C30   C     C_R   0.704474 0.322883 0.047842 -0.358039
C31   C     C_R   0.506531 0.289689 0.954861 -0.163171
C32   C     C_R   0.462380 0.294509 0.054546 -0.164170
H1    H     H_    0.716749 0.115485 0.413867 0.247838
H2    H     H_    0.283207 0.884570 0.585955 0.257090
N1    N     N_R   0.142780 0.500030 0.500020 -0.247584
N2    N     N_R   0.857220 0.499970 0.499980 -0.235066
O1    O     O_R   0.385370 0.683250 0.500010 -0.583101
O2    O     O_R   0.614630 0.316750 0.499990 -0.566289
O3    O     O_R   0.614700 0.683220 0.500000 -0.514262
O4    O     O_R   0.385300 0.316780 0.500000 -0.518882
O5    O     O_R   0.319830 0.500020 0.632250 -0.555832
O6    O     O_R   0.680170 0.499980 0.367750 -0.597280
O7    O     O_R   0.549160 0.499990 0.632240 -0.566706
O8    O     O_R   0.450840 0.500010 0.367760 -0.554237
Zn1   Zn    Zn3+2 0.346870 0.500020 0.500000 1.112450
Zn2   Zn    Zn3+2 0.653130 0.499980 0.500000 1.096991
O9    O     O_3   0.082708 0.298566 0.094629 -0.565086
C33   C     C_3   0.050922 0.169326 0.097684 -0.157963
H3    H     H_    0.087512 0.120474 0.151913 0.212835
H4    H     H_    0.095578 0.123429 0.027160 0.139738
H5    H     H_    0.935209 0.158429 0.118695 0.169081
O10   O     O_3   0.883235 0.231755 0.912628 -0.547106
C34   C     C_3   0.900308 0.100457 0.912197 -0.154964
H6    H     H_    0.846783 0.053434 0.865530 0.212548
H7    H     H_    0.862150 0.061036 0.985093 0.110555
H8    H     H_    0.013905 0.078693 0.883294 0.195372
O11   O     O_3   0.382888 0.441119 0.225132 -0.504236
C35   C     C_3   0.362023 0.560314 0.190423 -0.243742
H9    H     H_    0.376971 0.556735 0.112820 0.142749
H10   H     H_    0.432215 0.632523 0.206448 0.156407
H11   H     H_    0.252500 0.590258 0.226358 0.178742
O12   O     O_3   0.609111 0.398270 0.767091 -0.514202
C36   C     C_3   0.673944 0.505792 0.791325 -0.161125
H12   H     H_    0.666830 0.506835 0.867803 0.103558
H13   H     H_    0.628549 0.593897 0.773170 0.179949
H14   H     H_    0.786690 0.503767 0.749833 0.177630
O13   O     O_3   0.856163 0.546283 0.180803 -0.560677
C37   C     C_3   0.948170 0.494454 0.226427 0.078124
H15   H     H_    0.926109 0.394939 0.248744 0.186213
H16   H     H_    0.942260 0.551599 0.290339 0.126692
H17   H     H_    0.057341 0.503086 0.179375 0.206281
O14   O     O_3   0.170323 0.598641 0.808193 -0.571664
C38   C     C_3   0.030017 0.561375 0.822253 -0.078756
H18   H     H_    0.021004 0.461015 0.803306 0.170532
H19   H     H_    0.986553 0.618639 0.775505 0.185994
H20   H     H_    0.964854 0.581053 0.896152 0.220966
F1    F     F_    0.117452 0.544331 0.000233 -0.607945
F2    F     F_    0.929186 0.406702 0.015631 -0.588186
F3    F     F_    0.271957 0.241102 0.192095 -0.578032
F4    F     F_    0.681541 0.198442 0.821620 -0.597553
F5    F     F_    0.742788 0.875299 0.401388 -0.615023
F6    F     F_    0.257289 0.124751 0.598662 -0.610440
F7    F     F_    0.902104 0.311233 0.412602 -0.605477
F8    F     F_    0.096477 0.685321 0.591428 -0.591787
F9    F     F_    0.178260 0.314254 0.409171 -0.508885
F10   F     F_    0.821655 0.685504 0.591145 -0.583212

loop_
_geom_bond_atom_site_label_1
_geom_bond_atom_site_label_2
_ccdc_geom_bond_type
C9    H1    S    
C36   H13   S    
C27   C29   A    
C38   H18   S    
C14   F8    S    
C3    F3    S    
C34   H6    S    
O8    Zn1   S    
C5    O9    S    
C8    F6    S    
C4    F4    S    
C8    C11   A    
C35   H10   S    
O6    Zn2   S    
C18   O6    A    
C33   H5    S    
C31   C32   A    
C37   H15   S    
N2    Zn2   S    
C14   C16   A    
C24   O13   S    
C1    O1    A    
C15   F9    S    
C35   H11   S    
C33   H4    S    
C36   H14   S    
C16   F10   S    
C38   H19   S    
C7    C12   A    
C1    C12   S    
C2    C11   S    
C15   N1    A    
O7    Zn2   S    
C5    C29   A    
C34   H7    S    
C21   C23   A    
O4    Zn1   S    
C27   C31   A    
O13   C37   S    
C20   C24   A    
C28   C32   A    
C22   F2    S    
C13   N2    A    
C4    C6    A    
C14   N1    A    
C35   H9    S    
C21   C29   A    
C19   C23   A    
C17   O7    A    
O12   C36   S    
C18   O8    A    
C2    O2    A    
O9    C33   S    
C10   H2    S    
C9    C11   A    
C10   C12   A    
O3    Zn2   S    
C37   H16   S    
C33   H3    S    
C7    F5    S    
C13   C15   A    
C38   H20   S    
C22   C24   A    
O1    Zn1   S    
N1    Zn1   S    
O10   C34   S    
C34   H8    S    
C7    C9    A    
C22   C30   A    
C6    C30   A    
C23   O14   S    
O14   C38   S    
C3    C5    A    
C25   C27   A    
C13   F7    S    
C26   C28   A    
C28   C30   A    
C16   N2    A    
O11   C35   S    
C20   C26   A    
C37   H17   S    
C17   C19   S    
C18   C20   S    
C25   O12   S    
C3    C32   A    
C19   C25   A    
C26   O11   S    
C17   O5    A    
O2    Zn2   S    
C4    C31   A    
C1    O3    A    
C36   H12   S    
C2    O4    A    
C8    C10   A    
C21   F1    S    
O5    Zn1   S    
C6    O10   S    
