data_mof_unit_1542.cif
_audit_creation_date              2012-12-11T15:57:43-0500
_audit_creation_method            fapswitch 2.2
_symmetry_space_group_name_H-M    P1
_symmetry_Int_Tables_number       1
_space_group_crystal_system       triclinic
_cell_length_a                    10.720977
_cell_length_b                    10.804467
_cell_length_c                    17.002206
_cell_angle_alpha                 99.788048
_cell_angle_beta                  99.731313
_cell_angle_gamma                 61.167915
_cell_volume                      1691.52354702

loop_
_atom_site_label
_atom_site_type_symbol
_atom_type_description
_atom_site_fract_x
_atom_site_fract_y
_atom_site_fract_z
_atom_type_partial_charge
C1    C     C_R   0.355874 0.773239 0.400905 0.559040
C2    C     C_2   0.252329 0.258787 0.793861 -0.045643
C3    C     C_2   0.350581 0.162573 0.745818 -0.174644
C4    C     C_R   0.369323 0.346367 0.357225 0.550319
C5    C     C_2   0.357026 0.186290 0.664087 -0.044542
C6    C     C_1   0.812756 0.343779 0.709398 -0.007111
C7    C     C_1   0.839864 0.314881 0.777017 -0.020987
C8    C     C_1   0.358882 0.763848 0.713551 -0.037882
C9    C     C_1   0.326043 0.811247 0.780443 -0.034702
C10   C     C_R   0.890717 0.310138 0.085086 0.559285
C11   C     C_R   0.319257 0.299863 0.119665 0.558478
C12   C     C_2   0.812110 0.343087 0.153417 -0.116256
C13   C     C_R   0.295777 0.889398 0.082920 0.558075
C14   C     C_R   0.884052 0.297540 0.859076 0.537318
C15   C     C_R   0.270822 0.246389 0.879724 0.563642
C16   C     C_R   0.771697 0.378955 0.402787 0.546940
C17   C     C_R   0.280528 0.881045 0.857185 0.540689
C18   C     C_R   0.381648 0.714017 0.631372 0.549974
C19   C     C_R   0.366769 0.345446 0.580265 0.538037
C20   C     C_R   0.771111 0.382134 0.630129 0.553157
C21   C     C_1   0.343027 0.336308 0.273856 -0.027246
C22   C     C_1   0.331759 0.326670 0.202961 -0.025536
C23   C     C_2   0.810421 0.239839 0.185712 -0.132038
C24   C     C_2   0.827001 0.337741 0.325319 -0.092900
C25   C     C_1   0.426241 0.063025 0.607840 0.242967
C26   C     C_1   0.120652 0.375408 0.762748 0.194715
C27   C     C_1   0.540922 0.885724 0.198594 0.255979
C28   C     C_1   0.195656 0.937502 0.299232 0.205338
C29   C     C_2   0.780758 0.261357 0.268665 -0.125654
C30   C     C_2   0.338292 0.839972 0.330045 -0.018740
C31   C     C_2   0.352046 0.812650 0.153635 -0.113050
C32   C     C_2   0.446838 0.831212 0.210989 -0.060666
C33   C     C_2   0.455168 0.796651 0.291407 -0.177337
C34   C     C_2   0.320249 0.318187 0.647286 -0.095902
Cr1   Cr    Cr6+3 0.608020 0.610770 0.522990 1.068101
Cr2   Cr    Cr6+3 0.289390 0.599570 0.488050 1.049533
Cr3   Cr    Cr6+3 0.602610 0.289690 0.489020 1.049531
Cr4   Cr    Cr6+3 0.053780 0.052210 0.965970 1.047566
Cr5   Cr    Cr6+3 0.060060 0.372530 0.992430 1.053189
Cr6   Cr    Cr6+3 0.372600 0.061970 0.991430 1.048052
H1    H     H_    0.841119 0.135006 0.153597 0.183326
H2    H     H_    0.277051 0.409868 0.690929 0.114765
H3    H     H_    0.721068 0.211862 0.282895 0.176358
H4    H     H_    0.889084 0.384759 0.311177 0.112003
H5    H     H_    0.294442 0.759724 0.166419 0.114344
H6    H     H_    0.774256 0.449366 0.184814 0.109392
H7    H     H_    0.561691 0.727977 0.318100 0.151616
H8    H     H_    0.437560 0.067078 0.769500 0.152795
N1    N     N_1   0.482305 0.966038 0.562116 -0.240965
N2    N     N_1   0.017224 0.469957 0.738512 -0.270557
N3    N     N_1   0.616734 0.928914 0.189141 -0.272455
N4    N     N_1   0.081594 0.014948 0.274336 -0.301314
O1    O     O_R   0.749250 0.499990 0.439200 -0.511669
O2    O     O_R   0.411120 0.181190 0.091480 -0.487816
O3    O     O_R   0.364220 0.944920 0.062310 -0.484772
O4    O     O_R   0.477870 0.725740 0.440280 -0.486601
O5    O     O_R   0.158740 0.906940 0.874970 -0.494172
O6    O     O_R   0.930920 0.176940 0.885610 -0.495764
O7    O     O_R   0.910730 0.394510 0.895320 -0.507276
O8    O     O_R   0.185840 0.361180 0.920280 -0.486274
O9    O     O_R   0.399210 0.173040 0.915160 -0.508544
O10   O     O_R   0.353170 0.937370 0.898860 -0.521962
O11   O     O_3   0.162150 0.162240 0.983280 -0.293138
O12   O     O_R   0.299400 0.468710 0.556310 -0.509373
O13   O     O_R   0.260770 0.742210 0.412610 -0.497944
O14   O     O_R   0.297990 0.466320 0.394220 -0.497881
O15   O     O_R   0.487720 0.253870 0.385870 -0.504688
O16   O     O_R   0.721940 0.304340 0.422320 -0.494204
O17   O     O_R   0.750770 0.502570 0.614050 -0.484828
O18   O     O_R   0.479280 0.728140 0.602370 -0.469589
O19   O     O_R   0.262290 0.744790 0.587460 -0.494139
O20   O     O_R   0.489240 0.256450 0.560730 -0.495409
O21   O     O_R   0.723350 0.306730 0.584410 -0.501906
O22   O     O_3   0.500010 0.500010 0.500020 -0.291816
O23   O     O_R   0.170650 0.915100 0.051290 -0.500746
O24   O     O_R   0.941960 0.184500 0.049060 -0.489729
O25   O     O_R   0.922640 0.402670 0.071640 -0.506187
O26   O     O_R   0.196880 0.368740 0.083740 -0.491966

loop_
_geom_bond_atom_site_label_1
_geom_bond_atom_site_label_2
_ccdc_geom_bond_type
C18   O18   A    
Cr3   O22   S    
Cr1   O22   S    
Cr1   O1    S    
C15   O8    A    
C34   H2    S    
Cr4   O24   S    
C14   O7    A    
C12   C23   D    
Cr6   O11   S    
Cr5   O25   S    
C1    O4    A    
C26   N2    T    
Cr2   O14   S    
Cr3   O16   S    
C3    H8    S    
Cr6   O10   S    
C16   O1    A    
Cr4   O6    S    
C10   O24   A    
C7    C14   S    
C13   O23   A    
Cr1   O18   S    
C8    C9    T    
C1    O13   A    
C16   O16   A    
Cr2   O19   S    
Cr1   O4    S    
C16   C24   S    
C21   C22   T    
C29   H3    S    
C19   O20   A    
C10   O25   A    
C27   N3    T    
Cr4   O23   S    
C14   O6    A    
Cr5   O26   S    
C12   H6    S    
Cr2   O13   S    
C8    C18   S    
Cr6   O9    S    
C11   O26   A    
C17   O10   A    
Cr4   O5    S    
C31   C32   D    
C19   O12   A    
Cr6   O3    S    
Cr5   O7    S    
C5    C34   D    
C15   O9    A    
C2    C26   S    
C2    C15   S    
C11   O2    A    
C10   C12   S    
C5    C25   S    
C9    C17   S    
Cr6   O2    S    
C33   H7    S    
C20   O17   A    
C23   C29   S    
Cr5   O11   S    
Cr4   O11   S    
C18   O19   A    
Cr3   O21   S    
Cr2   O22   S    
C30   C33   D    
C27   C32   S    
C13   C31   S    
C3    C5    S    
C19   C34   S    
C4    O15   A    
C6    C7    T    
C6    C20   S    
C11   C22   S    
C23   H1    S    
C32   C33   S    
C28   C30   S    
C2    C3    D    
C4    O14   A    
C4    C21   S    
C28   N4    T    
C24   H4    S    
Cr5   O8    S    
Cr3   O15   S    
C1    C30   S    
C20   O21   A    
C25   N1    T    
C24   C29   D    
Cr1   O17   S    
C31   H5    S    
Cr3   O20   S    
Cr2   O12   S    
C17   O5    A    
C13   O3    A    
