data_mof_unit_1489.cif
_audit_creation_date              2012-12-10T18:29:41-0500
_audit_creation_method            fapswitch 2.2
_symmetry_space_group_name_H-M    P1
_symmetry_Int_Tables_number       1
_space_group_crystal_system       triclinic
_cell_length_a                    11.556266
_cell_length_b                    14.967208
_cell_length_c                    15.401585
_cell_angle_alpha                 81.668434
_cell_angle_beta                  90.798228
_cell_angle_gamma                 103.551403
_cell_volume                      2561.88467178

loop_
_atom_site_label
_atom_site_type_symbol
_atom_type_description
_atom_site_fract_x
_atom_site_fract_y
_atom_site_fract_z
_atom_type_partial_charge
C1    C     C_R   0.479552 0.441214 0.662213 0.919558
C2    C     C_R   0.535992 0.672088 0.967891 0.505825
C3    C     C_R   0.715467 0.859637 0.592168 0.405046
C4    C     C_R   0.282221 0.155469 0.386223 0.294786
C5    C     C_R   0.677875 0.765795 0.582835 0.354541
C6    C     C_R   0.342577 0.249005 0.389759 0.440630
C7    C     C_R   0.490313 0.789354 0.535848 0.525784
C8    C     C_R   0.480100 0.200199 0.491105 0.539596
C9    C     C_R   0.537720 0.887038 0.518680 -0.189498
C10   C     C_R   0.447154 0.110265 0.466251 -0.221261
C11   C     C_R   0.655205 0.921793 0.546432 -0.195519
C12   C     C_R   0.524701 0.558477 0.337571 0.908168
C13   C     C_R   0.336853 0.084037 0.424684 -0.201132
C14   C     C_R   0.472312 0.951433 0.480036 -0.009512
C15   C     C_R   0.520798 0.047076 0.482013 -0.035926
C16   C     C_R   0.717840 0.500535 0.500234 0.886290
C17   C     C_R   0.282159 0.499427 0.499811 0.892023
C18   C     C_R   0.645734 0.078085 0.485798 0.105700
C19   C     C_R   0.366066 0.926432 0.433539 0.128141
C20   C     C_R   0.712741 0.016250 0.523371 0.470965
C21   C     C_R   0.292452 0.989219 0.414719 0.466425
C22   C     C_1   0.838772 0.501424 0.500424 -0.122944
C23   C     C_R   0.376030 0.352087 0.931622 -0.111013
C24   C     C_1   0.161187 0.498395 0.499412 -0.163409
C25   C     C_1   0.940781 0.500621 0.500124 0.020718
C26   C     C_1   0.059113 0.499007 0.499569 0.007558
C27   C     C_R   0.448340 0.402813 0.754098 -0.209020
C28   C     C_R   0.545707 0.593912 0.243162 -0.253842
C29   C     C_R   0.321488 0.296292 0.868555 0.473912
C30   C     C_R   0.563266 0.716851 0.117539 0.446270
C31   C     C_R   0.346833 0.330142 0.778623 0.010784
C32   C     C_R   0.571931 0.689484 0.208548 0.058216
C33   C     C_R   0.512131 0.446558 0.819139 0.048847
C34   C     C_R   0.535261 0.648693 0.060511 -0.122797
C35   C     C_R   0.534673 0.528600 0.185227 0.143450
C36   C     C_R   0.459494 0.435767 0.901392 -0.031445
C37   C     C_R   0.510345 0.553338 0.097231 -0.081373
C38   C     C_3   0.336022 0.194357 0.117939 0.081551
C39   C     C_3   0.263000 0.094944 0.140344 -0.688571
C40   C     C_3   0.469126 0.774690 0.863201 0.094571
C41   C     C_3   0.456513 0.874774 0.847225 -0.861014
C42   C     C_3   0.275635 0.138618 0.885482 0.148196
C43   C     C_3   0.172633 0.053050 0.895811 -0.785388
C44   C     C_3   0.487201 0.844915 0.093361 0.168942
C45   C     C_R   0.489027 0.506651 0.953666 0.096620
C46   C     C_3   0.519350 0.950099 0.069082 -0.775835
C47   C     C_3   0.880118 0.106795 0.577668 0.184515
C48   C     C_3   0.000801 0.093984 0.610833 -0.809444
C49   C     C_3   0.108562 0.893620 0.448451 0.049017
C50   C     C_3   0.983972 0.858563 0.414988 -0.690291
C51   C     C_3   0.519386 0.176089 0.637154 0.065377
C52   C     C_3   0.605687 0.210348 0.707222 -0.761283
C53   C     C_3   0.339157 0.729638 0.633887 0.087249
C54   C     C_3   0.204768 0.701605 0.645569 -0.817703
C55   C     C_3   0.226511 0.350343 0.329691 0.184160
C56   C     C_R   0.466952 0.484463 0.043841 0.067113
C57   C     C_3   0.149740 0.338003 0.248837 -0.839412
C58   C     C_3   0.775840 0.668202 0.666784 0.205473
C59   C     C_3   0.907267 0.679059 0.686612 -0.857976
C60   C     C_3   0.785236 0.868829 0.731737 0.101389
C61   C     C_3   0.788542 0.955688 0.772933 -0.838078
C62   C     C_3   0.079678 0.120491 0.369887 0.163430
C63   C     C_3   0.982021 0.087667 0.306403 -0.718205
C64   C     C_R   0.396728 0.395938 0.077759 -0.324231
C65   C     C_R   0.527030 0.600497 0.916172 -0.321904
C66   C     C_R   0.349784 0.329456 0.022551 0.504513
H1    H     H_    0.371814 0.380631 0.146508 0.210987
H2    H     H_    0.545133 0.923553 0.837357 0.266272
H3    H     H_    0.403116 0.885796 0.787883 0.199236
H4    H     H_    0.410063 0.890235 0.903701 0.243116
H5    H     H_    0.341145 0.129566 0.937691 0.132471
H6    H     H_    0.319662 0.143211 0.820510 0.123483
H7    H     H_    0.124230 0.046540 0.959023 0.271642
H8    H     H_    0.109782 0.058658 0.841156 0.257215
H9    H     H_    0.206976 0.989872 0.894529 0.190248
H10   H     H_    0.450733 0.828499 0.161833 0.158603
H11   H     H_    0.416346 0.814613 0.049285 0.137300
H12   H     H_    0.539480 0.618371 0.845750 0.149307
H13   H     H_    0.559977 0.969967 0.002100 0.262888
H14   H     H_    0.438091 0.977363 0.070933 0.188378
H15   H     H_    0.583922 0.981730 0.116493 0.272448
H16   H     H_    0.819654 0.100035 0.634915 0.128874
H17   H     H_    0.893290 0.178731 0.542931 0.169572
H18   H     H_    0.072236 0.131087 0.562287 0.213364
H19   H     H_    0.018766 0.122293 0.673495 0.239003
H20   H     H_    0.002846 0.019526 0.622884 0.292806
H21   H     H_    0.101163 0.926179 0.508160 0.131131
H22   H     H_    0.145712 0.831768 0.467897 0.186809
H23   H     H_    0.348650 0.225077 0.179841 0.209543
H24   H     H_    0.988976 0.837393 0.349214 0.265843
H25   H     H_    0.935719 0.797489 0.460905 0.254334
H26   H     H_    0.932892 0.913031 0.411263 0.259102
H27   H     H_    0.509221 0.099795 0.641651 0.122852
H28   H     H_    0.431751 0.190107 0.651608 0.162219
H29   H     H_    0.619694 0.286704 0.704000 0.278265
H30   H     H_    0.569072 0.176284 0.773243 0.194332
H31   H     H_    0.692595 0.193428 0.697037 0.241876
H32   H     H_    0.372452 0.790066 0.669532 0.100534
H33   H     H_    0.376264 0.670226 0.663783 0.157472
H34   H     H_    0.424470 0.192109 0.091423 0.133422
H35   H     H_    0.180656 0.680970 0.716389 0.212872
H36   H     H_    0.165969 0.761022 0.619490 0.237586
H37   H     H_    0.167444 0.642114 0.610208 0.272112
H38   H     H_    0.253500 0.426297 0.330941 0.167440
H39   H     H_    0.173740 0.319934 0.391084 0.111230
H40   H     H_    0.056552 0.338389 0.265059 0.234991
H41   H     H_    0.183497 0.396018 0.195122 0.237450
H42   H     H_    0.150961 0.272209 0.224454 0.308557
H43   H     H_    0.737188 0.594123 0.664613 0.203410
H44   H     H_    0.729253 0.687600 0.721231 0.083512
H45   H     H_    0.259076 0.057845 0.082735 0.213692
H46   H     H_    0.918219 0.645702 0.754448 0.243368
H47   H     H_    0.948703 0.645351 0.639781 0.260119
H48   H     H_    0.953449 0.753666 0.679769 0.261107
H49   H     H_    0.852081 0.834106 0.765095 0.174308
H50   H     H_    0.695957 0.821443 0.747789 0.107368
H51   H     H_    0.720825 0.991536 0.742792 0.227177
H52   H     H_    0.767546 0.935892 0.844281 0.254680
H53   H     H_    0.878445 0.002711 0.765243 0.255669
H54   H     H_    0.063989 0.183885 0.391512 0.124302
H55   H     H_    0.070790 0.067259 0.428895 0.183450
H56   H     H_    0.304773 0.057532 0.195012 0.240662
H57   H     H_    0.998083 0.026850 0.279118 0.271330
H58   H     H_    0.894102 0.067454 0.340925 0.247615
H59   H     H_    0.980060 0.143992 0.251399 0.242367
H60   H     H_    0.171060 0.094588 0.160556 0.288600
H61   H     H_    0.379175 0.729189 0.881710 0.128297
H62   H     H_    0.499389 0.758199 0.800587 0.105275
I1    I     I_    0.735621 0.201657 0.401491 -0.322776
I2    I     I_    0.337947 0.817792 0.352781 -0.308719
I3    I     I_    0.614510 0.411254 0.217803 -0.270887
I4    I     I_    0.700071 0.469673 0.818690 -0.451462
I5    I     I_    0.653358 0.795566 0.285003 -0.289983
I6    I     I_    0.221420 0.278680 0.684904 -0.437132
N1    N     N_R   0.566020 0.731700 0.552730 -0.207535
N2    N     N_R   0.433980 0.268300 0.447270 -0.170943
O1    O     O_R   0.466720 0.383110 0.605620 -0.576088
O2    O     O_3   0.553904 0.764446 0.929202 -0.567744
O3    O     O_3   0.231549 0.217809 0.892779 -0.531533
O4    O     O_3   0.589799 0.810506 0.084594 -0.538683
O5    O     O_3   0.836348 0.041839 0.519875 -0.601851
O6    O     O_3   0.179900 0.958212 0.382107 -0.574089
O7    O     O_3   0.564827 0.222685 0.553807 -0.561744
O8    O     O_3   0.369139 0.753027 0.543556 -0.567231
O9    O     O_3   0.330854 0.317956 0.321574 -0.591310
O10   O     O_3   0.764842 0.716907 0.582992 -0.576278
O11   O     O_3   0.815025 0.890860 0.640480 -0.577807
O12   O     O_R   0.533280 0.616890 0.394380 -0.565130
O13   O     O_3   0.191750 0.136868 0.326916 -0.582684
O14   O     O_R   0.509090 0.531900 0.639510 -0.645581
O15   O     O_R   0.490910 0.468100 0.360490 -0.558502
O16   O     O_R   0.644370 0.425610 0.483050 -0.545050
O17   O     O_R   0.355630 0.574390 0.516950 -0.551132
O18   O     O_R   0.686740 0.574390 0.516930 -0.576478
O19   O     O_R   0.313260 0.425610 0.483070 -0.642337
O20   O     O_3   0.274726 0.245045 0.056232 -0.572168
Zn1   Zn    Zn3+2 0.471710 0.400660 0.477370 1.030469
Zn2   Zn    Zn3+2 0.528290 0.599340 0.522630 1.011571

loop_
_geom_bond_atom_site_label_1
_geom_bond_atom_site_label_2
_ccdc_geom_bond_type
C43   H7    S    
C15   C18   A    
C66   O20   S    
C3    O11   S    
C62   O13   S    
O15   Zn1   S    
O19   Zn1   S    
C34   C37   A    
C16   O18   A    
C49   H21   S    
C54   H35   S    
C12   O15   A    
C38   O20   S    
C2    C65   A    
C17   O17   A    
C63   H58   S    
C18   I1    S    
C53   C54   S    
C53   H33   S    
C4    O13   S    
C38   H23   S    
C39   H56   S    
C55   H39   S    
C23   C29   A    
C23   C66   A    
C44   H11   S    
C35   C37   A    
C24   C26   T    
C21   O6    S    
O18   Zn2   S    
C10   C15   A    
C46   H13   S    
C55   O9    S    
C61   H53   S    
C58   H43   S    
C52   H31   S    
O17   Zn2   S    
C33   C36   A    
C52   H29   S    
C5    N1    A    
C47   H16   S    
C4    C13   A    
C44   H10   S    
C6    N2    A    
C37   C56   A    
C50   H24   S    
C45   C56   A    
C22   C25   T    
C40   O2    S    
C56   C64   A    
C65   H12   S    
C60   O11   S    
C47   H17   S    
C62   H54   S    
C1    C27   S    
C2    C34   A    
C43   H8    S    
C39   H45   S    
C57   H40   S    
C42   O3    S    
C44   O4    S    
C39   H60   S    
C49   H22   S    
C31   I6    S    
C14   C19   A    
C7    O8    S    
C44   C46   S    
C41   H2    S    
C1    O14   A    
C43   H9    S    
C38   C39   S    
C29   O3    S    
C11   C20   A    
C17   C24   S    
C30   O4    S    
C30   C34   A    
C61   H51   S    
C51   C52   S    
C2    O2    S    
C64   H1    S    
C54   H37   S    
C28   C32   A    
C48   H19   S    
C28   C35   A    
C4    C6    A    
C6    O9    S    
C25   C26   S    
C40   H61   S    
C27   C31   A    
C55   H38   S    
C27   C33   A    
C48   H18   S    
C60   C61   S    
C64   C66   A    
C9    C14   A    
C7    N1    A    
C62   C63   S    
C46   H15   S    
C47   C48   S    
C59   H47   S    
C49   O6    S    
C42   H6    S    
C59   H46   S    
C13   C21   A    
C36   C45   A    
C16   O16   A    
O12   Zn2   S    
C9    C11   A    
C63   H59   S    
C8    N2    A    
C51   H27   S    
N2    Zn1   S    
C33   I4    S    
C50   H26   S    
C40   C41   S    
C57   H41   S    
C12   C28   S    
C49   C50   S    
C55   C57   S    
C45   C65   A    
C48   H20   S    
C60   H50   S    
C42   C43   S    
C17   O19   A    
C35   I3    S    
C1    O1    A    
C41   H3    S    
C7    C9    A    
O16   Zn1   S    
C16   C22   S    
C5    O10   S    
O14   Zn2   S    
C19   C21   A    
C61   H52   S    
C58   H44   S    
C20   O5    S    
C54   H36   S    
C3    C5    A    
C10   C13   A    
C63   H57   S    
C58   O10   S    
C51   O7    S    
C53   H32   S    
C47   O5    S    
O1    Zn1   S    
C53   O8    S    
C12   O12   A    
C58   C59   S    
C29   C31   A    
C30   C32   A    
C38   H34   S    
C32   I5    S    
C19   I2    S    
C59   H48   S    
C42   H5    S    
C52   H30   S    
C8    O7    S    
C18   C20   A    
C3    C11   A    
C51   H28   S    
C50   H25   S    
C57   H42   S    
C8    C10   A    
C23   C36   A    
N1    Zn2   S    
C14   C15   A    
C60   H49   S    
C46   H14   S    
C62   H55   S    
C41   H4    S    
C40   H62   S    
