data_mof_unit_2627.cif
_audit_creation_date              2012-12-10T18:34:41-0500
_audit_creation_method            fapswitch 2.2
_symmetry_space_group_name_H-M    P1
_symmetry_Int_Tables_number       1
_space_group_crystal_system       triclinic
_cell_length_a                    12.999821
_cell_length_b                    15.08181
_cell_length_c                    13.861969
_cell_angle_alpha                 90.133932
_cell_angle_beta                  96.153701
_cell_angle_gamma                 90.276021
_cell_volume                      2702.08651978

loop_
_atom_site_label
_atom_site_type_symbol
_atom_type_description
_atom_site_fract_x
_atom_site_fract_y
_atom_site_fract_z
_atom_type_partial_charge
C1    C     C_R   0.496617 0.329843 0.499451 0.800145
C2    C     C_R   0.497683 0.669901 0.499802 0.796878
C3    C     C_R   0.493469 0.232942 0.498943 -0.102002
C4    C     C_R   0.494826 0.766290 0.499104 -0.094033
C5    C     C_R   0.435037 0.184035 0.424538 0.153863
C6    C     C_R   0.421025 0.813993 0.545850 0.147876
C7    C     C_R   0.440345 0.091596 0.426452 -0.213273
C8    C     C_R   0.425894 0.906487 0.546101 -0.210374
C9    C     C_R   0.500495 0.047846 0.501021 0.031879
C10   C     C_R   0.500878 0.951108 0.499339 0.031290
C11   C     C_R   0.585111 0.530361 0.116084 -0.297051
C12   C     C_R   0.462152 0.426815 0.887998 -0.289683
C13   C     C_R   0.583039 0.532163 0.217197 0.025917
C14   C     C_R   0.461166 0.428992 0.786560 0.027597
C15   C     C_R   0.417154 0.466097 0.201524 -0.029733
C16   C     C_R   0.539313 0.570742 0.794974 -0.021670
C17   C     C_R   0.413985 0.465851 0.099417 0.330844
C18   C     C_R   0.537406 0.573601 0.896553 0.331637
C19   C     C_R   0.499873 0.497742 0.054702 0.037978
C20   C     C_R   0.500041 0.499472 0.945437 0.035440
C21   C     C_R   0.300486 0.500075 0.481866 0.794670
C22   C     C_R   0.699520 0.500963 0.518066 0.819142
C23   C     C_R   0.812174 0.505346 0.528414 -0.101627
C24   C     C_R   0.187779 0.499377 0.470861 -0.097518
C25   C     C_R   0.024863 0.469366 0.372470 0.157962
C26   C     C_R   0.974485 0.542936 0.624224 0.158487
C27   C     C_R   0.133169 0.474243 0.382816 -0.195359
C28   C     C_R   0.866418 0.534164 0.615198 -0.187830
C29   C     C_R   0.135535 0.522594 0.549649 -0.284643
C30   C     C_R   0.864464 0.484145 0.449063 -0.285580
C31   C     C_R   0.027674 0.519084 0.543355 0.083594
C32   C     C_R   0.972030 0.490628 0.454331 0.084043
C33   C     C_R   0.556453 0.096038 0.576624 0.174891
C34   C     C_R   0.572119 0.903663 0.449553 0.176256
C35   C     C_R   0.552010 0.188481 0.574658 -0.256684
C36   C     C_R   0.568107 0.811177 0.450186 -0.251222
Cu1   Cu    Cu3+1 0.500000 0.499990 0.596430 0.932290
Cu2   Cu    Cu3+1 0.500000 0.500010 0.403570 0.929051
H1    H     H_    0.819669 0.461793 0.383258 0.153752
H2    H     H_    0.180604 0.542912 0.616153 0.158571
H3    H     H_    0.352301 0.439193 0.234763 0.139926
H4    H     H_    0.571907 0.626160 0.759162 0.143714
H5    H     H_    0.822851 0.551072 0.674700 0.170744
H6    H     H_    0.176552 0.456961 0.323311 0.160728
H7    H     H_    0.596167 0.226086 0.631824 0.159684
H8    H     H_    0.623530 0.773816 0.413463 0.149288
H9    H     H_    0.396126 0.053110 0.370055 0.145573
H10   H     H_    0.369917 0.944221 0.581694 0.145480
H11   H     H_    0.653754 0.554081 0.086339 0.194860
H12   H     H_    0.434339 0.367726 0.921154 0.195546
H13   H     H_    0.648858 0.559013 0.262304 0.136859
H14   H     H_    0.429925 0.372877 0.744289 0.142999
N1    N     N_R   0.500000 0.500020 0.258690 -0.186397
N2    N     N_R   0.500000 0.499980 0.741310 -0.189955
O1    O     O_R   0.500010 0.371450 0.581430 -0.590848
O2    O     O_R   0.499990 0.628550 0.418570 -0.575095
O3    O     O_R   0.500010 0.371460 0.418560 -0.569369
O4    O     O_R   0.499990 0.628540 0.581440 -0.584255
O5    O     O_R   0.349000 0.499980 0.568210 -0.579515
O6    O     O_R   0.651000 0.500020 0.431790 -0.593407
O7    O     O_R   0.349000 0.499990 0.405340 -0.602076
O8    O     O_R   0.651000 0.500010 0.594660 -0.581349
O9    O     O_3   0.328185 0.431200 0.044612 -0.597090
C37   C     C_3   0.253533 0.498559 0.028395 0.059867
H15   H     H_    0.283955 0.554972 0.987884 0.133056
H16   H     H_    0.229267 0.523304 0.098232 0.129365
C38   C     C_3   0.158888 0.460902 0.967835 -0.788291
H17   H     H_    0.128804 0.402406 0.004625 0.254828
H18   H     H_    0.097437 0.511875 0.958427 0.204370
H19   H     H_    0.179630 0.440396 0.895413 0.245062
O10   O     O_3   0.577188 0.647489 0.946917 -0.594054
C39   C     C_3   0.494727 0.703510 0.965222 0.062991
H20   H     H_    0.436955 0.668377 0.005296 0.132812
H21   H     H_    0.455300 0.729800 0.896165 0.138868
C40   C     C_3   0.537354 0.781416 0.027212 -0.778807
H22   H     H_    0.594012 0.819228 0.988743 0.248139
H23   H     H_    0.473258 0.826212 0.041886 0.195346
H24   H     H_    0.576205 0.757083 0.097392 0.245592
C41   C     C_3   0.964918 0.441482 0.276039 -0.410504
C42   C     C_3   0.028905 0.424609 0.191471 -0.862941
H25   H     H_    0.072418 0.485364 0.175404 0.251227
H26   H     H_    0.082860 0.368439 0.207916 0.252313
H27   H     H_    0.976309 0.407023 0.125666 0.246725
H28   H     H_    0.921019 0.379686 0.287641 0.203336
H29   H     H_    0.908720 0.494533 0.252499 0.201040
C43   C     C_3   0.033658 0.578341 0.717877 -0.417195
C44   C     C_3   0.968273 0.608946 0.797100 -0.857574
H30   H     H_    0.913923 0.661902 0.769315 0.254839
H31   H     H_    0.925003 0.552176 0.824294 0.254437
H32   H     H_    0.019857 0.636786 0.858924 0.239948
H33   H     H_    0.086840 0.525964 0.749339 0.203680
H34   H     H_    0.080892 0.636366 0.699608 0.202015
C45   C     C_3   0.621542 0.051306 0.659486 -0.413305
C46   C     C_3   0.563611 0.046704 0.749416 -0.819736
H35   H     H_    0.544752 0.114437 0.773571 0.248280
H36   H     H_    0.490922 0.007861 0.733643 0.250464
H37   H     H_    0.612727 0.013694 0.809152 0.240015
H38   H     H_    0.643762 0.983194 0.639751 0.206639
H39   H     H_    0.695004 0.088830 0.677086 0.195060
C47   C     C_3   0.652766 0.949101 0.395626 -0.415668
C48   C     C_3   0.620084 0.948685 0.286554 -0.819500
H40   H     H_    0.610949 0.879596 0.258870 0.249102
H41   H     H_    0.545740 0.984395 0.270197 0.250316
H42   H     H_    0.680109 0.982509 0.248521 0.239991
H43   H     H_    0.666442 0.018686 0.420094 0.207381
H44   H     H_    0.728013 0.914411 0.410716 0.194265
C49   C     C_3   0.362217 0.226559 0.345404 -0.408386
C50   C     C_3   0.410969 0.230981 0.250110 -0.787150
H45   H     H_    0.356264 0.262732 0.193661 0.245831
H46   H     H_    0.483591 0.270585 0.259249 0.267867
H47   H     H_    0.428498 0.163226 0.225089 0.237727
H48   H     H_    0.289502 0.187021 0.333774 0.189652
H49   H     H_    0.338133 0.293797 0.366195 0.201825
C51   C     C_3   0.333265 0.769371 0.591034 -0.389672
C52   C     C_3   0.354596 0.767989 0.701258 -0.831717
H50   H     H_    0.291234 0.732081 0.732553 0.228704
H51   H     H_    0.428563 0.733561 0.723010 0.257574
H52   H     H_    0.359377 0.836605 0.730748 0.241365
H53   H     H_    0.260024 0.805621 0.570110 0.190028
H54   H     H_    0.319727 0.700542 0.563972 0.200744

loop_
_geom_bond_atom_site_label_1
_geom_bond_atom_site_label_2
_ccdc_geom_bond_type
C44   H30   S    
C4    C36   A    
C48   H40   S    
C39   H21   S    
C49   H48   S    
C19   C20   S    
C24   C27   A    
C51   C52   S    
C11   C19   A    
C47   H43   S    
C45   C46   S    
C15   N1    A    
C21   O5    A    
C43   H33   S    
C42   H27   S    
C22   O6    A    
C41   H28   S    
C52   H50   S    
C50   H45   S    
C18   C20   A    
C15   C17   A    
C24   C29   A    
C6    C51   S    
C17   C19   A    
C13   H13   S    
C27   H6    S    
C14   H14   S    
C52   H51   S    
C34   C47   S    
C49   C50   S    
C36   H8    S    
C23   C30   A    
C45   H39   S    
C21   O7    A    
Cu1   O4    S    
Cu2   O7    S    
C25   C32   A    
C26   C31   A    
C48   H41   S    
C9    C33   A    
C39   C40   S    
C9    C10   S    
Cu1   O8    S    
C13   N1    A    
C38   H17   S    
C37   C38   S    
C49   H49   S    
C15   H3    S    
C42   H26   S    
C5    C7    A    
C43   C44   S    
C39   H20   S    
C6    C8    A    
C46   H37   S    
C41   C42   S    
C38   H18   S    
C37   H16   S    
C2    C4    S    
C40   H22   S    
C8    H10   S    
Cu1   Cu2   S    
C11   H11   S    
C1    O3    A    
C22   O8    A    
Cu2   O3    S    
C31   C32   A    
C3    C35   A    
C26   C43   S    
C52   H52   S    
C12   C20   A    
C10   C34   A    
C16   C18   A    
C23   C28   A    
C46   H36   S    
C40   H23   S    
Cu1   O5    S    
Cu2   O6    S    
Cu1   N2    S    
C4    C6    A    
C14   N2    A    
C12   C14   A    
C48   H42   S    
C44   H31   S    
C44   H32   S    
C35   H7    S    
C16   H4    S    
C41   H29   S    
C5    C49   S    
C18   O10   S    
C7    C9    A    
C25   C41   S    
C47   H44   S    
C51   H53   S    
C42   H25   S    
C3    C5    A    
C33   C45   S    
C12   H12   S    
C2    O4    A    
C25   C27   A    
C28   H5    S    
C26   C28   A    
C50   H47   S    
C38   H19   S    
C37   H15   S    
C1    O1    A    
O10   C39   S    
C29   C31   A    
C43   H34   S    
C17   O9    S    
C30   C32   A    
C11   C13   A    
Cu2   N1    S    
C29   H2    S    
C47   C48   S    
C33   C35   A    
C50   H46   S    
C30   H1    S    
C34   C36   A    
C46   H35   S    
C40   H24   S    
C16   N2    A    
O9    C37   S    
Cu1   O1    S    
Cu2   O2    S    
C8    C10   A    
C21   C24   S    
C22   C23   S    
C2    O2    A    
C1    C3    S    
C45   H38   S    
C51   H54   S    
C7    H9    S    
