data_mof_unit_4833.cif
_audit_creation_date              2012-12-10T16:32:41-0500
_audit_creation_method            fapswitch 2.2
_symmetry_space_group_name_H-M    P1
_symmetry_Int_Tables_number       1
_space_group_crystal_system       triclinic
_cell_length_a                    16.969173
_cell_length_b                    16.977458
_cell_length_c                    16.982554
_cell_angle_alpha                 65.4425
_cell_angle_beta                  65.354338
_cell_angle_gamma                 65.36234
_cell_volume                      3865.08959284

loop_
_atom_site_label
_atom_site_type_symbol
_atom_type_description
_atom_site_fract_x
_atom_site_fract_y
_atom_site_fract_z
_atom_type_partial_charge
C1    C     C_R   0.589458 0.044017 0.586514 0.002953
C2    C     C_R   0.822175 0.565071 0.030727 0.995894
C3    C     C_R   0.432679 0.972479 0.177819 0.990941
C4    C     C_R   0.565825 0.028896 0.822384 0.949515
C5    C     C_R   0.564757 0.822174 0.031771 0.910027
C6    C     C_R   0.437927 0.179054 0.962038 0.954044
C7    C     C_R   0.030572 0.565254 0.822349 0.915752
C8    C     C_R   0.962222 0.437823 0.179070 0.943810
C9    C     C_R   0.822058 0.033149 0.564218 0.966201
C10   C     C_R   0.179116 0.962166 0.437829 0.941492
C11   C     C_R   0.552716 0.008090 0.544042 -0.212279
C12   C     C_R   0.411099 0.964607 0.410147 0.008918
C13   C     C_R   0.470715 0.964665 0.457708 -0.193935
C14   C     C_R   0.006446 0.545265 0.552453 -0.211709
C15   C     C_R   0.962708 0.459257 0.470475 -0.194364
C16   C     C_R   0.544710 0.551633 0.008907 -0.211371
C17   C     C_R   0.459168 0.469888 0.964161 -0.194831
C18   C     C_R   0.601217 0.992913 0.457564 0.411070
C19   C     C_R   0.449719 0.935636 0.553265 0.463976
C20   C     C_R   0.989451 0.459649 0.601405 0.408598
C21   C     C_R   0.935151 0.554934 0.448421 0.463253
C22   C     C_R   0.459149 0.600713 0.991584 0.409693
C23   C     C_R   0.042325 0.587271 0.589635 0.005036
C24   C     C_R   0.554954 0.447743 0.936951 0.463554
C25   C     C_R   0.557719 0.978508 0.410898 0.292619
C26   C     C_R   0.481464 0.967133 0.596426 0.300513
C27   C     C_R   0.412708 0.557412 0.976625 0.294130
C28   C     C_R   0.597404 0.479370 0.969392 0.301556
C29   C     C_R   0.974878 0.413026 0.558013 0.294059
C30   C     C_R   0.967157 0.597637 0.480161 0.302594
C31   C     C_R   0.546533 0.053049 0.675062 0.408004
C32   C     C_R   0.432974 0.991218 0.314592 0.382065
C33   C     C_R   0.053755 0.674860 0.546630 0.373059
C34   C     C_R   0.963186 0.411075 0.411127 0.008501
C35   C     C_R   0.989799 0.315371 0.433529 0.381939
C36   C     C_R   0.674168 0.545589 0.056748 0.375063
C37   C     C_R   0.315317 0.433256 0.990290 0.381457
C38   C     C_R   0.324826 0.949300 0.456785 0.350565
C39   C     C_R   0.672791 0.064070 0.544474 0.376657
C40   C     C_R   0.457428 0.324488 0.948680 0.348435
C41   C     C_R   0.544530 0.673280 0.062589 0.405378
C42   C     C_R   0.948629 0.457164 0.324669 0.348419
C43   C     C_R   0.059957 0.545559 0.673812 0.407014
C44   C     C_R   0.602127 0.031838 0.728807 -0.259190
C45   C     C_R   0.586433 0.588757 0.045247 0.001945
C46   C     C_R   0.397663 0.960482 0.274168 -0.237602
C47   C     C_R   0.032596 0.728851 0.602087 -0.191471
C48   C     C_R   0.960018 0.274428 0.397819 -0.232565
C49   C     C_R   0.728058 0.600879 0.036140 -0.188878
C50   C     C_R   0.274522 0.397757 0.960081 -0.236311
C51   C     C_R   0.278083 0.939985 0.409001 -0.261708
C52   C     C_R   0.727639 0.040674 0.600142 -0.283108
C53   C     C_R   0.409270 0.277906 0.939705 -0.265292
C54   C     C_R   0.600648 0.728048 0.037989 -0.333567
C55   C     C_R   0.939990 0.408990 0.277906 -0.262331
C56   C     C_R   0.411134 0.410803 0.963840 0.010076
C57   C     C_R   0.034794 0.601647 0.728850 -0.343592
C58   C     C_R   0.694692 0.008942 0.692455 0.260591
C59   C     C_R   0.324449 0.926324 0.325029 0.257122
C60   C     C_R   0.004843 0.694509 0.694405 0.257770
C61   C     C_R   0.926572 0.324927 0.324159 0.256681
C62   C     C_R   0.693508 0.693014 0.009768 0.248716
C63   C     C_R   0.325232 0.324320 0.926181 0.256804
C64   C     C_3   0.364357 0.959397 0.731367 -0.147003
C65   C     C_3   0.656481 0.016919 0.265232 -0.074706
C66   C     C_3   0.962940 0.731254 0.361860 -0.146792
C67   C     C_R   0.972385 0.177887 0.432747 0.978242
C68   C     C_3   0.010124 0.267851 0.658431 -0.073883
C69   C     C_3   0.731506 0.361189 0.964634 -0.146627
C70   C     C_3   0.267265 0.657948 0.011820 -0.074189
C71   C     C_3   0.482571 0.782267 0.601626 -0.328010
C72   C     C_3   0.737612 0.887849 0.463768 -0.224120
C73   C     C_3   0.606105 0.479852 0.783613 -0.327706
C74   C     C_3   0.468451 0.735453 0.885032 -0.234671
C75   C     C_3   0.781681 0.605737 0.480024 -0.328097
C76   C     C_3   0.882852 0.468048 0.736543 -0.233090
C77   C     C_R   0.029181 0.822397 0.565726 1.011654
C78   C     C_R   0.177917 0.432703 0.972404 0.989093
H1    H     H_    0.341499 0.900064 0.749249 0.193238
H2    H     H_    0.979892 0.269125 0.729929 0.173505
H3    H     H_    0.079574 0.275675 0.630415 0.146644
H4    H     H_    0.017492 0.199541 0.659048 0.179393
H5    H     H_    0.749998 0.337523 0.905651 0.193103
H6    H     H_    0.688141 0.322923 0.025868 0.147102
H7    H     H_    0.795633 0.344671 0.978909 0.180436
H8    H     H_    0.268490 0.729429 0.981958 0.173537
H9    H     H_    0.274912 0.629781 0.081258 0.146038
H10   H     H_    0.198959 0.658712 0.018889 0.179746
H11   H     H_    0.534864 0.775056 0.629586 0.156310
H12   H     H_    0.325030 0.020732 0.689097 0.148987
H13   H     H_    0.514522 0.775940 0.531621 0.167175
H14   H     H_    0.452895 0.725435 0.644590 0.193018
H15   H     H_    0.724036 0.840530 0.444579 0.164586
H16   H     H_    0.717520 0.871057 0.538841 0.145560
H17   H     H_    0.811814 0.877666 0.438288 0.212694
H18   H     H_    0.634012 0.531838 0.777184 0.155282
H19   H     H_    0.536554 0.512142 0.776017 0.167670
H20   H     H_    0.650058 0.449831 0.727077 0.193094
H21   H     H_    0.449538 0.721888 0.837524 0.167425
H22   H     H_    0.543589 0.713860 0.869424 0.141050
H23   H     H_    0.348163 0.972881 0.795810 0.179609
H24   H     H_    0.444416 0.809707 0.873858 0.213479
H25   H     H_    0.774700 0.633954 0.532022 0.156009
H26   H     H_    0.774219 0.536206 0.512321 0.167188
H27   H     H_    0.725294 0.649341 0.449787 0.192901
H28   H     H_    0.835658 0.448762 0.722888 0.166698
H29   H     H_    0.866606 0.543145 0.715457 0.142685
H30   H     H_    0.871752 0.443723 0.810760 0.215551
H31   H     H_    0.428703 0.117576 0.654546 0.335292
H32   H     H_    0.462797 0.096814 0.297189 0.327184
H33   H     H_    0.119070 0.653063 0.429485 0.337927
H34   H     H_    0.728336 0.987829 0.265467 0.173862
H35   H     H_    0.094386 0.298120 0.465004 0.326815
H36   H     H_    0.652859 0.428312 0.121092 0.337880
H37   H     H_    0.297714 0.464414 0.095167 0.326811
H38   H     H_    0.254869 0.905965 0.579111 0.363381
H39   H     H_    0.737996 0.143376 0.441083 0.347087
H40   H     H_    0.579760 0.254378 0.905044 0.364355
H41   H     H_    0.441179 0.738642 0.142002 0.350661
H42   H     H_    0.905250 0.579375 0.254728 0.364141
H43   H     H_    0.141303 0.443142 0.737309 0.349657
H44   H     H_    0.727129 0.912653 0.795066 0.326665
H45   H     H_    0.627297 0.085847 0.274425 0.145337
H46   H     H_    0.255742 0.943533 0.251063 0.361240
H47   H     H_    0.908674 0.723421 0.799967 0.358316
H48   H     H_    0.945005 0.250693 0.255139 0.361337
H49   H     H_    0.724850 0.795089 0.912648 0.326628
H50   H     H_    0.251112 0.255507 0.943896 0.360918
H51   H     H_    0.656667 0.025025 0.196882 0.180627
H52   H     H_    0.904175 0.749572 0.337933 0.192973
H53   H     H_    0.024457 0.687760 0.323813 0.147678
H54   H     H_    0.977219 0.795336 0.345359 0.179429
O1    O     O_R   0.982940 0.138950 0.510160 -0.576046
O2    O     O_R   0.982940 0.510160 0.138950 -0.615971
O3    O     O_R   0.861050 0.017060 0.489840 -0.631649
O4    O     O_R   0.138950 0.982940 0.510160 -0.618469
O5    O     O_R   0.867700 0.025880 0.612340 -0.550722
O6    O     O_R   0.132300 0.974120 0.387660 -0.617882
O7    O     O_R   0.025880 0.612340 0.867700 -0.591870
O8    O     O_R   0.974120 0.387660 0.132300 -0.617461
O9    O     O_R   0.612340 0.867700 0.025880 -0.592589
O10   O     O_R   0.387660 0.132300 0.974120 -0.616339
O11   O     O_R   0.387660 0.974120 0.132300 -0.644552
O12   O     O_R   0.017060 0.861050 0.489840 -0.588676
O13   O     O_R   0.612340 0.025880 0.867700 -0.621372
O14   O     O_R   0.132300 0.387660 0.974120 -0.643966
O15   O     O_R   0.867700 0.612340 0.025880 -0.586700
O16   O     O_R   0.974120 0.132300 0.387660 -0.646538
O17   O     O_R   0.025880 0.867700 0.612340 -0.582096
O18   O     O_3   0.459464 0.939140 0.690453 -0.591546
O19   O     O_3   0.606390 0.956075 0.329932 -0.574686
O20   O     O_3   0.940933 0.691706 0.457020 -0.588075
O21   O     O_3   0.950821 0.332989 0.606808 -0.575970
O22   O     O_3   0.691561 0.456344 0.943228 -0.589605
O23   O     O_R   0.138950 0.510160 0.982940 -0.570781
O24   O     O_3   0.332687 0.606368 0.952429 -0.575348
O25   O     O_3   0.412500 0.864582 0.604114 -0.561581
O26   O     O_3   0.693922 0.978950 0.423898 -0.552857
O27   O     O_3   0.606965 0.410137 0.866182 -0.560397
O28   O     O_3   0.426483 0.693561 0.976042 -0.552403
O29   O     O_3   0.864597 0.606591 0.410541 -0.561054
O30   O     O_3   0.974178 0.426923 0.694167 -0.552731
O31   O     O_3   0.453791 0.089379 0.706599 -0.706885
O32   O     O_3   0.474117 0.058748 0.260159 -0.722638
O33   O     O_3   0.091537 0.705402 0.454182 -0.710958
O34   O     O_R   0.861050 0.489840 0.017060 -0.588899
O35   O     O_3   0.056421 0.261165 0.475942 -0.722391
O36   O     O_3   0.705132 0.453060 0.093727 -0.709848
O37   O     O_3   0.260846 0.475535 0.057059 -0.722951
O38   O     O_3   0.281748 0.956854 0.543283 -0.700148
O39   O     O_3   0.694471 0.111847 0.453635 -0.683169
O40   O     O_3   0.543985 0.281148 0.956085 -0.698825
O41   O     O_3   0.453387 0.695823 0.109804 -0.683474
O42   O     O_3   0.956280 0.543543 0.281453 -0.699047
O43   O     O_3   0.108146 0.454770 0.695604 -0.683648
O44   O     O_3   0.753023 0.960010 0.745273 -0.678972
O45   O     O_R   0.510160 0.982940 0.138950 -0.569155
O46   O     O_3   0.291262 0.891029 0.289670 -0.708665
O47   O     O_3   0.953586 0.752007 0.748236 -0.683200
O48   O     O_3   0.892030 0.289152 0.290638 -0.708393
O49   O     O_3   0.751012 0.746604 0.960465 -0.706699
O50   O     O_3   0.289625 0.291035 0.891231 -0.707634
O51   O     O_R   0.489840 0.017060 0.861050 -0.572136
O52   O     O_R   0.489840 0.861050 0.017060 -0.617535
O53   O     O_R   0.510160 0.138950 0.982940 -0.611998
O54   O     O_R   0.017060 0.489840 0.861050 -0.614542
Zn1   Zn    Zn3+2 0.004880 0.004880 0.583590 1.059806
Zn2   Zn    Zn3+2 0.995120 0.995120 0.416410 1.001552
Zn3   Zn    Zn3+2 0.004880 0.583590 0.004880 1.044544
Zn4   Zn    Zn3+2 0.995120 0.416410 0.995120 1.002564
Zn5   Zn    Zn3+2 0.583590 0.004880 0.004880 1.033308
Zn6   Zn    Zn3+2 0.416410 0.995120 0.995120 1.001603

loop_
_geom_bond_atom_site_label_1
_geom_bond_atom_site_label_2
_ccdc_geom_bond_type
C8    O8    A    
C68   H2    S    
C28   O22   S    
H36   O36   S    
C11   C18   A    
C16   C28   A    
O45   Zn5   S    
O1    Zn1   S    
C46   C59   A    
O8    Zn4   S    
C7    O54   A    
C76   O30   S    
O9    Zn5   S    
C64   H12   S    
H37   O37   S    
C70   H10   S    
O51   Zn6   S    
C24   O27   S    
C23   C43   A    
C60   O47   S    
C73   H19   S    
C18   C25   A    
C6    O53   A    
C70   O24   S    
C68   H3    S    
O2    Zn3   S    
C67   O1    A    
C10   O4    A    
C37   O37   S    
O53   Zn5   S    
H44   O44   S    
C78   O23   A    
C70   H9    S    
C55   C61   A    
C1    C31   A    
C72   O26   S    
C34   C35   A    
C19   C26   A    
C39   O39   S    
O23   Zn3   S    
C47   C60   A    
C37   C56   A    
C43   O43   S    
C71   H14   S    
C44   C58   A    
C34   C42   A    
C40   C56   A    
C1    C11   S    
H47   O47   S    
C76   H28   S    
O11   Zn6   S    
O52   Zn6   S    
C69   H5    S    
C15   C29   A    
H33   O33   S    
C6    O10   A    
C2    O34   A    
C5    O52   A    
H46   O46   S    
C74   H24   S    
C72   H16   S    
C39   C52   A    
O10   Zn6   S    
C48   C67   S    
C63   O50   S    
C12   C32   A    
C75   H25   S    
C50   C63   A    
C72   H17   S    
C13   C25   A    
C64   H23   S    
C9    C52   S    
C9    O5    A    
C14   C30   A    
C35   C48   A    
C50   C78   S    
C8    C55   S    
C38   O38   S    
C66   H54   S    
C20   C29   A    
C73   H20   S    
C71   O25   S    
C31   O31   S    
C17   C24   A    
C21   O29   S    
C31   C44   A    
C13   C19   A    
C8    O2    A    
C35   O35   S    
C17   C27   A    
C14   C20   A    
C5    C54   S    
C26   O18   S    
H50   O50   S    
C68   O21   S    
H31   O31   S    
C77   O17   A    
C1    C39   A    
C57   C60   A    
C74   H22   S    
C38   C51   A    
C4    C44   S    
C11   C26   A    
C23   C33   A    
C2    O15   A    
C36   O36   S    
C64   O18   S    
O34   Zn4   S    
C19   O25   S    
C14   C23   S    
C65   O19   S    
O6    Zn2   S    
C65   H34   S    
C66   O20   S    
C18   O26   S    
C2    C49   S    
C42   C55   A    
H39   O39   S    
C30   O20   S    
C71   H11   S    
H40   O40   S    
C20   O30   S    
H32   O32   S    
C43   C57   A    
C3    O11   A    
C36   C45   A    
H48   O48   S    
C17   C56   S    
C52   C58   A    
C33   O33   S    
C72   H15   S    
C9    O3    A    
H42   O42   S    
C75   H27   S    
C76   H29   S    
C22   C27   A    
O4    Zn1   S    
C42   O42   S    
C75   H26   S    
C33   C47   A    
C64   H1    S    
C51   C59   A    
C47   C77   S    
C6    C53   S    
C70   H8    S    
O3    Zn2   S    
C40   O40   S    
C69   H7    S    
C29   O21   S    
C66   H53   S    
O12   Zn2   S    
C27   O24   S    
C41   O41   S    
C16   C22   A    
C49   C62   A    
C15   C34   S    
C32   C46   A    
C59   O46   S    
C58   O44   S    
C5    O9    A    
C24   C28   A    
O7    Zn3   S    
C16   C45   S    
H35   O35   S    
C65   H51   S    
O17   Zn1   S    
C74   H21   S    
C74   O28   S    
O16   Zn2   S    
C54   C62   A    
C21   C30   A    
C73   O27   S    
C3    C46   S    
C69   O22   S    
C75   O29   S    
C25   O19   S    
C10   C51   S    
C3    O45   A    
C77   O12   A    
C68   H4    S    
C69   H6    S    
H41   O41   S    
C62   O49   S    
C7    O7    A    
C37   C50   A    
C53   C63   A    
C48   C61   A    
H43   O43   S    
C22   O28   S    
O15   Zn3   S    
H49   O49   S    
C4    O13   A    
C32   O32   S    
C65   H45   S    
C4    O51   A    
C12   C38   A    
C41   C54   A    
C78   O14   A    
C15   C21   A    
C71   H13   S    
C12   C13   S    
C61   O48   S    
C76   H30   S    
C40   C53   A    
C67   O16   A    
C41   C45   A    
O14   Zn4   S    
O54   Zn4   S    
C10   O6    A    
C73   H18   S    
O5    Zn1   S    
C7    C57   S    
O13   Zn5   S    
C36   C49   A    
H38   O38   S    
C66   H52   S    
