data_mof_unit_3093.cif
_audit_creation_date              2012-12-10T17:11:00-0500
_audit_creation_method            fapswitch 2.2
_symmetry_space_group_name_H-M    P1
_symmetry_Int_Tables_number       1
_space_group_crystal_system       triclinic
_cell_length_a                    11.661134
_cell_length_b                    13.009127
_cell_length_c                    13.45067
_cell_angle_alpha                 91.978305
_cell_angle_beta                  76.454375
_cell_angle_gamma                 99.888553
_cell_volume                      1954.2182667

loop_
_atom_site_label
_atom_site_type_symbol
_atom_type_description
_atom_site_fract_x
_atom_site_fract_y
_atom_site_fract_z
_atom_type_partial_charge
C1    C     C_R   0.520924 0.700884 0.501596 0.839569
C2    C     C_R   0.445750 0.486948 0.975950 0.082896
C3    C     C_R   0.470932 0.461559 0.870444 0.080888
C4    C     C_R   0.530805 0.475774 0.033798 0.074291
C5    C     C_R   0.633436 0.431145 0.988057 0.163040
C6    C     C_R   0.649108 0.395902 0.887675 -0.241270
C7    C     C_R   0.568326 0.409358 0.830212 -0.200877
C8    C     C_R   0.517412 0.507993 0.135842 -0.248689
C9    C     C_R   0.700015 0.448821 0.146568 -0.195251
C10   C     C_R   0.396925 0.487988 0.808366 -0.102397
C11   C     C_R   0.467316 0.185765 0.497879 -0.086630
C12   C     C_R   0.435801 0.491328 0.695987 0.786157
C13   C     C_R   0.533386 0.814329 0.502767 -0.096315
C14   C     C_R   0.654424 0.985106 0.511777 0.393556
C15   C     C_R   0.641935 0.876056 0.510797 -0.296587
C16   C     C_R   0.436291 0.861130 0.495827 -0.273179
C17   C     C_R   0.446814 0.969042 0.496611 0.101995
C18   C     C_R   0.556248 0.031640 0.504580 0.132162
C19   C     C_R   0.565188 0.139838 0.505137 -0.218606
C20   C     C_R   0.359296 0.123106 0.490024 -0.184817
C21   C     C_R   0.349110 0.015181 0.489422 -0.186439
C22   C     C_R   0.944539 0.594705 0.597400 -0.342483
C23   C     C_R   0.479101 0.299128 0.498591 0.804546
C24   C     C_R   0.825796 0.585841 0.587845 0.092407
C25   C     C_R   0.857811 0.459187 0.457830 0.028850
C26   C     C_R   0.978039 0.465506 0.464705 0.070350
C27   C     C_R   0.021833 0.534278 0.535494 0.066335
C28   C     C_R   0.142105 0.540689 0.542283 0.021120
C29   C     C_R   0.174099 0.413987 0.412313 0.085565
C30   C     C_R   0.055306 0.405024 0.402850 -0.330515
C31   C     C_R   0.563534 0.502576 0.304127 0.803105
C32   C     C_R   0.718048 0.419789 0.044167 -0.192522
C33   C     C_R   0.597916 0.490611 0.193174 -0.048263
C34   C     C_R   0.289592 0.522775 0.854282 -0.185935
C35   C     C_R   0.258401 0.536960 0.959186 -0.148887
C36   C     C_R   0.335976 0.521457 0.019429 -0.182237
Cu1   Cu    Cu3+1 0.386470 0.492430 0.492410 0.937533
Cu2   Cu    Cu3+1 0.613530 0.507570 0.507590 0.936190
H1    H     H_    0.762854 0.434430 0.190240 0.146691
H2    H     H_    0.282723 0.157372 0.484308 0.160071
H3    H     H_    0.265000 0.967844 0.483291 0.136387
H4    H     H_    0.717082 0.839608 0.516299 0.154129
H5    H     H_    0.352164 0.813684 0.489697 0.162538
H6    H     H_    0.176973 0.593293 0.596405 0.115373
H7    H     H_    0.233107 0.367086 0.364421 0.128293
H8    H     H_    0.975526 0.648354 0.652656 0.138118
H9    H     H_    0.024281 0.351298 0.347666 0.143091
H10   H     H_    0.766765 0.632694 0.635774 0.131112
H11   H     H_    0.724276 0.357571 0.853264 0.151913
H12   H     H_    0.822936 0.406581 0.403712 0.118639
H13   H     H_    0.796393 0.385613 0.009599 0.134738
H14   H     H_    0.443829 0.545674 0.173738 0.146716
H15   H     H_    0.230880 0.541921 0.808636 0.149232
H16   H     H_    0.305800 0.535079 0.100006 0.127856
H17   H     H_    0.174997 0.563382 0.993809 0.140356
H18   H     H_    0.582095 0.375732 0.754672 0.176961
H19   H     H_    0.648473 0.188590 0.511201 0.204044
N1    N     N_R   0.215880 0.481050 0.481000 -0.180677
N2    N     N_R   0.784100 0.518950 0.519000 -0.183957
O1    O     O_R   0.419710 0.645650 0.494620 -0.590487
O2    O     O_R   0.611450 0.658430 0.507430 -0.587607
O3    O     O_R   0.357340 0.490460 0.641450 -0.582066
O4    O     O_R   0.549080 0.503250 0.654260 -0.589094
O5    O     O_R   0.388550 0.341570 0.492570 -0.586564
O6    O     O_R   0.580290 0.354350 0.505380 -0.596250
O7    O     O_R   0.450920 0.496750 0.345740 -0.588731
O8    O     O_R   0.642660 0.509540 0.358550 -0.585521
O9    O     O_3   0.760860 0.047010 0.519583 -0.755205
H20   H     H_    0.819890 0.001777 0.523882 0.321244

loop_
_geom_bond_atom_site_label_1
_geom_bond_atom_site_label_2
_ccdc_geom_bond_type
C31   O7    A    
C2    C4    A    
C31   C33   S    
C32   H13   S    
C26   C30   A    
C29   C30   A    
C28   N1    A    
C2    C3    A    
C12   O3    A    
C14   C18   A    
C35   C36   A    
Cu2   O6    S    
C4    C8    A    
Cu2   O2    S    
Cu1   O7    S    
C23   O6    A    
Cu1   O3    S    
Cu2   O8    S    
C10   C34   A    
C3    C10   A    
O9    H20   S    
C19   H19   S    
C31   O8    A    
C16   H5    S    
C11   C19   A    
C26   C27   A    
C6    C7    A    
C10   C12   S    
C7    H18   S    
C9    C33   A    
C24   N2    A    
C21   H3    S    
C29   N1    A    
C11   C23   S    
C23   O5    A    
C22   H8    S    
Cu1   Cu2   S    
C17   C18   A    
C3    C7    A    
C22   C27   A    
C13   C15   A    
C6    H11   S    
C5    C6    A    
C34   C35   A    
C22   C24   A    
C11   C20   A    
C13   C16   A    
Cu1   O1    S    
C36   H16   S    
C35   H17   S    
Cu2   N2    S    
C24   H10   S    
C30   H9    S    
C9    H1    S    
Cu1   O5    S    
C1    C13   S    
C20   C21   A    
C15   H4    S    
C34   H15   S    
Cu2   O4    S    
C1    O1    A    
C2    C36   A    
C27   C28   A    
C12   O4    A    
C18   C19   A    
C8    H14   S    
C14   C15   A    
C4    C5    A    
C14   O9    S    
C25   N2    A    
C9    C32   A    
C25   C26   A    
C25   H12   S    
C20   H2    S    
C28   H6    S    
C5    C32   A    
C17   C21   A    
Cu1   N1    S    
C16   C17   A    
C29   H7    S    
C8    C33   A    
C1    O2    A    
