data_mof_unit_1868.cif
_audit_creation_date              2012-12-10T18:50:01-0500
_audit_creation_method            fapswitch 2.2
_symmetry_space_group_name_H-M    P1
_symmetry_Int_Tables_number       1
_space_group_crystal_system       triclinic
_cell_length_a                    10.610219
_cell_length_b                    9.950984
_cell_length_c                    10.592482
_cell_angle_alpha                 90.285114
_cell_angle_beta                  92.721175
_cell_angle_gamma                 89.66797
_cell_volume                      1117.08448626

loop_
_atom_site_label
_atom_site_type_symbol
_atom_type_description
_atom_site_fract_x
_atom_site_fract_y
_atom_site_fract_z
_atom_type_partial_charge
C1    C     C_R   0.259600 0.500313 0.491702 0.836261
C2    C     C_R   0.577251 0.928646 0.583424 0.008435
C3    C     C_R   0.420271 0.928531 0.419627 -0.115065
C4    C     C_R   0.417611 0.071619 0.422372 -0.114525
C5    C     C_R   0.490678 0.499780 0.257999 0.805790
C6    C     C_R   0.738389 0.499964 0.485459 0.886782
C7    C     C_R   0.486703 0.500016 0.740603 0.844615
C8    C     C_3   0.405944 0.621872 0.069494 -0.401296
C9    C     C_3   0.420083 0.368654 0.068734 -0.395826
C10   C     C_3   0.403547 0.621419 0.924598 -0.404775
C11   C     C_3   0.411773 0.371740 0.923894 -0.409761
C12   C     C_3   0.616900 0.502075 0.932746 -0.391404
C13   C     C_3   0.619570 0.507835 0.076623 -0.418837
C14   C     C_3   0.483677 0.499372 0.121088 0.206247
C15   C     C_3   0.479659 0.499075 0.877323 0.184488
C16   C     C_R   0.698123 0.135383 0.636420 0.200753
C17   C     C_R   0.698959 0.177502 0.762881 -0.103841
C18   C     C_R   0.812799 0.205689 0.829771 -0.166024
C19   C     C_R   0.927091 0.190925 0.771218 -0.091353
C20   C     C_R   0.927838 0.144485 0.646873 -0.137287
C21   C     C_R   0.814111 0.116090 0.580162 -0.190991
C22   C     C_R   0.645628 0.863895 0.692509 0.190347
C23   C     C_R   0.062554 0.379753 0.445631 -0.204908
C24   C     C_R   0.599585 0.884555 0.813288 -0.191609
C25   C     C_R   0.675814 0.858817 0.921979 -0.162340
C26   C     C_R   0.799429 0.812723 0.911104 -0.138028
C27   C     C_R   0.846680 0.792938 0.791586 -0.153158
C28   C     C_R   0.770871 0.821187 0.683312 -0.087318
C29   C     C_R   0.061562 0.623732 0.456508 -0.208375
C30   C     C_R   0.932830 0.380704 0.436926 -0.184027
C31   C     C_R   0.932061 0.623191 0.446966 -0.210640
C32   C     C_R   0.868761 0.501146 0.455114 -0.023790
C33   C     C_R   0.126209 0.501153 0.466402 -0.010723
C34   C     C_R   0.584997 0.071321 0.575392 0.007938
H1    H     H_    0.448189 0.717950 0.104767 0.178993
H2    H     H_    0.453156 0.277885 0.887877 0.172707
H3    H     H_    0.664568 0.603224 0.110159 0.171680
H4    H     H_    0.678011 0.423190 0.116095 0.158708
H5    H     H_    0.667965 0.588781 0.895691 0.198606
H6    H     H_    0.667787 0.411067 0.902905 0.168112
H7    H     H_    0.112073 0.284531 0.440383 0.144466
H8    H     H_    0.110037 0.719305 0.460153 0.152077
H9    H     H_    0.883042 0.287977 0.420349 0.153610
H10   H     H_    0.882351 0.717460 0.436992 0.140562
H11   H     H_    0.612869 0.178174 0.812261 0.109354
H12   H     H_    0.475867 0.278665 0.100086 0.182040
H13   H     H_    0.812880 0.234429 0.928439 0.120058
H14   H     H_    0.015130 0.211514 0.823334 0.115287
H15   H     H_    0.016602 0.127804 0.602870 0.123788
H16   H     H_    0.816563 0.073143 0.486089 0.102943
H17   H     H_    0.506604 0.927866 0.823099 0.108079
H18   H     H_    0.639520 0.876225 0.014471 0.129785
H19   H     H_    0.858650 0.793254 0.995108 0.125392
H20   H     H_    0.943610 0.761113 0.782805 0.130903
H21   H     H_    0.812686 0.821584 0.593281 0.112380
H22   H     H_    0.356323 0.875093 0.354833 0.126491
H23   H     H_    0.351341 0.125180 0.359965 0.125765
H24   H     H_    0.307812 0.617577 0.102032 0.154836
H25   H     H_    0.323759 0.358752 0.104901 0.154431
H26   H     H_    0.304230 0.617038 0.885914 0.152559
H27   H     H_    0.311024 0.372788 0.889282 0.158823
H28   H     H_    0.442561 0.716695 0.892256 0.194025
N1    N     N_R   0.499970 0.857200 0.499970 -0.099519
N2    N     N_R   0.499970 0.142800 0.499970 -0.099689
O1    O     O_R   0.316750 0.614620 0.499990 -0.628622
O2    O     O_R   0.316750 0.385380 0.499990 -0.628629
O3    O     O_R   0.499970 0.614670 0.314790 -0.632200
O4    O     O_R   0.499970 0.385330 0.314790 -0.632359
O5    O     O_R   0.683220 0.614710 0.500010 -0.624847
O6    O     O_R   0.683220 0.385290 0.500010 -0.607405
O7    O     O_R   0.500010 0.614660 0.685200 -0.610631
O8    O     O_R   0.500010 0.385340 0.685200 -0.624052
Zn1   Zn    Zn3+2 0.499980 0.653120 0.500000 0.932456
Zn2   Zn    Zn3+2 0.499980 0.346880 0.500000 0.933280

loop_
_geom_bond_atom_site_label_1
_geom_bond_atom_site_label_2
_ccdc_geom_bond_type
C4    H23   S    
C2    C22   S    
C6    O5    A    
C10   H26   S    
C9    C14   S    
C23   C30   A    
O5    Zn1   S    
C20   H15   S    
O3    Zn1   S    
C3    N1    A    
C29   H8    S    
C3    H22   S    
C4    N2    A    
C13   H3    S    
C31   C32   A    
C23   H7    S    
C12   C15   S    
C5    O3    A    
C16   C34   S    
C18   H13   S    
C2    C34   A    
C12   H5    S    
C34   N2    A    
C17   C18   A    
C26   C27   A    
C27   H20   S    
C1    C33   S    
C9    H12   S    
C29   C31   A    
C22   C28   A    
C13   C14   S    
C24   C25   A    
C30   C32   A    
C12   C13   S    
C9    C11   S    
C5    C14   S    
C16   C21   A    
C24   H17   S    
C5    O4    A    
C8    C10   S    
C21   H16   S    
C28   H21   S    
C13   H4    S    
C1    O2    A    
C10   C15   S    
C11   H27   S    
C7    O7    A    
C22   C24   A    
C30   H9    S    
C25   H18   S    
C31   H10   S    
C10   H28   S    
O4    Zn2   S    
C3    C4    A    
O2    Zn2   S    
C26   H19   S    
C29   C33   A    
C7    O8    A    
O1    Zn1   S    
C2    N1    A    
C23   C33   A    
O8    Zn2   S    
C18   C19   A    
O7    Zn1   S    
C27   C28   A    
C6    O6    A    
N2    Zn2   S    
O6    Zn2   S    
C11   H2    S    
C6    C32   S    
C8    C14   S    
C7    C15   S    
N1    Zn1   S    
C8    H24   S    
C25   C26   A    
C19   H14   S    
C11   C15   S    
C1    O1    A    
C20   C21   A    
C19   C20   A    
C17   H11   S    
C16   C17   A    
C9    H25   S    
C8    H1    S    
C12   H6    S    
