data_mof_unit_1351.cif
_audit_creation_date              2012-12-11T17:41:21-0500
_audit_creation_method            fapswitch 2.2
_symmetry_space_group_name_H-M    P1
_symmetry_Int_Tables_number       1
_space_group_crystal_system       triclinic
_cell_length_a                    15.527381
_cell_length_b                    15.058964
_cell_length_c                    15.00667
_cell_angle_alpha                 109.687621
_cell_angle_beta                  121.38338
_cell_angle_gamma                 58.780446
_cell_volume                      2550.99860766

loop_
_atom_site_label
_atom_site_type_symbol
_atom_type_description
_atom_site_fract_x
_atom_site_fract_y
_atom_site_fract_z
_atom_type_partial_charge
C1    C     C_R   0.803494 0.937681 0.773324 -0.132901
C2    C     C_R   0.245353 0.006540 0.208774 -0.117001
C3    C     C_R   0.136846 0.274696 0.481304 0.148980
C4    C     C_R   0.787747 0.700785 0.433393 0.144381
C5    C     C_R   0.503846 0.322835 0.540614 0.041986
C6    C     C_R   0.502140 0.700608 0.566533 0.055628
C7    C     C_R   0.503582 0.028695 0.827849 0.047212
C8    C     C_R   0.503099 0.076100 0.208187 0.064561
C9    C     C_R   0.769051 0.717918 0.945727 0.242860
C10   C     C_R   0.235702 0.407712 0.157898 0.246637
C11   C     C_R   0.680812 0.813240 0.952808 -0.182641
C12   C     C_R   0.329281 0.325398 0.144516 -0.188799
C13   C     C_R   0.700538 0.901851 0.008108 0.076316
C14   C     C_R   0.317061 0.248831 0.059731 0.089344
C15   C     C_R   0.810055 0.893072 0.058561 -0.188226
C16   C     C_R   0.209429 0.256374 0.987769 -0.189470
C17   C     C_R   0.897890 0.797740 0.051170 -0.139125
C18   C     C_R   0.116030 0.338370 0.001647 -0.130927
C19   C     C_R   0.877408 0.710423 0.994500 -0.140213
C20   C     C_R   0.129124 0.413846 0.086675 -0.144468
C21   C     C_R   0.609595 0.033194 0.115505 -0.242439
C22   C     C_R   0.418679 0.141080 0.948857 -0.240054
C23   C     C_R   0.199396 0.274675 0.441084 -0.128795
C24   C     C_R   0.756362 0.710279 0.508855 -0.114678
C25   C     C_R   0.510837 0.100033 0.126959 0.037034
C26   C     C_R   0.510268 0.057466 0.932697 0.058046
C27   C     C_R   0.416669 0.162216 0.045764 0.051007
C28   C     C_R   0.607408 0.002546 0.017752 0.050074
C29   C     C_2   0.021484 0.348335 0.462174 -0.219509
C30   C     C_2   0.849317 0.603026 0.385722 -0.205152
C31   C     C_2   0.961002 0.417929 0.391737 -0.101308
C32   C     C_2   0.865619 0.511751 0.400513 -0.099513
C33   C     C_2   0.984048 0.953658 0.843866 -0.222199
C34   C     C_2   0.155404 0.880861 0.100980 -0.198787
C35   C     C_R   0.301798 0.867205 0.739422 -0.124102
C36   C     C_R   0.719177 0.202873 0.376185 -0.129752
C37   C     C_R   0.380126 0.776307 0.711067 -0.120740
C38   C     C_R   0.641406 0.284665 0.412072 -0.108900
C39   C     C_R   0.346858 0.702742 0.631368 0.105343
C40   C     C_R   0.677282 0.332339 0.514513 0.101309
C41   C     C_R   0.233859 0.721511 0.581561 -0.154264
C42   C     C_R   0.792180 0.298200 0.580039 -0.182037
C43   C     C_R   0.155804 0.812464 0.610365 -0.100973
C44   C     C_R   0.869737 0.215903 0.544097 -0.129108
C45   C     C_R   0.594515 0.228099 0.557837 -0.112457
C46   C     C_R   0.408391 0.782189 0.511094 -0.109009
C47   C     C_R   0.189702 0.885282 0.689110 -0.096731
C48   C     C_R   0.833231 0.168196 0.442249 -0.089442
C49   C     C_R   0.432047 0.510025 0.589809 -0.186949
C50   C     C_R   0.594130 0.516494 0.564470 -0.171069
C51   C     C_R   0.511649 0.419171 0.562606 0.088338
C52   C     C_R   0.509885 0.608070 0.582949 0.093237
C53   C     C_R   0.595204 0.422086 0.551645 0.025855
C54   C     C_R   0.430164 0.606512 0.600685 0.048523
C55   C     C_2   0.044185 0.884641 0.914764 -0.101025
C56   C     C_2   0.139346 0.894713 0.009136 -0.100443
C57   C     C_R   0.408337 0.042667 0.733210 -0.134816
C58   C     C_R   0.593479 0.019806 0.290843 -0.127050
C59   C     C_R   0.408598 0.306279 0.474450 -0.114636
C60   C     C_R   0.593175 0.712462 0.589665 -0.147327
C61   C     C_R   0.594447 0.975115 0.805494 -0.113534
C62   C     C_R   0.409504 0.090545 0.211910 -0.135449
C63   C     C_R   0.198362 0.185075 0.532260 -0.149421
C64   C     C_R   0.756969 0.800635 0.416727 -0.146258
C65   C     C_R   0.804355 0.028373 0.683805 -0.161375
C66   C     C_R   0.244297 0.914924 0.299168 -0.142612
C67   C     C_R   0.867314 0.975335 0.772150 0.157283
C68   C     C_R   0.214825 0.930537 0.199053 0.144442
H1    H     H_    0.831800 0.880804 0.822387 0.095380
H2    H     H_    0.233356 0.039159 0.147091 0.092404
H3    H     H_    0.112713 0.843610 0.103401 0.129664
H4    H     H_    0.016689 0.003629 0.846248 0.128625
H5    H     H_    0.945821 0.636866 0.989141 0.140802
H6    H     H_    0.056521 0.477241 0.096875 0.147840
H7    H     H_    0.597237 0.818466 0.915717 0.131822
H8    H     H_    0.411178 0.321932 0.198834 0.129764
H9    H     H_    0.827005 0.960189 0.102792 0.125700
H10   H     H_    0.197980 0.198140 0.921843 0.112405
H11   H     H_    0.981981 0.791340 0.089799 0.130253
H12   H     H_    0.033426 0.343455 0.946399 0.146091
H13   H     H_    0.684453 0.988174 0.178039 0.127032
H14   H     H_    0.347231 0.187412 0.885116 0.131919
H15   H     H_    0.823090 0.508359 0.437342 0.130872
H16   H     H_    0.991682 0.415621 0.340140 0.133625
H17   H     H_    0.893019 0.605358 0.349363 0.140497
H18   H     H_    0.989728 0.351923 0.513621 0.137453
H19   H     H_    0.129113 0.955648 0.711167 0.095271
H20   H     H_    0.893308 0.104755 0.414349 0.103294
H21   H     H_    0.172153 0.325491 0.386325 0.095034
H22   H     H_    0.769455 0.648844 0.542467 0.090693
H23   H     H_    0.328102 0.923546 0.800525 0.112042
H24   H     H_    0.691098 0.166711 0.297055 0.117339
H25   H     H_    0.466693 0.763258 0.751208 0.133194
H26   H     H_    0.553432 0.311030 0.360730 0.123678
H27   H     H_    0.205880 0.666514 0.519570 0.137101
H28   H     H_    0.821363 0.335048 0.658898 0.138349
H29   H     H_    0.068903 0.826632 0.571411 0.111611
H30   H     H_    0.958114 0.189425 0.595008 0.103739
H31   H     H_    0.371100 0.505343 0.601221 0.127060
H32   H     H_    0.654093 0.518366 0.548970 0.124317
H33   H     H_    0.681102 0.212538 0.606078 0.117509
H34   H     H_    0.322460 0.801705 0.488172 0.111766
H35   H     H_    0.322390 0.080525 0.721104 0.093414
H36   H     H_    0.679103 0.006881 0.322457 0.088240
H37   H     H_    0.323273 0.364070 0.442554 0.127447
H38   H     H_    0.678939 0.669432 0.642247 0.123208
H39   H     H_    0.680657 0.956261 0.857996 0.118659
H40   H     H_    0.323515 0.138344 0.164981 0.112849
H41   H     H_    0.167714 0.154330 0.559652 0.091472
H42   H     H_    0.769474 0.821308 0.363351 0.106888
H43   H     H_    0.835571 0.053359 0.651397 0.100262
H44   H     H_    0.231786 0.861457 0.319423 0.114885
H45   H     H_    0.181091 0.932336 0.005726 0.127880
H46   H     H_    0.012490 0.834688 0.913782 0.129966
N1    N     N_R   0.705410 0.966550 0.689210 -0.044952
N2    N     N_R   0.294590 0.033450 0.310790 -0.046119
N3    N     N_R   0.294590 0.188320 0.465660 -0.044674
N4    N     N_R   0.705410 0.811680 0.534340 -0.045639
N5    N     N_R   0.556610 0.157790 0.497330 -0.043177
N6    N     N_R   0.443390 0.842210 0.502670 -0.042139
N7    N     N_R   0.443390 0.997080 0.657540 -0.038351
N8    N     N_R   0.556610 0.002920 0.342460 -0.038369
N9    N     N_R   0.443390 0.203250 0.451380 -0.042483
N10   N     N_R   0.556610 0.796750 0.548620 -0.039838
N11   N     N_R   0.556610 0.951620 0.703500 -0.042023
N12   N     N_R   0.443390 0.048380 0.296500 -0.041398
N13   N     N_R   0.294590 0.131500 0.522480 -0.040731
N14   N     N_R   0.705410 0.868500 0.477520 -0.044108
N15   N     N_R   0.705410 0.023370 0.632390 -0.041360
N16   N     N_R   0.294590 0.976630 0.367610 -0.045619
Ni1   Ni    Ni4+2 0.629830 0.882720 0.617850 0.218659
Ni2   Ni    Ni4+2 0.370170 0.117280 0.382150 0.218776
Ni3   Ni    Ni4+2 0.629830 0.013030 0.487540 0.214918
Ni4   Ni    Ni4+2 0.370170 0.986970 0.512460 0.216073
I1    I     I_    0.739519 0.584851 0.863366 -0.534193
I2    I     I_    0.255322 0.523732 0.284136 -0.545285

loop_
_geom_bond_atom_site_label_1
_geom_bond_atom_site_label_2
_ccdc_geom_bond_type
C33   C55   D    
C66   C68   A    
C55   C56   S    
C34   C56   D    
N9    Ni2   S    
C3    C23   A    
N13   Ni4   S    
C35   C47   A    
C39   C41   A    
N1    Ni1   S    
C46   H34   S    
N5    Ni3   S    
C7    C26   S    
N4    N14   A    
C42   H28   S    
C22   H14   S    
C35   C37   A    
C10   I2    S    
C2    C68   A    
C4    C24   A    
C39   C54   S    
C62   H40   S    
C49   C54   A    
C17   H11   S    
C60   N10   A    
C3    C29   S    
N3    Ni2   S    
C65   H43   S    
N4    Ni1   S    
C33   H4    S    
C8    C58   A    
C2    N2    A    
C9    C19   A    
C7    C61   A    
C65   C67   A    
C10   C20   A    
C49   C51   A    
C50   C52   A    
C56   H45   S    
C48   H20   S    
C13   C28   S    
C14   C27   S    
C18   C20   A    
C36   H24   S    
C40   C42   A    
C15   H9    S    
C38   C40   A    
C8    C25   S    
C41   C43   A    
N16   Ni4   S    
C42   C44   A    
C10   C12   A    
C52   C54   A    
C59   N9    A    
C57   H35   S    
C58   N8    A    
C50   C53   A    
C5    C59   A    
C46   N6    A    
C6    C60   A    
C19   H5    S    
C34   C68   S    
C62   N12   A    
C17   C19   A    
C64   N14   A    
C5    C45   A    
C1    H1    S    
C31   H16   S    
N10   Ni1   S    
C51   C53   A    
C47   H19   S    
N8    N12   A    
N8    Ni3   S    
N7    N11   A    
C49   H31   S    
C9    C11   A    
N11   Ni1   S    
C64   H42   S    
C31   C32   S    
N2    Ni2   S    
N12   Ni2   S    
C38   H26   S    
C23   H21   S    
C37   H25   S    
C59   H37   S    
C30   H17   S    
N3    N13   A    
C29   H18   S    
C45   H33   S    
N15   Ni3   S    
C9    I1    S    
C18   H12   S    
C21   C28   A    
C12   C14   A    
C44   H30   S    
C3    C63   A    
C22   C27   A    
C12   H8    S    
N7    Ni4   S    
C14   C16   A    
C58   H36   S    
C60   H38   S    
C33   C67   S    
N1    N15   A    
C15   C17   A    
C32   H15   S    
C21   C25   A    
C6    C46   A    
C26   C28   A    
C43   H29   S    
C21   H13   S    
N6    Ni4   S    
C24   H22   S    
C23   N3    A    
C65   N15   A    
C20   H6    S    
C55   H46   S    
N5    N9    A    
C25   C27   A    
C4    C64   A    
C24   N4    A    
C6    C52   S    
C13   C15   A    
C29   C31   D    
C11   H7    S    
N14   Ni3   S    
C30   C32   D    
C11   C13   A    
C45   N5    A    
C41   H27   S    
C36   C38   A    
C1    C67   A    
C36   C48   A    
C16   H10   S    
C61   H39   S    
C4    C30   S    
C50   H32   S    
C57   N7    A    
C44   C48   A    
C37   C39   A    
N2    N16   A    
C16   C18   A    
C40   C53   S    
C22   C26   A    
C5    C51   S    
C61   N11   A    
C1    N1    A    
C66   H44   S    
C2    H2    S    
C43   C47   A    
C34   H3    S    
C7    C57   A    
C63   N13   A    
N6    N10   A    
C8    C62   A    
C63   H41   S    
C66   N16   A    
C35   H23   S    
