data_mof_unit_1455.cif
_audit_creation_date              2012-12-10T18:06:42-0500
_audit_creation_method            fapswitch 2.2
_symmetry_space_group_name_H-M    P1
_symmetry_Int_Tables_number       1
_space_group_crystal_system       triclinic
_cell_length_a                    12.570093
_cell_length_b                    13.218253
_cell_length_c                    15.609401
_cell_angle_alpha                 87.156895
_cell_angle_beta                  100.694423
_cell_angle_gamma                 93.699244
_cell_volume                      2541.34362373

loop_
_atom_site_label
_atom_site_type_symbol
_atom_type_description
_atom_site_fract_x
_atom_site_fract_y
_atom_site_fract_z
_atom_type_partial_charge
C1    C     C_R   0.455634 0.310246 0.523960 0.942327
C2    C     C_R   0.407034 0.495689 0.092113 0.022894
C3    C     C_R   0.319869 0.556945 0.058833 -0.183667
C4    C     C_R   0.459573 0.447454 0.034344 0.015591
C5    C     C_R   0.461293 0.495014 0.951900 -0.053291
C6    C     C_R   0.398007 0.580595 0.927726 0.355915
C7    C     C_R   0.315316 0.599944 0.973177 0.308887
C8    C     C_R   0.517430 0.358504 0.059435 -0.034945
C9    C     C_R   0.598005 0.335925 0.013592 -0.075737
C10   C     C_R   0.608617 0.388652 0.935332 -0.032054
C11   C     C_R   0.531748 0.459773 0.900061 0.071172
C12   C     C_R   0.434671 0.517028 0.335404 0.949691
C13   C     C_R   0.689808 0.367353 0.888615 0.357284
C14   C     C_R   0.686185 0.407748 0.802903 0.332244
C15   C     C_R   0.521161 0.487136 0.811746 -0.154345
C16   C     C_R   0.673722 0.941410 0.415725 -0.106650
C17   C     C_R   0.578121 0.799384 0.478111 -0.113505
C18   C     C_R   0.391120 0.179234 0.630343 0.371884
C19   C     C_R   0.401756 0.084340 0.675183 0.334643
C20   C     C_R   0.466324 0.011206 0.649161 -0.293878
C21   C     C_R   0.521403 0.036733 0.578529 -0.014435
C22   C     C_R   0.538287 0.139800 0.557992 -0.107352
C23   C     C_R   0.552019 0.691287 0.487668 0.973888
C24   C     C_R   0.567766 0.967277 0.530501 0.080381
C25   C     C_R   0.643850 0.004253 0.477479 -0.138673
C26   C     C_R   0.692834 0.101272 0.493595 0.342676
C27   C     C_R   0.640977 0.168304 0.536205 0.421381
C28   C     C_R   0.535759 0.864598 0.529177 -0.157020
C29   C     C_R   0.641649 0.837871 0.417271 0.301660
C30   C     C_R   0.458837 0.208219 0.569444 -0.243344
C31   C     C_R   0.135539 0.686873 0.576890 -0.161871
C32   C     C_R   0.758705 0.378257 0.393460 0.528019
C33   C     C_R   0.848525 0.370359 0.352801 -0.153232
C34   C     C_R   0.564989 0.483963 0.665112 0.965618
C35   C     C_R   0.942185 0.433473 0.378505 -0.173575
C36   C     C_R   0.948468 0.493155 0.452054 0.000034
C37   C     C_R   0.851937 0.510255 0.482672 0.132839
C38   C     C_R   0.046477 0.543739 0.493240 -0.077795
C39   C     C_R   0.040356 0.638693 0.529287 -0.052099
C40   C     C_R   0.935958 0.674662 0.524778 -0.124171
C41   C     C_R   0.851557 0.600692 0.529354 -0.072548
C42   C     C_R   0.147828 0.499446 0.505406 0.420866
C43   C     C_R   0.234374 0.640911 0.583167 0.421637
C44   C     C_R   0.392262 0.531033 0.240460 -0.228780
C45   C     C_R   0.596019 0.461877 0.761066 -0.225612
C46   C     C_R   0.253181 0.584173 0.116873 -0.120238
C47   C     C_R   0.289732 0.571880 0.207821 0.343768
C48   C     C_R   0.454111 0.501505 0.180356 0.356320
H1    H     H_    0.476805 0.834560 0.567174 0.195619
H2    H     H_    0.448675 0.523241 0.780798 0.246844
H3    H     H_    0.647706 0.272745 0.036491 0.235393
N1    N     N_R   0.239390 0.551900 0.544730 -0.147027
N2    N     N_R   0.759950 0.448600 0.455730 -0.138629
O1    O     O_R   0.374950 0.371210 0.521360 -0.527353
O2    O     O_R   0.542050 0.338030 0.492790 -0.576114
O3    O     O_R   0.368720 0.526070 0.390200 -0.582363
O4    O     O_R   0.535820 0.492890 0.361630 -0.531468
O5    O     O_R   0.457950 0.661970 0.507210 -0.594899
O6    O     O_R   0.625050 0.628790 0.478640 -0.585105
O7    O     O_R   0.464180 0.507110 0.638370 -0.578687
O8    O     O_R   0.631280 0.473930 0.609800 -0.572403
Zn1   Zn    Zn3+2 0.388420 0.522150 0.519080 1.102667
Zn2   Zn    Zn3+2 0.611580 0.477850 0.480920 1.105270
Cl1   Cl    Cl    0.227129 0.696403 0.928697 -0.479227
Cl2   Cl    Cl    0.797318 0.290868 0.937256 -0.400387
Cl3   Cl    Cl    0.671470 0.758497 0.337308 -0.489021
Cl4   Cl    Cl    0.828078 0.131494 0.478617 -0.446931
C49   C     C_2   0.727563 0.984687 0.343949 1.087259
O9    O     O_2   0.692881 0.059889 0.301777 -0.542135
O10   O     O_R   0.817964 0.940144 0.324963 -0.677667
H4    H     H_    0.847185 0.976779 0.274847 0.369867
Cl5   Cl    Cl    0.309206 0.267172 0.665345 -0.411379
C50   C     C_2   0.501047 0.924339 0.710156 1.068689
O11   O     O_2   0.596067 0.903232 0.724569 -0.490852
O12   O     O_R   0.428975 0.867970 0.754095 -0.610749
H5    H     H_    0.350353 0.878208 0.728455 0.381371
Cl6   Cl    Cl    0.344121 0.065332 0.770611 -0.420987
Cl7   Cl    Cl    0.723179 0.265450 0.591054 -0.438065
Cl8   Cl    Cl    0.351639 0.691293 0.648833 -0.529551
C51   C     C_2   0.916043 0.784303 0.525228 0.987996
O13   O     O_2   0.966418 0.845947 0.484724 -0.514885
O14   O     O_R   0.839736 0.817374 0.570661 -0.752059
H6    H     H_    0.837017 0.893945 0.568161 0.373364
C52   C     C_2   0.132468 0.777155 0.628629 1.021438
O15   O     O_2   0.180774 0.856593 0.611335 -0.565645
O16   O     O_R   0.074011 0.771111 0.696819 -0.726391
H7    H     H_    0.077807 0.837623 0.727199 0.391964
Cl9   Cl    Cl    0.153808 0.369338 0.488061 -0.488882
Cl10  Cl    Cl    0.639739 0.303915 0.354197 -0.503626
C53   C     C_2   0.025575 0.454711 0.322039 0.855028
O17   O     O_2   0.008468 0.438967 0.243470 -0.343060
O18   O     O_R   0.050741 0.385441 0.262630 -0.555129
H8    H     H_    0.099514 0.325013 0.295002 0.359340
C54   C     C_2   0.842554 0.297613 0.282659 1.165218
O19   O     O_2   0.779837 0.309714 0.213558 -0.514182
O20   O     O_R   0.909469 0.215747 0.295724 -0.723931
H9    H     H_    0.898542 0.171694 0.243117 0.365717
C55   C     C_2   0.825995 0.596624 0.617843 1.051612
O21   O     O_2   0.749905 0.641077 0.633365 -0.568127
O22   O     O_R   0.904957 0.562854 0.686642 -0.706058
H10   H     H_    0.891041 0.581629 0.745649 0.388133
Cl11  Cl    Cl    0.795434 0.387540 0.752423 -0.393772
C56   C     C_2   0.144638 0.622530 0.083722 0.915274
O23   O     O_2   0.060963 0.584891 0.105305 -0.325517
O24   O     O_R   0.055006 0.555136 0.051406 -0.525700
H11   H     H_    0.062691 0.522067 0.991098 0.350811
Cl12  Cl    Cl    0.213995 0.625748 0.277706 -0.546714
Cl13  Cl    Cl    0.598478 0.502541 0.206323 -0.471221
Cl14  Cl    Cl    0.444561 0.682585 0.864554 -0.375212
C57   C     C_2   0.491399 0.285767 0.129916 1.019977
O25   O     O_2   0.554823 0.221495 0.161051 -0.505984
O26   O     O_R   0.392153 0.287450 0.158019 -0.786845
H12   H     H_    0.384253 0.234307 0.205881 0.372285

loop_
_geom_bond_atom_site_label_1
_geom_bond_atom_site_label_2
_ccdc_geom_bond_type
O5    Zn1   S    
C23   O5    A    
C17   C29   A    
C50   O11   D    
C35   C36   A    
C9    H3    S    
C4    C8    A    
C27   Cl7   S    
C33   C54   S    
C13   Cl2   S    
C23   O6    A    
C26   C27   A    
C17   C23   S    
C31   C43   A    
C37   C41   A    
C26   Cl4   S    
C36   C37   A    
C52   O16   S    
C38   C42   A    
C3    C7    A    
C5    C6    A    
C43   N1    A    
C14   Cl11  S    
C43   Cl8   S    
O7    Zn1   S    
C18   C19   A    
C15   H2    S    
O8    Zn2   S    
C57   O25   D    
O18   H8    S    
C11   C15   A    
C19   C20   A    
C8    C9    A    
O2    Zn2   S    
C40   C51   S    
O10   H4    S    
C18   C30   A    
C9    C10   A    
C44   C47   A    
C37   N2    A    
C21   C22   A    
C34   O7    A    
C50   O12   S    
O26   H12   S    
O4    Zn2   S    
C14   C45   A    
C18   Cl5   S    
C38   C39   A    
C47   Cl12  S    
C24   C25   A    
C51   O14   S    
C39   C40   A    
O16   H7    S    
C49   O9    D    
O1    Zn1   S    
C2    C48   A    
C16   C29   A    
C34   O8    A    
C31   C52   S    
C2    C4    A    
O12   H5    S    
C8    C57   S    
C19   Cl6   S    
C28   H1    S    
C53   O18   S    
C32   Cl10  S    
O20   H9    S    
C56   O24   S    
C34   C45   S    
C52   O15   D    
C54   O20   S    
C12   O3    A    
C1    O1    A    
C16   C49   S    
C12   O4    A    
C40   C41   A    
O14   H6    S    
C55   O22   S    
C22   C27   A    
C6    Cl14  S    
O3    Zn1   S    
C42   Cl9   S    
C15   C45   A    
C32   N2    A    
O24   H11   S    
C16   C25   A    
C46   C47   A    
C22   C30   A    
C17   C28   A    
C24   C28   A    
C51   O13   D    
C10   C13   A    
C5    C11   A    
C6    C7    A    
C46   C56   S    
C3    C46   A    
O6    Zn2   S    
C32   C33   A    
C36   C38   A    
C2    C3    A    
C25   C26   A    
C12   C44   S    
N1    Zn1   S    
N2    Zn2   S    
C53   O17   D    
C48   Cl13  S    
C1    C30   S    
C33   C35   A    
C31   C39   A    
C20   C50   S    
C1    O2    A    
C54   O19   D    
C57   O26   S    
C7    Cl1   S    
C10   C11   A    
C29   Cl3   S    
C35   C53   S    
C4    C5    A    
C20   C21   A    
C49   O10   S    
C55   O21   D    
C21   C24   A    
C56   O23   D    
C41   C55   S    
O22   H10   S    
C13   C14   A    
C44   C48   A    
C42   N1    A    
