data_mof_unit_2864.cif
_audit_creation_date              2012-10-26T18:50:07-0400
_audit_creation_method            fapswitch 2.2
_symmetry_space_group_name_H-M    P1
_symmetry_Int_Tables_number       1
_space_group_crystal_system       triclinic
_cell_length_a                    10.837218
_cell_length_b                    13.012978
_cell_length_c                    11.627271
_cell_angle_alpha                 100.106668
_cell_angle_beta                  93.761804
_cell_angle_gamma                 90.413306
_cell_volume                      1610.51496691

loop_
_atom_site_label
_atom_site_type_symbol
_atom_type_description
_atom_site_fract_x
_atom_site_fract_y
_atom_site_fract_z
_atom_type_partial_charge
C1    C     C_R   0.498202 0.298968 0.478351 0.553204
C2    C     C_R   0.510735 0.860440 0.435873 -0.112231
C3    C     C_R   0.495830 0.031581 0.556228 0.007758
C4    C     C_R   0.504138 0.968417 0.443766 0.007772
C5    C     C_R   0.408787 0.384525 0.019473 -0.176559
C6    C     C_R   0.591213 0.615475 0.980527 -0.176555
C7    C     C_R   0.414717 0.397525 0.142241 0.047828
C8    C     C_R   0.585283 0.602475 0.857759 0.047825
C9    C     C_R   0.534720 0.552946 0.158370 0.057895
C10   C     C_R   0.465280 0.447054 0.841630 0.057887
C11   C     C_R   0.531892 0.542732 0.035121 0.009381
C12   C     C_R   0.501796 0.701032 0.521649 0.553204
C13   C     C_R   0.468108 0.457268 0.964879 0.009381
C14   C     C_R   0.262114 0.486731 0.498876 0.541217
C15   C     C_R   0.737886 0.513269 0.501124 0.541215
C16   C     C_R   0.126300 0.467763 0.710633 -0.072983
C17   C     C_R   0.873700 0.532237 0.289367 -0.072985
C18   C     C_R   0.076589 0.501392 0.818059 -0.109055
C19   C     C_R   0.923411 0.498609 0.181941 -0.109056
C20   C     C_R   0.967995 0.557521 0.822538 -0.106465
C21   C     C_R   0.032005 0.442480 0.177462 -0.106463
C22   C     C_R   0.903811 0.571877 0.718891 -0.070089
C23   C     C_R   0.501407 0.814404 0.534558 -0.033335
C24   C     C_R   0.096189 0.428124 0.281109 -0.070089
C25   C     C_R   0.947223 0.529528 0.608498 0.015788
C26   C     C_R   0.052776 0.470472 0.391502 0.015788
C27   C     C_R   0.067928 0.490240 0.605437 0.015383
C28   C     C_R   0.932072 0.509761 0.394563 0.015384
C29   C     C_R   0.874192 0.526232 0.502010 -0.043666
C30   C     C_R   0.125808 0.473768 0.497990 -0.043665
C31   C     C_2   0.509029 0.954359 0.221693 0.559517
C32   C     C_2   0.490846 0.045639 0.778286 0.559517
C33   C     C_R   0.498580 0.185595 0.465441 -0.033337
C34   C     C_R   0.508135 0.015161 0.342497 0.057154
C35   C     C_R   0.491809 0.984835 0.657492 0.057189
C36   C     C_R   0.508271 0.123742 0.355474 -0.126462
C37   C     C_R   0.491683 0.876256 0.644519 -0.126446
C38   C     C_R   0.489256 0.139560 0.564126 -0.112258
Cu1   Cu    Cu3+1 0.509250 0.507730 0.615930 0.953551
Cu2   Cu    Cu3+1 0.490750 0.492270 0.384070 0.953559
H1    H     H_    0.067957 0.411814 0.093845 0.109788
H2    H     H_    0.370461 0.340057 0.183310 0.120306
H3    H     H_    0.359033 0.317765 0.967823 0.106100
H4    H     H_    0.640967 0.682235 0.032177 0.106093
H5    H     H_    0.123746 0.485619 0.897954 0.110307
H6    H     H_    0.876254 0.514382 0.102046 0.110306
H7    H     H_    0.524745 0.810958 0.353163 0.170603
H8    H     H_    0.475276 0.189043 0.646843 0.170586
H9    H     H_    0.437377 0.834652 0.100867 0.347645
H10   H     H_    0.562479 0.165313 0.899163 0.347644
H11   H     H_    0.415721 0.381938 0.786968 0.109001
H12   H     H_    0.932042 0.588186 0.906155 0.109784
H13   H     H_    0.584279 0.618062 0.213032 0.109001
H14   H     H_    0.208488 0.421395 0.710667 0.123212
H15   H     H_    0.791512 0.578605 0.289333 0.123207
H16   H     H_    0.821882 0.618657 0.726163 0.124271
H17   H     H_    0.178117 0.381343 0.273837 0.124271
H18   H     H_    0.486819 0.839914 0.721234 0.161285
H19   H     H_    0.513114 0.160085 0.278758 0.161313
H20   H     H_    0.629539 0.659943 0.816690 0.120306
N1    N     N_R   0.523180 0.519350 0.790130 -0.227649
N2    N     N_R   0.476820 0.480650 0.209870 -0.227648
O1    O     O_R   0.506570 0.354460 0.582000 -0.506989
O2    O     O_R   0.428162 0.868906 0.185106 -0.702503
O3    O     O_2   0.422575 0.018168 0.847414 -0.498533
O4    O     O_R   0.571769 0.131041 0.814943 -0.702469
O5    O     O_R   0.493430 0.645540 0.418000 -0.506981
O6    O     O_R   0.490940 0.341410 0.386200 -0.513825
O7    O     O_R   0.509060 0.658590 0.613800 -0.513824
O8    O     O_R   0.327470 0.506520 0.597900 -0.502691
O9    O     O_R   0.672530 0.493480 0.402100 -0.502692
O10   O     O_R   0.311840 0.493460 0.402100 -0.498188
O11   O     O_R   0.688160 0.506540 0.597900 -0.498189
O12   O     O_2   0.577172 0.981881 0.152492 -0.498543

loop_
_geom_bond_atom_site_label_1
_geom_bond_atom_site_label_2
_ccdc_geom_bond_type
C12   O7    A    
Cu2   O9    S    
C36   H19   S    
C1    O6    A    
C19   H6    S    
C1    C33   S    
C12   C23   S    
C28   C29   A    
C35   C37   A    
C24   C26   A    
C33   C36   A    
Cu2   N2    S    
C7    H2    S    
C3    C38   A    
C24   H17   S    
C22   C25   A    
C17   H15   S    
C5    C13   A    
C37   H18   S    
C8    N1    A    
C16   C27   A    
C5    H3    S    
H9    O2    S    
C6    H4    S    
C27   C30   A    
C14   O8    A    
C14   C30   S    
C10   H11   S    
C1    O1    A    
C38   H8    S    
C15   C29   S    
C25   C29   A    
Cu1   N1    S    
C12   O5    A    
C4    C34   A    
C9    N2    A    
C32   C35   S    
C6    C11   A    
C5    C7    A    
C31   O12   D    
C22   H16   S    
C23   C37   A    
Cu2   O5    S    
C2    C4    A    
C7    N2    A    
C9    C11   A    
C3    C35   A    
Cu1   O7    S    
C31   C34   S    
H10   O4    S    
C21   H1    S    
C15   O11   A    
C20   C22   A    
C26   C30   A    
C10   N1    A    
C9    H13   S    
C3    C4    A    
C18   H5    S    
Cu1   Cu2   S    
Cu1   O1    S    
C32   O4    S    
Cu2   O10   S    
C19   C21   A    
C17   C28   A    
C14   O10   A    
C31   O2    S    
C10   C13   A    
C6    C8    A    
C2    H7    S    
C25   C27   A    
C15   O9    A    
C26   C28   A    
C33   C38   A    
C20   H12   S    
C8    H20   S    
C11   C13   A    
C17   C19   A    
Cu1   O8    S    
C18   C20   A    
Cu1   O11   S    
C16   H14   S    
C34   C36   A    
C16   C18   A    
Cu2   O6    S    
C21   C24   A    
C2    C23   A    
C32   O3    D    
