data_mof_unit_1024.cif
_audit_creation_date              2012-12-10T16:57:10-0500
_audit_creation_method            fapswitch 2.2
_symmetry_space_group_name_H-M    P1
_symmetry_Int_Tables_number       1
_space_group_crystal_system       triclinic
_cell_length_a                    7.845169
_cell_length_b                    8.553168
_cell_length_c                    16.894405
_cell_angle_alpha                 93.245118
_cell_angle_beta                  81.011265
_cell_angle_gamma                 93.575884
_cell_volume                      1116.26678504

loop_
_atom_site_label
_atom_site_type_symbol
_atom_type_description
_atom_site_fract_x
_atom_site_fract_y
_atom_site_fract_z
_atom_type_partial_charge
C1    C     C_R   0.545650 0.794355 0.497985 0.968022
C2    C     C_R   0.367066 0.445994 0.230249 -0.155958
C3    C     C_R   0.633502 0.581273 0.850895 -0.115934
C4    C     C_R   0.366495 0.418653 0.149111 -0.115933
C5    C     C_R   0.477049 0.581840 0.902777 0.179911
C6    C     C_R   0.522945 0.418068 0.097227 0.179907
C7    C     C_R   0.319349 0.567457 0.873625 -0.116958
C8    C     C_R   0.680643 0.432463 0.126376 -0.116966
C9    C     C_R   0.318563 0.544281 0.791614 -0.175115
C10   C     C_R   0.681431 0.455673 0.208386 -0.175108
C11   C     C_2   0.480211 0.568607 0.987035 0.038290
C12   C     C_R   0.454350 0.205645 0.502015 0.968020
C13   C     C_2   0.519777 0.431295 0.012969 0.038291
C14   C     C_2   0.569679 0.957901 0.496906 -0.351031
C15   C     C_2   0.430321 0.042099 0.503094 -0.351031
C16   C     C_R   0.479206 0.507380 0.653649 0.863577
C17   C     C_R   0.520794 0.492617 0.346351 0.863574
C18   C     C_R   0.475752 0.533248 0.739572 -0.033487
C19   C     C_R   0.524244 0.466727 0.260429 -0.033487
C20   C     C_R   0.632932 0.553967 0.769756 -0.155958
H1    H     H_    0.755955 0.545662 0.731240 0.180612
H2    H     H_    0.298484 0.991560 0.508924 0.205992
H3    H     H_    0.244045 0.454317 0.268766 0.180615
H4    H     H_    0.803978 0.469508 0.230635 0.167706
H5    H     H_    0.196015 0.530454 0.769362 0.167705
H6    H     H_    0.198149 0.566565 0.914425 0.147983
H7    H     H_    0.801840 0.433343 0.085574 0.147985
H8    H     H_    0.244570 0.409106 0.126101 0.148146
H9    H     H_    0.755426 0.590812 0.873908 0.148144
H10   H     H_    0.701516 0.008440 0.491076 0.205992
I1    I     I_    0.567279 0.224275 0.938358 -0.313850
I2    I     I_    0.432714 0.775631 0.061645 -0.313856
I3    I     I_    0.046775 0.271727 0.403569 -0.259354
I4    I     I_    0.953221 0.728268 0.596434 -0.259346
N1    N     N_2   0.953500 0.457650 0.478520 0.021403
N2    N     N_2   0.046500 0.542350 0.521480 0.021403
O1    O     O_R   0.388470 0.738640 0.505270 -0.602734
O2    O     O_R   0.611530 0.261360 0.494730 -0.602734
O3    O     O_R   0.679650 0.711510 0.491500 -0.601785
O4    O     O_R   0.320350 0.288490 0.508500 -0.601785
O5    O     O_R   0.337210 0.515200 0.623500 -0.612286
O6    O     O_R   0.662790 0.484800 0.376500 -0.612285
O7    O     O_R   0.628380 0.488060 0.609730 -0.612466
O8    O     O_R   0.371620 0.511940 0.390270 -0.612467
Zn1   Zn    Zn3+2 0.305580 0.518120 0.509190 1.029318
Zn2   Zn    Zn3+2 0.694420 0.481880 0.490810 1.029318

loop_
_geom_bond_atom_site_label_1
_geom_bond_atom_site_label_2
_ccdc_geom_bond_type
C12   O4    A    
C2    C4    A    
I4    N2    S    
N1    N2    D    
C12   C15   S    
C1    O1    A    
C10   C19   A    
C10   H4    S    
C17   O8    A    
C9    H5    S    
N2    Zn1   S    
C20   H1    S    
C6    C13   S    
C11   C13   D    
C16   O7    A    
C3    H9    S    
C7    H6    S    
C14   H10   S    
O3    Zn2   S    
C16   C18   S    
C4    H8    S    
C11   I2    S    
C5    C11   S    
C18   C20   A    
C12   O2    A    
O4    Zn1   S    
O7    Zn2   S    
O2    Zn2   S    
C4    C6    A    
C1    O3    A    
O1    Zn1   S    
C7    C9    A    
C9    C18   A    
C3    C20   A    
O8    Zn1   S    
C8    C10   A    
O6    Zn2   S    
C2    H3    S    
C5    C7    A    
C8    H7    S    
O5    Zn1   S    
C14   C15   D    
C17   C19   S    
C6    C8    A    
C1    C14   S    
I3    N1    S    
C2    C19   A    
C17   O6    A    
N1    Zn2   S    
C16   O5    A    
C13   I1    S    
C15   H2    S    
C3    C5    A    
