data_mof_unit_3997.cif
_audit_creation_date              2012-12-10T18:58:11-0500
_audit_creation_method            fapswitch 2.2
_symmetry_space_group_name_H-M    P1
_symmetry_Int_Tables_number       1
_space_group_crystal_system       triclinic
_cell_length_a                    11.051924
_cell_length_b                    10.829272
_cell_length_c                    9.545201
_cell_angle_alpha                 89.94238
_cell_angle_beta                  102.657708
_cell_angle_gamma                 90.071159
_cell_volume                      1114.64492626

loop_
_atom_site_label
_atom_site_type_symbol
_atom_type_description
_atom_site_fract_x
_atom_site_fract_y
_atom_site_fract_z
_atom_type_partial_charge
C1    C     C_R   0.500364 0.262433 0.500162 0.787278
C2    C     C_R   0.508057 0.129356 0.502470 -0.098751
C3    C     C_R   0.535325 0.064836 0.385516 -0.213946
C4    C     C_R   0.536044 0.936153 0.385761 -0.217445
C5    C     C_R   0.510759 0.870880 0.503463 -0.085290
C6    C     C_R   0.499765 0.936369 0.625926 0.082154
C7    C     C_3   0.405488 0.926657 0.716283 -0.478076
C8    C     C_3   0.400808 0.067639 0.714909 -0.115757
C9    C     C_R   0.602389 0.537659 0.099388 0.258103
C10   C     C_R   0.404427 0.449930 0.050215 -0.085297
C11   C     C_R   0.404451 0.449828 0.901393 -0.092076
C12   C     C_R   0.262814 0.500159 0.441804 0.856092
C13   C     C_R   0.602527 0.537271 0.952175 0.264169
C14   C     C_3   0.664094 0.660280 0.960769 -0.504274
C15   C     C_3   0.662896 0.661427 0.119581 -0.511789
C16   C     C_R   0.501339 0.737668 0.500375 0.801744
C17   C     C_R   0.737202 0.500174 0.558201 0.867893
C18   C     C_2   0.127902 0.500496 0.408947 -0.358091
C19   C     C_2   0.067319 0.503281 0.515526 -0.171461
C20   C     C_2   0.872138 0.501226 0.591030 -0.364176
C21   C     C_2   0.932721 0.501650 0.484371 -0.153119
C22   C     C_R   0.496174 0.063307 0.624458 0.085076
Cu1   Cu    Cu3+1 0.499990 0.499980 0.640670 0.932804
Cu2   Cu    Cu3+1 0.500010 0.500020 0.359330 0.935514
H1    H     H_    0.882924 0.500324 0.372661 0.177062
H2    H     H_    0.438809 0.109573 0.821921 0.160533
H3    H     H_    0.326211 0.410987 0.085875 0.139267
H4    H     H_    0.326282 0.410622 0.826271 0.137380
H5    H     H_    0.759021 0.654270 0.940002 0.192626
H6    H     H_    0.604219 0.732418 0.898165 0.215041
H7    H     H_    0.757161 0.657595 0.190342 0.191843
H8    H     H_    0.601089 0.733480 0.147668 0.208236
H9    H     H_    0.117142 0.505740 0.627232 0.176211
H10   H     H_    0.922204 0.501974 0.702608 0.143619
H11   H     H_    0.077845 0.498148 0.297401 0.144688
H12   H     H_    0.551429 0.113150 0.291852 0.163741
H13   H     H_    0.551661 0.888563 0.291920 0.153139
H14   H     H_    0.319090 0.880000 0.658755 0.197285
H15   H     H_    0.445450 0.888499 0.824558 0.176382
N1    N     N_R   0.500780 0.500930 0.148120 -0.184265
N2    N     N_R   0.500790 0.500890 0.852210 -0.183996
O1    O     O_R   0.500000 0.319640 0.618810 -0.587555
O2    O     O_R   0.500010 0.319680 0.381230 -0.584898
O3    O     O_R   0.320680 0.500000 0.575130 -0.590243
O4    O     O_R   0.320690 0.500040 0.337550 -0.586070
O5    O     O_R   0.499990 0.680320 0.618770 -0.578397
O6    O     O_R   0.500000 0.680360 0.381190 -0.584177
O7    O     O_R   0.679310 0.499960 0.662450 -0.582756
O8    O     O_R   0.679320 0.500000 0.424870 -0.580769
C23   C     C_3   0.274377 0.121010 0.638109 -0.354120
C24   C     C_3   0.178481 0.107146 0.731397 -0.364820
C25   C     C_3   0.053991 0.162781 0.657713 -0.844511
H16   H     H_    0.064406 0.263061 0.639598 0.261485
H17   H     H_    0.017520 0.116548 0.553123 0.256747
H18   H     H_    0.986187 0.150199 0.726910 0.242099
H19   H     H_    0.164700 0.007833 0.752938 0.228411
H20   H     H_    0.212401 0.154730 0.835847 0.209901
H21   H     H_    0.285450 0.220745 0.616940 0.205672
H22   H     H_    0.240474 0.074109 0.533102 0.203925

loop_
_geom_bond_atom_site_label_1
_geom_bond_atom_site_label_2
_ccdc_geom_bond_type
C10   H3    S    
C2    C22   A    
C8    C22   S    
Cu1   Cu2   S    
C17   O7    A    
C15   H7    S    
C6    C7    S    
C24   H20   S    
C8    H2    S    
C18   H11   S    
Cu1   N2    S    
C25   H18   S    
C7    H15   S    
C20   H10   S    
C13   N2    A    
C23   C24   S    
C9    C15   S    
C15   H8    S    
C12   O3    A    
Cu1   O5    S    
C13   C14   S    
C25   H16   S    
C4    C5    A    
Cu1   O1    S    
C3    H12   S    
C14   H6    S    
Cu2   O4    S    
C11   H4    S    
C16   O6    A    
C19   C21   S    
C7    H14   S    
C25   H17   S    
C2    C3    A    
C5    C6    A    
C10   C11   A    
C23   H22   S    
C14   H5    S    
C12   C18   S    
C3    C4    A    
C23   H21   S    
C8    C23   S    
C1    O1    A    
C7    C8    S    
C17   C20   S    
C24   C25   S    
C20   C21   D    
C10   N1    A    
C1    C2    S    
C19   H9    S    
C11   N2    A    
C16   O5    A    
Cu2   O8    S    
C12   O4    A    
Cu2   O2    S    
C21   H1    S    
C14   C15   S    
C18   C19   D    
C5    C16   S    
C9    C13   A    
Cu1   O7    S    
Cu2   N1    S    
Cu2   O6    S    
C1    O2    A    
C9    N1    A    
C17   O8    A    
Cu1   O3    S    
C24   H19   S    
C4    H13   S    
C6    C22   A    
