data_mof_unit_3391.cif
_audit_creation_date              2012-12-11T17:09:25-0500
_audit_creation_method            fapswitch 2.2
_symmetry_space_group_name_H-M    P1
_symmetry_Int_Tables_number       1
_space_group_crystal_system       triclinic
_cell_length_a                    14.756796
_cell_length_b                    6.994936
_cell_length_c                    13.659321
_cell_angle_alpha                 89.51151
_cell_angle_beta                  99.853143
_cell_angle_gamma                 90.098194
_cell_volume                      1389.1060388

loop_
_atom_site_label
_atom_site_type_symbol
_atom_type_description
_atom_site_fract_x
_atom_site_fract_y
_atom_site_fract_z
_atom_type_partial_charge
O1    O     O_R   0.586930 0.505770 0.416350 -0.545302
O2    O     O_R   0.413070 0.005770 0.583650 -0.540700
O3    O     O_R   0.397900 0.173100 0.389630 -0.530618
O4    O     O_R   0.602100 0.673100 0.610370 -0.534151
C1    C     C_R   0.363632 0.345410 0.364003 0.724895
C2    C     C_R   0.636186 0.845216 0.636328 0.717789
O5    O     O_R   0.585280 0.175870 0.404330 -0.544057
O6    O     O_R   0.414720 0.675870 0.595670 -0.547175
O7    O     O_R   0.601790 0.008380 0.598460 -0.536360
O8    O     O_R   0.398210 0.508380 0.401540 -0.536526
C3    C     C_R   0.614000 0.346605 0.381958 0.691268
C4    C     C_R   0.383094 0.844569 0.614474 0.682879
O9    O     O_3   0.505200 0.340120 0.563670 -0.381537
O10   O     O_3   0.494800 0.840120 0.436330 -0.387945
V1    V     V_3+5 0.499040 0.064180 0.488190 1.356313
V2    V     V_3+5 0.500960 0.564180 0.511810 1.342144
C5    C     C_R   0.321635 0.989480 0.758893 0.075121
C6    C     C_R   0.670911 0.474315 0.226831 0.040298
C7    C     C_R   0.313793 0.855633 0.682192 -0.117712
C8    C     C_R   0.683628 0.360644 0.314373 -0.103712
C9    C     C_R   0.230207 0.754931 0.662230 -0.230116
C10   C     C_R   0.766730 0.256899 0.336387 -0.206458
C11   C     C_R   0.166867 0.754960 0.729168 -0.183395
C12   C     C_R   0.832044 0.258123 0.271572 -0.198106
C13   C     C_R   0.178981 0.879927 0.810578 -0.116615
C14   C     C_R   0.819290 0.375145 0.186226 -0.106829
C15   C     C_R   0.255264 0.000729 0.821293 0.019578
C16   C     C_R   0.738624 0.480786 0.166162 0.023530
C17   C     C_3   0.253861 0.214140 0.819670 -0.127133
C18   C     C_3   0.729770 0.688410 0.143366 -0.118114
C19   C     C_3   0.325716 0.204124 0.748896 0.145019
C20   C     C_3   0.655113 0.688022 0.210345 0.129071
C21   C     C_1   0.785397 0.877708 0.780468 -0.174773
C22   C     C_1   0.214528 0.375855 0.219495 -0.192483
C23   C     C_1   0.718175 0.860329 0.714358 -0.192357
C24   C     C_1   0.281916 0.359575 0.285620 -0.194772
O11   O     O_R   0.101720 0.231700 0.098560 -0.535926
O12   O     O_R   0.898280 0.731700 0.901440 -0.536442
O13   O     O_R   0.914700 0.558980 0.095690 -0.544172
O14   O     O_R   0.085300 0.058980 0.904310 -0.545183
C25   C     C_R   0.887945 0.388672 0.119290 0.697920
C26   C     C_R   0.112222 0.890040 0.880424 0.696445
O15   O     O_R   0.102080 0.561590 0.110390 -0.536961
O16   O     O_R   0.897920 0.061590 0.889610 -0.537763
O17   O     O_R   0.086950 0.728940 0.916330 -0.539171
O18   O     O_R   0.913050 0.228940 0.083670 -0.539797
C27   C     C_R   0.135044 0.391387 0.138428 0.724959
C28   C     C_R   0.865131 0.892117 0.861256 0.713144
O19   O     O_3   0.994770 0.394510 0.936380 -0.373171
O20   O     O_3   0.005230 0.894510 0.063620 -0.369815
V3    V     V_3+5 0.000970 0.670520 0.011800 1.394006
V4    V     V_3+5 0.999030 0.170520 0.988200 1.392597
H1    H     H_    0.212557 0.682319 0.592089 0.127770
H2    H     H_    0.781775 0.177040 0.405077 0.141079
H3    H     H_    0.105561 0.667528 0.713452 0.123428
H4    H     H_    0.894816 0.176205 0.291039 0.118377
C29   C     C_3   0.278312 0.304385 0.923864 -0.316829
C30   C     C_3   0.340842 0.179144 0.000513 -0.298548
C31   C     C_3   0.400820 0.298712 0.077698 -0.825711
H5    H     H_    0.443180 0.399018 0.041424 0.230782
H6    H     H_    0.356177 0.380322 0.118924 0.252898
H7    H     H_    0.447545 0.206550 0.130230 0.215696
H8    H     H_    0.296629 0.083440 0.037397 0.189828
H9    H     H_    0.386428 0.087728 0.964970 0.221890
H10   H     H_    0.305753 0.451015 0.917269 0.165254
H11   H     H_    0.213203 0.327403 0.952598 0.178388
C32   C     C_3   0.703345 0.740801 0.031627 -0.347011
C33   C     C_3   0.668215 0.574368 0.961728 -0.278182
C34   C     C_3   0.598039 0.640015 0.872796 -0.786672
H12   H     H_    0.528842 0.651805 0.893739 0.206467
H13   H     H_    0.617293 0.779827 0.845144 0.239800
H14   H     H_    0.595120 0.537008 0.811505 0.232029
H15   H     H_    0.727594 0.506456 0.935291 0.194961
H16   H     H_    0.634762 0.463968 0.001278 0.189763
H17   H     H_    0.654183 0.860528 0.023914 0.180670
H18   H     H_    0.765234 0.800911 0.006870 0.168208
H19   H     H_    0.185831 0.269685 0.782588 0.132524
H20   H     H_    0.793256 0.766950 0.175757 0.135979
C35   C     C_3   0.422559 0.296283 0.787340 -0.325854
C36   C     C_3   0.507953 0.165076 0.794542 -0.231280
C37   C     C_3   0.551292 0.116978 0.901376 -0.849684
H21   H     H_    0.541769 0.231344 0.953559 0.240332
H22   H     H_    0.519806 0.985325 0.926141 0.227174
H23   H     H_    0.626341 0.095390 0.905476 0.217732
H24   H     H_    0.493778 0.029708 0.754379 0.186330
H25   H     H_    0.560668 0.238130 0.758653 0.191855
H26   H     H_    0.433113 0.416010 0.736672 0.157599
H27   H     H_    0.425075 0.372607 0.857672 0.180308
C38   C     C_3   0.557144 0.738543 0.153027 -0.411410
C39   C     C_3   0.479300 0.686706 0.208489 -0.289382
C40   C     C_3   0.386515 0.759245 0.154551 -0.795215
H28   H     H_    0.383255 0.915803 0.163506 0.235445
H29   H     H_    0.375516 0.723551 0.074300 0.224723
H30   H     H_    0.330360 0.696013 0.188669 0.232001
H31   H     H_    0.477762 0.530563 0.221734 0.187679
H32   H     H_    0.491648 0.756538 0.279798 0.242187
H33   H     H_    0.554147 0.894710 0.136619 0.179553
H34   H     H_    0.542939 0.662327 0.081393 0.197612
C41   C     C_3   0.284080 0.284026 0.643616 -0.357881
C42   C     C_3   0.198689 0.186092 0.582700 -0.314895
C43   C     C_3   0.142991 0.323733 0.508494 -0.807891
H35   H     H_    0.107575 0.430474 0.548309 0.224896
H36   H     H_    0.188293 0.398214 0.463341 0.229865
H37   H     H_    0.089785 0.242991 0.457823 0.222239
H38   H     H_    0.221317 0.067979 0.538936 0.203400
H39   H     H_    0.152148 0.127619 0.631153 0.208736
H40   H     H_    0.264232 0.426028 0.659996 0.185563
H41   H     H_    0.336894 0.302292 0.595760 0.209548
C44   C     C_3   0.684561 0.811418 0.304829 -0.314122
C45   C     C_3   0.782941 0.775103 0.364193 -0.343989
C46   C     C_3   0.786621 0.783605 0.476392 -0.743053
H42   H     H_    0.755129 0.917488 0.497464 0.216535
H43   H     H_    0.749514 0.659464 0.501652 0.234758
H44   H     H_    0.859287 0.777720 0.514692 0.205830
H45   H     H_    0.811091 0.635254 0.347998 0.218252
H46   H     H_    0.831298 0.882023 0.342398 0.181184
H47   H     H_    0.679014 0.961274 0.279212 0.167745
H48   H     H_    0.634249 0.797732 0.355075 0.221104

loop_
_geom_bond_atom_site_label_1
_geom_bond_atom_site_label_2
_ccdc_geom_bond_type
O13   V3    S    
C43   H35   S    
C15   C17   S    
C46   H42   S    
O1    C3    A    
C29   H11   S    
O2    C4    A    
C2    O7    A    
C35   H26   S    
C37   H21   S    
C39   C40   S    
C32   H17   S    
C44   H47   S    
C39   H31   S    
O13   C25   A    
O5    C3    A    
C41   H41   S    
C42   H38   S    
C10   C12   A    
C7    C9    A    
C12   C14   A    
O17   V3    S    
C33   H16   S    
C1    C24   S    
O18   V4    S    
C2    C23   S    
C34   H13   S    
C45   C46   S    
C36   H25   S    
C5    C7    A    
C20   C38   S    
C33   C34   S    
O19   V3    S    
O20   V4    S    
C25   O18   A    
C19   C41   S    
O11   C27   A    
O12   C28   A    
C18   C32   S    
O16   V4    S    
O5    V1    S    
C31   H5    S    
O6    V2    S    
C35   H27   S    
C37   H22   S    
C44   H48   S    
C30   H9    S    
C3    C8    S    
C31   H6    S    
C20   C44   S    
C32   C33   S    
C5    C15   A    
C6    C16   A    
C10   H2    S    
C40   H28   S    
O11   V4    S    
O12   V3    S    
C33   H15   S    
O14   V4    S    
C38   H33   S    
C26   O17   A    
O4    V2    S    
C34   H14   S    
C36   H24   S    
C40   H29   S    
O14   C26   A    
C41   C42   S    
O6    C4    A    
O19   V4    S    
O20   V3    S    
C46   H43   S    
O1    V2    S    
C19   C35   S    
O2    V1    S    
O4    C2    A    
C17   C29   S    
C43   H37   S    
O9    V1    S    
C5    C19   S    
O10   V2    S    
C6    C20   S    
C8    C10   A    
C45   H46   S    
C37   H23   S    
O3    V1    S    
C30   H8    S    
C31   H7    S    
C14   C16   A    
C29   H10   S    
C36   C37   S    
O3    C1    A    
C13   C26   S    
C39   H32   S    
C22   C27   S    
C11   H3    S    
C13   C15   A    
C41   H40   S    
C42   H39   S    
C38   H34   S    
C9    C11   A    
C30   C31   S    
C1    O8    A    
C17   C19   S    
O8    V2    S    
C44   C45   S    
C40   H30   S    
C18   C20   S    
O15   V3    S    
C29   C30   S    
C12   H4    S    
C9    H1    S    
C4    C7    S    
C16   C18   S    
C42   C43   S    
C21   C23   T    
C22   C24   T    
C46   H44   S    
C6    C8    A    
C11   C13   A    
O7    V1    S    
C34   H12   S    
C35   C36   S    
C18   H20   S    
C17   H19   S    
C43   H36   S    
O9    V2    S    
C21   C28   S    
O10   V1    S    
C32   H18   S    
C38   C39   S    
O15   C27   A    
C45   H45   S    
O16   C28   A    
C14   C25   S    
