data_mof_unit_3874.cif
_audit_creation_date              2012-12-10T21:00:44-0500
_audit_creation_method            fapswitch 2.2
_symmetry_space_group_name_H-M    P1
_symmetry_Int_Tables_number       1
_space_group_crystal_system       triclinic
_cell_length_a                    18.106382
_cell_length_b                    18.158077
_cell_length_c                    18.346824
_cell_angle_alpha                 119.780167
_cell_angle_beta                  90.133371
_cell_angle_gamma                 119.926727
_cell_volume                      4279.17420196

loop_
_atom_site_label
_atom_site_type_symbol
_atom_type_description
_atom_site_fract_x
_atom_site_fract_y
_atom_site_fract_z
_atom_type_partial_charge
C1    C     C_R   0.109292 0.220129 0.609862 0.797008
C2    C     C_R   0.890714 0.779871 0.390139 0.796919
C3    C     C_3   0.983974 0.430877 0.414303 -0.135439
C4    C     C_3   0.016026 0.569123 0.585697 -0.135428
C5    C     C_3   0.447904 0.966295 0.923427 -0.167460
C6    C     C_3   0.552096 0.033704 0.076573 -0.167442
C7    C     C_3   0.552567 0.038296 0.959431 -0.175161
C8    C     C_3   0.447434 0.961704 0.040569 -0.175174
C9    C     C_3   0.549331 0.102454 0.052480 0.050923
C10   C     C_3   0.450669 0.897546 0.947520 0.050917
C11   C     C_3   0.445354 0.031877 0.017193 -0.139265
C12   C     C_3   0.554646 0.968123 0.982807 -0.139252
C13   C     C_3   0.451298 0.406717 0.484725 0.036654
C14   C     C_3   0.548701 0.593282 0.515274 0.036662
C15   C     C_3   0.555430 0.477804 0.518170 -0.276025
C16   C     C_3   0.444569 0.522195 0.481829 -0.276027
C17   C     C_3   0.550297 0.500322 0.448497 -0.009993
C18   C     C_3   0.449703 0.499677 0.551502 -0.009989
C19   C     C_3   0.446302 0.427968 0.413969 -0.201870
C20   C     C_3   0.553698 0.572031 0.586031 -0.201867
C21   C     C_R   0.034856 0.130556 0.826778 -0.137574
C22   C     C_R   0.965944 0.870056 0.173429 -0.137569
C23   C     C_R   0.392992 0.781233 0.888344 0.764026
C24   C     C_R   0.607008 0.218767 0.111656 0.764031
C25   C     C_R   0.041771 0.091931 0.741534 -0.130633
C26   C     C_R   0.958869 0.908595 0.258609 -0.131246
C27   C     C_R   0.000435 0.097445 0.681308 0.154617
C28   C     C_R   0.999701 0.902574 0.318734 0.154652
C29   C     C_R   0.951833 0.141610 0.707156 -0.114814
C30   C     C_R   0.047974 0.857994 0.292847 -0.114156
C31   C     C_R   0.944430 0.179358 0.792270 -0.122280
C32   C     C_R   0.055539 0.820329 0.207797 -0.122358
C33   C     C_R   0.985808 0.173651 0.851930 -0.121038
C34   C     C_R   0.014654 0.826535 0.148239 -0.121083
C35   C     C_R   0.952451 0.943160 0.533815 -0.248577
C36   C     C_R   0.047580 0.056843 0.466197 -0.248651
C37   C     C_R   0.948500 0.892216 0.445015 -0.056230
C38   C     C_R   0.051528 0.107785 0.554994 -0.056188
C39   C     C_R   0.997054 0.949653 0.410655 -0.017643
C40   C     C_R   0.002993 0.050349 0.589359 -0.017772
C41   C     C_R   0.559972 0.465640 0.714458 -0.112502
C42   C     C_R   0.440020 0.534346 0.285535 -0.112506
C43   C     C_R   0.522159 0.454582 0.777743 -0.112256
C44   C     C_R   0.477834 0.545408 0.222253 -0.112250
C45   C     C_R   0.111748 0.501688 0.890613 0.787254
C46   C     C_R   0.888246 0.498305 0.109380 0.787217
C47   C     C_R   0.570226 0.532440 0.869074 0.139204
C48   C     C_R   0.429770 0.467552 0.130921 0.139228
C49   C     C_R   0.656419 0.621312 0.895863 -0.146532
C50   C     C_R   0.343577 0.378678 0.104129 -0.146558
C51   C     C_R   0.693892 0.631990 0.832370 -0.141632
C52   C     C_R   0.306101 0.367996 0.167620 -0.141646
C53   C     C_R   0.645974 0.553967 0.741808 -0.132325
C54   C     C_R   0.354017 0.446017 0.258182 -0.132317
C55   C     C_R   0.584410 0.520861 0.995556 -0.252222
C56   C     C_R   0.415589 0.479136 0.004441 -0.252253
C57   C     C_R   0.551247 0.502329 0.057618 -0.040272
C58   C     C_R   0.448752 0.497668 0.942381 -0.040268
C59   C     C_R   0.466277 0.481753 0.063132 -0.011719
C60   C     C_R   0.533721 0.518243 0.936866 -0.011720
C61   C     C_R   0.170684 0.815171 0.985200 -0.107688
C62   C     C_R   0.829328 0.184777 0.014745 -0.107670
C63   C     C_R   0.143007 0.741521 0.004171 -0.123908
C64   C     C_R   0.856994 0.258422 0.995770 -0.123955
C65   C     C_R   0.055712 0.648718 0.957024 0.140877
C66   C     C_R   0.944265 0.351258 0.042950 0.140943
C67   C     C_R   0.392514 0.499881 0.608023 0.860676
C68   C     C_R   0.607485 0.500119 0.391977 0.860679
C69   C     C_R   0.996045 0.631308 0.891977 -0.150956
C70   C     C_R   0.003923 0.368708 0.108038 -0.150960
C71   C     C_R   0.023997 0.705213 0.873257 -0.149529
C72   C     C_R   0.975981 0.294808 0.126763 -0.149521
C73   C     C_R   0.111287 0.796940 0.919684 -0.112136
C74   C     C_R   0.888714 0.203048 0.080301 -0.112071
C75   C     C_R   0.969282 0.563070 0.025669 -0.277341
C76   C     C_R   0.030672 0.436883 0.974283 -0.277218
C77   C     C_R   0.943319 0.495507 0.051482 -0.049367
C78   C     C_R   0.056653 0.504465 0.948490 -0.049349
C79   C     C_R   0.973108 0.429943 0.023920 -0.007594
C80   C     C_R   0.026857 0.570023 0.976045 -0.007570
C81   C     C_R   0.393742 0.498400 0.887179 0.794068
C82   C     C_R   0.606258 0.501599 0.112821 0.794077
C83   C     C_R   0.108979 0.500320 0.607897 0.766479
C84   C     C_R   0.891021 0.499679 0.392103 0.766462
C85   C     C_3   0.078486 0.526684 0.483674 -0.180128
C86   C     C_3   0.921515 0.473316 0.516326 -0.180114
C87   C     C_3   0.042460 0.595046 0.517208 -0.177975
C88   C     C_3   0.957540 0.404954 0.482792 -0.177967
C89   C     C_3   0.948780 0.499269 0.448694 0.060540
C90   C     C_3   0.051220 0.500731 0.551306 0.060534
H1    H     H_    0.076464 0.673041 0.530392 0.130594
H2    H     H_    0.923536 0.326958 0.469608 0.130600
H3    H     H_    0.979900 0.202459 0.917641 0.141389
H4    H     H_    0.020685 0.797793 0.082580 0.141503
H5    H     H_    0.066837 0.126251 0.873069 0.123501
H6    H     H_    0.934359 0.874765 0.127222 0.123605
H7    H     H_    0.078820 0.057244 0.722193 0.121733
H8    H     H_    0.922097 0.943626 0.277985 0.121851
H9    H     H_    0.918769 0.145322 0.661049 0.103964
H10   H     H_    0.080667 0.853902 0.338879 0.103662
H11   H     H_    0.906289 0.212583 0.811844 0.127945
H12   H     H_    0.093435 0.786793 0.188201 0.127925
H13   H     H_    0.914050 0.899310 0.560010 0.181604
H14   H     H_    0.085993 0.100699 0.440012 0.181585
H15   H     H_    0.675848 0.561977 0.692987 0.124509
H16   H     H_    0.324143 0.438004 0.307002 0.124504
H17   H     H_    0.523071 0.405167 0.644271 0.141050
H18   H     H_    0.476919 0.594817 0.355723 0.141048
H19   H     H_    0.456273 0.384775 0.755687 0.108760
H20   H     H_    0.543720 0.615216 0.244311 0.108774
H21   H     H_    0.694786 0.681898 0.965916 0.125362
H22   H     H_    0.305211 0.318095 0.034075 0.125288
H23   H     H_    0.143826 0.548664 0.471186 0.130383
H24   H     H_    0.856174 0.451336 0.528814 0.130386
H25   H     H_    0.760460 0.700342 0.853400 0.126846
H26   H     H_    0.239533 0.299643 0.146587 0.126828
H27   H     H_    0.649073 0.533993 0.990730 0.163611
H28   H     H_    0.350925 0.466003 0.009268 0.163604
H29   H     H_    0.132861 0.853940 0.904971 0.118698
H30   H     H_    0.867149 0.146052 0.095018 0.118681
H31   H     H_    0.238167 0.886285 0.021173 0.123947
H32   H     H_    0.761862 0.113638 0.978746 0.123931
H33   H     H_    0.189538 0.756202 0.054906 0.107808
H34   H     H_    0.810471 0.243711 0.945005 0.107784
H35   H     H_    0.928424 0.560323 0.855433 0.124756
H36   H     H_    0.071526 0.439719 0.144608 0.124724
H37   H     H_    0.978063 0.691294 0.822639 0.123573
H38   H     H_    0.021908 0.308759 0.177412 0.123552
H39   H     H_    0.945661 0.612241 0.045250 0.178089
H40   H     H_    0.054281 0.387702 0.954690 0.178064
H41   H     H_    0.970136 0.374122 0.343166 0.142438
H42   H     H_    0.029863 0.625878 0.656834 0.142451
H43   H     H_    0.596312 0.070862 0.926482 0.128525
H44   H     H_    0.403690 0.929138 0.073519 0.128522
H45   H     H_    0.404596 0.937581 0.859814 0.132216
H46   H     H_    0.595404 0.062419 0.140186 0.132218
H47   H     H_    0.400526 0.058657 0.031697 0.141425
H48   H     H_    0.599474 0.941343 0.968303 0.141425
H49   H     H_    0.600897 0.458331 0.531097 0.143572
H50   H     H_    0.399102 0.541667 0.468902 0.143570
H51   H     H_    0.402941 0.367979 0.342985 0.169464
H52   H     H_    0.597058 0.632020 0.657015 0.169465
O1    O     O_3   0.251620 0.500000 0.748430 -0.486359
O2    O     O_3   0.748380 0.500000 0.251570 -0.486358
O3    O     O_R   0.134680 0.560740 0.864590 -0.633158
O4    O     O_R   0.865320 0.439260 0.135410 -0.633149
O5    O     O_R   0.306670 0.439270 0.571150 -0.616783
O6    O     O_R   0.693330 0.560730 0.428850 -0.616776
O7    O     O_R   0.135450 0.268370 0.694460 -0.636414
O8    O     O_R   0.864550 0.731630 0.305540 -0.636417
O9    O     O_R   0.429670 0.731610 0.863510 -0.640569
O10   O     O_R   0.570330 0.268390 0.136490 -0.640571
O11   O     O_R   0.134680 0.268390 0.572240 -0.634074
O12   O     O_R   0.865320 0.731610 0.427760 -0.634061
O13   O     O_R   0.306670 0.731630 0.863510 -0.638494
O14   O     O_R   0.693330 0.268370 0.136490 -0.638482
O15   O     O_R   0.135450 0.439270 0.865360 -0.644663
O16   O     O_R   0.864550 0.560730 0.134640 -0.644692
O17   O     O_R   0.429670 0.560710 0.692610 -0.642772
O18   O     O_R   0.570330 0.439290 0.307390 -0.642771
O19   O     O_R   0.308540 0.439240 0.865360 -0.649521
O20   O     O_R   0.691460 0.560760 0.134640 -0.649492
O21   O     O_R   0.133580 0.439310 0.571150 -0.646842
O22   O     O_R   0.866420 0.560690 0.428850 -0.646840
O23   O     O_R   0.430770 0.560690 0.864590 -0.634445
O24   O     O_R   0.569230 0.439310 0.135410 -0.634452
O25   O     O_R   0.133580 0.560760 0.692610 -0.642706
O26   O     O_R   0.866420 0.439240 0.307390 -0.642714
Zn1   Zn    Zn3+2 0.207400 0.586780 0.791530 0.968797
Zn2   Zn    Zn3+2 0.792600 0.413220 0.208470 0.968784
Zn3   Zn    Zn3+2 0.208510 0.413230 0.792630 0.970819
Zn4   Zn    Zn3+2 0.791490 0.586770 0.207370 0.970811
Zn5   Zn    Zn3+2 0.383150 0.586740 0.791530 0.985128
Zn6   Zn    Zn3+2 0.616850 0.413260 0.208470 0.985134
Zn7   Zn    Zn3+2 0.207400 0.413250 0.618010 0.985099
Zn8   Zn    Zn3+2 0.792600 0.586750 0.381990 0.985096
C91   C     C_2   0.397614 0.300615 0.466021 0.861441
O27   O     O_2   0.405442 0.233765 0.409359 -0.635350
O28   O     O_R   0.339402 0.278542 0.513291 -0.823386
H53   H     H_    0.307018 0.204291 0.494401 0.336386
C92   C     C_2   0.602385 0.699384 0.533979 0.861434
O29   O     O_2   0.594557 0.766234 0.590641 -0.635375
O30   O     O_R   0.660595 0.721456 0.486708 -0.823377
H54   H     H_    0.692979 0.795707 0.505597 0.336376

loop_
_geom_bond_atom_site_label_1
_geom_bond_atom_site_label_2
_ccdc_geom_bond_type
C2    O8    A    
C38   C40   A    
C63   C65   A    
O9    Zn5   S    
C87   H1    S    
C27   C29   A    
C76   C79   A    
O1    Zn7   S    
O21   Zn7   S    
C14   C92   S    
C6    C9    S    
O25   Zn1   S    
C4    C87   S    
C66   C70   A    
C92   O29   D    
C65   C69   A    
C66   C79   S    
O6    Zn8   S    
C42   C44   A    
C13   C18   S    
C72   H38   S    
C45   O3    A    
C31   H11   S    
C56   H28   S    
C35   C37   A    
C76   C78   A    
C7    H43   S    
C35   H13   S    
C16   C19   S    
C6    C12   S    
O5    Zn7   S    
C57   C59   A    
C21   C33   A    
O23   Zn5   S    
C46   O16   A    
C30   H10   S    
C18   C20   S    
C61   H31   S    
C83   O21   A    
C69   C71   A    
C6    H46   S    
C24   O10   A    
C47   C60   S    
C76   H40   S    
O8    Zn4   S    
C88   H2    S    
C91   O28   S    
C50   C52   A    
C31   C33   A    
C1    O7    A    
C45   C78   S    
C75   C80   A    
C15   H49   S    
C68   O6    A    
C49   H21   S    
O10   Zn6   S    
C70   H36   S    
O26   Zn2   S    
C84   C89   S    
C69   H35   S    
C2    O12   A    
C65   C80   S    
C55   C60   A    
C41   C43   A    
C14   C17   S    
C71   H37   S    
C16   H50   S    
C22   H6    S    
C47   C49   A    
C26   C28   A    
C52   C54   A    
C58   C60   A    
C4    C90   S    
C52   H26   S    
C7    C12   S    
C22   C34   A    
O3    Zn1   S    
O24   Zn6   S    
C75   H39   S    
C29   H9    S    
C85   C87   S    
C8    H44   S    
C14   C20   S    
C45   O15   A    
O1    Zn1   S    
C72   C74   A    
C58   C81   S    
C5    C7    S    
C5    H45   S    
C54   H16   S    
C13   C19   S    
C6    C8    S    
C21   H5    S    
C28   C39   S    
C49   C51   A    
C18   C67   S    
C64   H34   S    
C83   O25   A    
C36   C39   A    
C51   H25   S    
C3    H41   S    
C33   H3    S    
C15   C20   S    
C51   C53   A    
C64   C66   A    
O30   H54   S    
C84   O26   A    
C20   H52   S    
C9    C11   S    
O13   Zn1   S    
C13   C15   S    
C27   C40   S    
C29   C31   A    
C7    C9    S    
O2    Zn8   S    
C50   H22   S    
C3    C89   S    
C77   C79   A    
C16   C18   S    
C67   O17   A    
C1    O11   A    
C75   C77   A    
C41   C53   A    
O28   H53   S    
C10   C12   S    
C1    C38   S    
C26   H8    S    
C24   O14   A    
C55   H27   S    
C8    C10   S    
C88   C90   S    
C85   H23   S    
O4    Zn2   S    
C22   C26   A    
C14   C16   S    
C3    C85   S    
C23   O13   A    
O1    Zn5   S    
C4    C86   S    
C36   C38   A    
O14   Zn2   S    
C78   C80   A    
C62   H32   S    
O2    Zn2   S    
C74   H30   S    
C48   C59   S    
C71   C73   A    
C82   O24   A    
C25   H7    S    
C15   C17   S    
C83   C90   S    
C21   C25   A    
C17   C68   S    
O18   Zn6   S    
C41   H17   S    
C3    C88   S    
O7    Zn3   S    
C81   O19   A    
C61   C63   A    
C34   H4    S    
C86   C89   S    
C84   O22   A    
C46   C77   S    
C63   H33   S    
C85   C90   S    
C9    C24   S    
C5    C11   S    
C32   H12   S    
C10   C23   S    
C25   C27   A    
C82   O20   A    
O2    Zn4   S    
C12   H48   S    
C56   C59   A    
O12   Zn8   S    
C86   H24   S    
C61   C73   A    
C55   C57   A    
C35   C40   A    
C11   H47   S    
O1    Zn3   S    
C28   C30   A    
C37   C39   A    
C42   C54   A    
C30   C32   A    
C4    H42   S    
C2    C37   S    
O16   Zn4   S    
C36   H14   S    
C46   O4    A    
C42   H18   S    
C8    C11   S    
C13   C91   S    
C48   C50   A    
C17   C19   S    
C56   C58   A    
O22   Zn8   S    
C86   C88   S    
O11   Zn7   S    
C23   O9    A    
C73   H29   S    
O19   Zn3   S    
C53   H15   S    
C5    C10   S    
O20   Zn4   S    
C19   H51   S    
C91   O27   D    
O17   Zn5   S    
C67   O5    A    
O2    Zn6   S    
C62   C64   A    
C87   C89   S    
C81   O23   A    
C57   C82   S    
C62   C74   A    
C70   C72   A    
C43   H19   S    
C68   O18   A    
C43   C47   A    
O15   Zn3   S    
C44   C48   A    
C92   O30   S    
C32   C34   A    
C44   H20   S    
