data_mof_unit_1998.cif
_audit_creation_date              2012-10-26T19:40:42-0400
_audit_creation_method            fapswitch 2.2
_symmetry_space_group_name_H-M    P1
_symmetry_Int_Tables_number       1
_space_group_crystal_system       triclinic
_cell_length_a                    9.749903
_cell_length_b                    10.934759
_cell_length_c                    13.43979
_cell_angle_alpha                 90.989404
_cell_angle_beta                  71.313683
_cell_angle_gamma                 91.105675
_cell_volume                      1356.97819106

loop_
_atom_site_label
_atom_site_type_symbol
_atom_type_description
_atom_site_fract_x
_atom_site_fract_y
_atom_site_fract_z
_atom_type_partial_charge
C1    C     C_R   0.501607 0.734270 0.499323 0.551510
C2    C     C_R   0.375062 0.495658 0.816828 -0.005883
C3    C     C_2   0.624036 0.063319 0.470263 0.036408
C4    C     C_R   0.421715 0.495431 0.700582 0.531107
C5    C     C_2   0.506508 0.132655 0.479853 -0.135756
C6    C     C_2   0.612899 0.933416 0.444329 0.089127
C7    C     C_2   0.503510 0.866025 0.506956 -0.112455
C8    C     C_2   0.043249 0.552995 0.570719 0.144205
C9    C     C_2   0.908759 0.581882 0.544838 0.211460
C10   C     C_R   0.501021 0.265018 0.496602 0.547594
C11   C     C_R   0.578507 0.498380 0.299680 0.548007
C12   C     C_R   0.436777 0.491232 0.980362 0.035471
C13   C     C_R   0.776560 0.388128 0.025392 -0.134540
C14   C     C_R   0.623372 0.482809 0.185148 -0.005569
C15   C     C_R   0.242916 0.549570 0.872308 -0.141823
C16   C     C_R   0.204099 0.569290 0.979801 -0.141440
C17   C     C_R   0.300125 0.542822 0.033334 -0.120195
C18   C     C_3   0.050015 0.582710 0.679517 -0.214665
C19   C     C_3   0.912564 0.633272 0.759968 -0.466008
C20   C     C_3   0.762449 0.113373 0.487500 -0.228522
C21   C     C_3   0.869917 0.017139 0.495420 -0.440837
C22   C     C_R   0.468431 0.457514 0.872790 0.026949
C23   C     C_R   0.542348 0.470916 0.030914 0.031054
C24   C     C_R   0.671363 0.408181 0.976572 0.047845
C25   C     C_R   0.692234 0.363208 0.875240 -0.153571
C26   C     C_R   0.591572 0.385816 0.824662 -0.132688
C27   C     C_R   0.523826 0.511231 0.134084 -0.131323
C28   C     C_R   0.752148 0.424351 0.129602 -0.138301
Cu1   Cu    Cu3+1 0.361370 0.499980 0.499980 0.917202
Cu2   Cu    Cu3+1 0.638630 0.500020 0.500020 0.894440
H1    H     H_    0.830383 0.401635 0.167963 0.128622
H2    H     H_    0.262624 0.562146 0.116444 0.101807
H3    H     H_    0.100679 0.609779 0.021442 0.120676
H4    H     H_    0.610790 0.344091 0.748046 0.143569
H5    H     H_    0.773007 0.815177 0.366574 0.241815
H6    H     H_    0.654709 0.848180 0.302535 0.230113
H7    H     H_    0.898277 0.730705 0.744305 0.172144
H8    H     H_    0.815740 0.578352 0.759945 0.178756
H9    H     H_    0.922256 0.629033 0.839937 0.129188
H10   H     H_    0.070355 0.495130 0.712495 0.157688
H11   H     H_    0.139013 0.650114 0.672803 0.179706
H12   H     H_    0.410746 0.090242 0.468332 0.091602
H13   H     H_    0.853269 0.743701 0.501039 0.244295
H14   H     H_    0.745723 0.694941 0.622747 0.269065
H15   H     H_    0.815418 0.951042 0.557937 0.164448
H16   H     H_    0.918129 0.969189 0.419150 0.176287
H17   H     H_    0.959608 0.062649 0.516776 0.130396
H18   H     H_    0.819001 0.176429 0.422745 0.166233
H19   H     H_    0.732461 0.164284 0.563582 0.150447
H20   H     H_    0.420261 0.908093 0.572081 0.066928
H21   H     H_    0.140160 0.484058 0.428854 0.199904
H22   H     H_    0.894967 0.417062 0.486543 0.184920
H23   H     H_    0.787370 0.310617 0.834493 0.105955
H24   H     H_    0.875511 0.340667 0.984038 0.111126
H25   H     H_    0.430879 0.563178 0.178063 0.116091
H26   H     H_    0.170988 0.581062 0.832448 0.112932
N1    N     N_2   0.152660 0.501340 0.501130 -0.366656
N2    N     N_2   0.846520 0.501370 0.501160 -0.353137
N3    N     N_3   0.713457 0.885054 0.349070 -0.622756
N4    N     N_3   0.851080 0.701650 0.570541 -0.630736
O1    O     O_R   0.382960 0.678040 0.499980 -0.490097
O2    O     O_R   0.617100 0.678080 0.500020 -0.507980
O3    O     O_R   0.325800 0.499940 0.650950 -0.516791
O4    O     O_R   0.559930 0.499980 0.650990 -0.502603
O5    O     O_R   0.382900 0.321920 0.499980 -0.483752
O6    O     O_R   0.617040 0.321960 0.500020 -0.516165
O7    O     O_R   0.440070 0.500020 0.349010 -0.501192
O8    O     O_R   0.674200 0.500060 0.349050 -0.491650

loop_
_geom_bond_atom_site_label_1
_geom_bond_atom_site_label_2
_ccdc_geom_bond_type
C12   C17   A    
C2    C22   A    
C2    C4    S    
C5    H12   S    
Cu1   O3    S    
C13   C28   A    
C6    C7    D    
H21   N1    S    
C19   H8    S    
Cu2   O4    S    
C8    N1    D    
C8    C18   S    
Cu1   Cu2   S    
C4    O4    A    
C14   C27   A    
C12   C23   A    
C23   C24   A    
C3    C6    S    
C1    O2    A    
H6    N3    S    
C10   O6    A    
C25   C26   A    
C24   C25   A    
C5    C10   S    
Cu1   O1    S    
C20   H18   S    
C15   H26   S    
C2    C15   A    
C4    O3    A    
C20   H19   S    
H22   N2    S    
H13   N4    S    
H14   N4    S    
Cu1   O5    S    
C19   H9    S    
Cu2   O6    S    
C11   O7    A    
C13   H24   S    
C21   H15   S    
C23   C27   A    
Cu2   O2    S    
C3    C5    D    
C16   H3    S    
C11   C14   S    
C27   H25   S    
C18   H11   S    
C16   C17   A    
C15   C16   A    
C21   H16   S    
C12   C22   A    
C3    C20   S    
C11   O8    A    
C7    H20   S    
H5    N3    S    
C9    N2    D    
C22   C26   A    
C10   O5    A    
C17   H2    S    
C18   H10   S    
C18   C19   S    
C1    C7    S    
Cu2   N2    S    
C19   H7    S    
C14   C28   A    
C20   C21   S    
Cu1   O7    S    
C6    N3    S    
C26   H4    S    
C28   H1    S    
Cu2   O8    S    
C25   H23   S    
C13   C24   A    
Cu1   N1    S    
C8    C9    S    
C21   H17   S    
C9    N4    S    
C1    O1    A    
