data_mof_unit_1197.cif
_audit_creation_date              2012-12-10T19:13:32-0500
_audit_creation_method            fapswitch 2.2
_symmetry_space_group_name_H-M    P1
_symmetry_Int_Tables_number       1
_space_group_crystal_system       triclinic
_cell_length_a                    9.721628
_cell_length_b                    10.660121
_cell_length_c                    16.807609
_cell_angle_alpha                 89.56
_cell_angle_beta                  86.091698
_cell_angle_gamma                 90.677687
_cell_volume                      1737.60002042

loop_
_atom_site_label
_atom_site_type_symbol
_atom_type_description
_atom_site_fract_x
_atom_site_fract_y
_atom_site_fract_z
_atom_type_partial_charge
Br1   Br    Br    0.294860 0.128360 0.378385 -0.590767
Br2   Br    Br    0.119368 0.333740 0.636140 -0.491959
C1    C     C_R   0.500525 0.742011 0.502033 0.886227
C2    C     C_R   0.520939 0.448909 0.264983 -0.058743
C3    C     C_3   0.387998 0.924576 0.568496 -0.253295
C4    C     C_R   0.482216 0.500463 0.653164 0.966883
C5    C     C_3   0.388014 0.070834 0.569210 -0.245552
C6    C     C_3   0.645337 0.929974 0.522216 -0.387426
C7    C     C_3   0.466223 0.925824 0.421251 -0.411126
C8    C     C_3   0.500683 0.877973 0.504640 0.011538
C9    C     C_3   0.498376 0.120920 0.503546 -0.002778
C10   C     C_3   0.644002 0.072525 0.522039 -0.421155
C11   C     C_3   0.466579 0.069830 0.419588 0.074944
C12   C     C_R   0.347353 0.507127 0.782988 -0.218687
C13   C     C_3   0.924691 0.618282 0.464486 -0.082861
C14   C     C_3   0.087114 0.621557 0.467666 -0.363306
C15   C     C_3   0.907696 0.495096 0.583894 -0.289938
C16   C     C_R   0.499555 0.257555 0.500362 0.934476
C17   C     C_3   0.923512 0.390345 0.459448 -0.249264
C18   C     C_3   0.070005 0.489478 0.583600 0.208817
C19   C     C_3   0.085468 0.399820 0.451994 -0.181762
C20   C     C_R   0.517339 0.491269 0.347277 0.889061
C21   C     C_R   0.474395 0.497414 0.739771 -0.062939
C22   C     C_R   0.595370 0.484968 0.779338 -0.186168
C23   C     C_R   0.395014 0.369686 0.156589 -0.129827
C24   C     C_R   0.590576 0.478150 0.862003 0.003077
C25   C     C_R   0.460404 0.477946 0.905419 0.003477
C26   C     C_R   0.338453 0.498451 0.865869 -0.021716
C27   C     C_2   0.395549 0.861955 0.649809 0.937488
C28   C     C_2   0.396969 0.127352 0.652054 0.994762
C29   C     C_2   0.884551 0.641120 0.379986 0.967673
C30   C     C_2   0.200226 0.512824 0.908062 0.942258
C31   C     C_2   0.723249 0.477646 0.901135 0.896236
C32   C     C_R   0.395792 0.415347 0.233078 -0.143522
C33   C     C_R   0.646071 0.428090 0.220783 -0.204490
C34   C     C_R   0.644942 0.383393 0.143157 -0.098167
C35   C     C_R   0.518894 0.359682 0.110216 0.156764
C36   C     C_2   0.451721 0.457296 0.991391 -0.087872
C37   C     C_2   0.513831 0.360172 0.024282 -0.183627
H1    H     H_    0.694613 0.482543 0.745861 0.183940
H2    H     H_    0.549679 0.102860 0.375165 0.141897
H3    H     H_    0.724146 0.899021 0.475645 0.227519
H4    H     H_    0.723239 0.107188 0.475766 0.180279
H5    H     H_    0.884114 0.699544 0.499677 0.120901
H6    H     H_    0.140296 0.639569 0.407849 0.191888
H7    H     H_    0.116849 0.701905 0.505019 0.165503
H8    H     H_    0.870422 0.578788 0.617783 0.149620
H9    H     H_    0.106477 0.566448 0.621547 0.152145
H10   H     H_    0.891749 0.302430 0.492217 0.171743
H11   H     H_    0.743732 0.448995 0.245286 0.198739
H12   H     H_    0.741178 0.376112 0.107142 0.162766
H13   H     H_    0.882456 0.380068 0.399843 0.190004
H14   H     H_    0.122074 0.413755 0.388365 0.184318
H15   H     H_    0.128285 0.309048 0.470195 0.222028
H16   H     H_    0.858351 0.413023 0.616130 0.214350
H17   H     H_    0.575041 0.294221 0.988354 0.165202
H18   H     H_    0.297189 0.351747 0.131204 0.178508
H19   H     H_    0.254350 0.519909 0.751968 0.216725
H20   H     H_    0.395308 0.525153 0.028552 0.177728
H21   H     H_    0.296551 0.758575 0.737280 0.358976
H22   H     H_    0.305585 0.145716 0.762745 0.366387
H23   H     H_    0.285899 0.895329 0.547848 0.162483
H24   H     H_    0.778951 0.747131 0.305696 0.340717
H25   H     H_    0.016672 0.599683 0.910554 0.365358
H26   H     H_    0.828371 0.530247 0.995233 0.344001
H27   H     H_    0.285315 0.100325 0.550808 0.187916
H28   H     H_    0.678645 0.894237 0.579963 0.225257
H29   H     H_    0.676268 0.107176 0.580103 0.249285
H30   H     H_    0.543516 0.891285 0.374781 0.185297
H31   H     H_    0.364237 0.887553 0.406250 0.212599
H32   H     H_    0.297496 0.426111 0.266508 0.177845
N1    N     N_3   0.861190 0.500250 0.501720 -0.103017
N2    N     N_3   0.138550 0.503270 0.501080 -0.081576
O1    O     O_R   0.383960 0.685090 0.500020 -0.639704
O2    O     O_R   0.282544 0.791485 0.681743 -0.787762
O3    O     O_2   0.493966 0.194494 0.667978 -0.643619
O4    O     O_R   0.290182 0.102990 0.710340 -0.733252
O5    O     O_2   0.931277 0.576142 0.325159 -0.675731
O6    O     O_R   0.798280 0.740846 0.364099 -0.824887
O7    O     O_2   0.168501 0.455349 0.969970 -0.630248
O8    O     O_R   0.105091 0.592537 0.875581 -0.774055
O9    O     O_2   0.822973 0.423615 0.869849 -0.588967
O10   O     O_R   0.735054 0.541261 0.972870 -0.799125
O11   O     O_R   0.616040 0.685320 0.499960 -0.609206
O12   O     O_R   0.370240 0.499890 0.615830 -0.593079
O13   O     O_R   0.602330 0.500120 0.615770 -0.634767
O14   O     O_R   0.383960 0.314680 0.500040 -0.585157
O15   O     O_R   0.616040 0.314910 0.499980 -0.639240
O16   O     O_R   0.397670 0.499880 0.384230 -0.624073
O17   O     O_R   0.629760 0.500110 0.384170 -0.613914
O18   O     O_2   0.497860 0.874123 0.687653 -0.623951
Zn1   Zn    Zn3+2 0.345040 0.499850 0.500040 0.974386
Zn2   Zn    Zn3+2 0.654960 0.500150 0.499960 0.952290

loop_
_geom_bond_atom_site_label_1
_geom_bond_atom_site_label_2
_ccdc_geom_bond_type
C9    C16   S    
C33   C34   A    
C11   H2    S    
H24   O6    S    
C5    C9    S    
C13   N1    S    
C10   H29   S    
C24   C25   A    
C4    O12   A    
O17   Zn2   S    
C34   C35   A    
C17   C19   S    
C6    H3    S    
C13   H5    S    
C10   H4    S    
C36   C37   D    
H26   O10   S    
C25   C36   S    
C13   C14   S    
C19   N2    S    
C15   C18   S    
C28   O3    D    
O1    Zn1   S    
C1    O1    A    
C7    C11   S    
C23   C35   A    
C28   O4    S    
C17   H13   S    
H22   O4    S    
C18   N2    S    
C21   C22   A    
C31   O9    D    
C15   H16   S    
C23   C32   A    
C2    C33   A    
C5    C28   S    
O14   Zn1   S    
C17   N1    S    
C23   H18   S    
O12   Zn1   S    
C3    C27   S    
C12   H19   S    
C2    C32   A    
Br2   C18   S    
C14   N2    S    
C26   C30   S    
C7    H31   S    
C14   H7    S    
C3    C5    S    
C16   O15   A    
C12   C21   A    
C30   O8    S    
O13   Zn2   S    
C30   O7    D    
C2    C20   S    
C17   H10   S    
C24   C31   S    
C37   H17   S    
C6    C10   S    
C33   H11   S    
C20   O17   A    
O16   Zn1   S    
C29   O6    S    
C31   O10   S    
C18   H9    S    
C34   H12   S    
C6    H28   S    
N1    Zn2   S    
Br1   C11   S    
C27   O18   D    
C29   O5    D    
C7    C8    S    
O15   Zn2   S    
C15   H8    S    
N2    Zn1   S    
C7    H30   S    
C14   H6    S    
C9    C10   S    
C13   C29   S    
C27   O2    S    
H21   O2    S    
C16   O14   A    
C4    O13   A    
C3    C8    S    
C35   C37   S    
C1    C8    S    
C5    H27   S    
C19   H14   S    
C9    C11   S    
C22   C24   A    
C19   H15   S    
C4    C21   S    
C22   H1    S    
C20   O16   A    
C3    H23   S    
O11   Zn2   S    
H25   O8    S    
C36   H20   S    
C15   N1    S    
C6    C8    S    
C1    O11   A    
C12   C26   A    
C32   H32   S    
C25   C26   A    
