data_mof_unit_2599.cif
_audit_creation_date              2012-10-26T20:21:42-0400
_audit_creation_method            fapswitch 2.2
_symmetry_space_group_name_H-M    P1
_symmetry_Int_Tables_number       1
_space_group_crystal_system       triclinic
_cell_length_a                    15.802027
_cell_length_b                    15.151119
_cell_length_c                    9.604972
_cell_angle_alpha                 90.000054
_cell_angle_beta                  90.000013
_cell_angle_gamma                 90.0
_cell_volume                      2299.60694682

loop_
_atom_site_label
_atom_site_type_symbol
_atom_type_description
_atom_site_fract_x
_atom_site_fract_y
_atom_site_fract_z
_atom_type_partial_charge
C1    C     C_R   0.122450 0.385250 0.499500 0.547950
C2    C     C_R   1.000000 0.577644 0.925607 0.101031
C3    C     C_R   1.000000 0.577653 0.074304 0.105072
C4    C     C_R   0.000000 0.422356 0.925607 0.101031
C5    C     C_R   0.500000 0.922356 0.074393 0.101031
C6    C     C_R   0.500000 0.077653 0.925696 0.105072
C7    C     C_R   0.500000 0.077644 0.074393 0.101031
C8    C     C_R   0.500000 0.922347 0.925696 0.105072
C9    C     C_R   0.780928 0.280941 0.372206 -0.039809
C10   C     C_R   0.230190 0.705727 0.624345 -0.046539
C11   C     C_R   0.219072 0.719058 0.372206 -0.039809
C12   C     C_R   0.877550 0.614750 0.499500 0.547950
C13   C     C_R   0.769810 0.294273 0.624345 -0.046539
C14   C     C_R   0.230190 0.294273 0.624345 -0.046539
C15   C     C_R   0.780928 0.719058 0.372206 -0.039809
C16   C     C_R   0.769810 0.705727 0.624345 -0.046539
C17   C     C_R   0.219072 0.280941 0.372206 -0.039809
C18   C     C_R   0.269810 0.794273 0.375655 -0.046539
C19   C     C_R   0.719072 0.219058 0.627794 -0.039809
C20   C     C_R   0.730190 0.205727 0.375655 -0.046539
C21   C     C_R   0.280928 0.780942 0.627794 -0.039809
C22   C     C_R   0.719072 0.780942 0.627794 -0.039809
C23   C     C_R   0.877550 0.385250 0.499500 0.547950
C24   C     C_R   0.269810 0.205727 0.375655 -0.046539
C25   C     C_R   0.280928 0.219058 0.627794 -0.039809
C26   C     C_R   0.730190 0.794272 0.375655 -0.046539
C27   C     C_R   0.193088 0.678589 0.498005 -0.031159
C28   C     C_R   0.806912 0.321411 0.498005 -0.031159
C29   C     C_R   0.806912 0.678589 0.498005 -0.031159
C30   C     C_R   0.193088 0.321411 0.498005 -0.031159
C31   C     C_R   0.693088 0.178589 0.501995 -0.031159
C32   C     C_R   0.306912 0.821411 0.501995 -0.031159
C33   C     C_R   0.306912 0.178589 0.501995 -0.031159
C34   C     C_R   0.122450 0.614750 0.499500 0.547950
C35   C     C_R   0.693088 0.821411 0.501995 -0.031159
C36   C     C_1   1.000000 0.339247 0.148067 0.285779
C37   C     C_1   0.000000 0.660616 0.851640 0.278340
C38   C     C_1   1.000000 0.660753 0.148067 0.285778
C39   C     C_1   1.000000 0.339384 0.851640 0.278340
C40   C     C_1   0.500000 0.839384 0.148360 0.278340
C41   C     C_1   0.500000 0.160753 0.851933 0.285779
C42   C     C_1   0.500000 0.160616 0.148360 0.278340
C43   C     C_1   0.500000 0.839247 0.851932 0.285778
C44   C     C_1   0.797024 0.320775 0.237851 0.264333
C45   C     C_R   0.622450 0.885249 0.500500 0.547950
C46   C     C_1   0.224264 0.651640 0.748634 0.255170
C47   C     C_1   0.202976 0.679224 0.237851 0.264332
C48   C     C_1   0.775735 0.348360 0.748634 0.255170
C49   C     C_1   0.224265 0.348360 0.748634 0.255170
C50   C     C_1   0.797024 0.679224 0.237851 0.264332
C51   C     C_1   0.775736 0.651641 0.748634 0.255170
C52   C     C_1   0.202976 0.320775 0.237851 0.264333
C53   C     C_1   0.275736 0.848360 0.251366 0.255170
C54   C     C_1   0.702976 0.179225 0.762149 0.264332
C55   C     C_1   0.724264 0.151640 0.251366 0.255170
C56   C     C_R   0.377550 0.114750 0.500500 0.547950
C57   C     C_1   0.297024 0.820776 0.762149 0.264332
C58   C     C_1   0.702976 0.820776 0.762149 0.264332
C59   C     C_1   0.275735 0.151640 0.251366 0.255170
C60   C     C_1   0.297024 0.179225 0.762149 0.264332
C61   C     C_1   0.724264 0.848359 0.251366 0.255170
C62   C     C_R   0.377550 0.885249 0.500500 0.547950
C63   C     C_R   0.622450 0.114750 0.500500 0.547950
C64   C     C_R   1.000000 0.422347 0.074304 0.105072
Cu1   Cu    Cu3+1 0.000000 0.500000 0.640660 1.043872
Cu2   Cu    Cu3+1 0.000000 0.500000 0.359340 1.040845
Cu3   Cu    Cu3+1 0.500000 0.000000 0.640660 1.040844
Cu4   Cu    Cu3+1 0.500000 0.000000 0.359340 1.043872
N1    N     N_R   0.000000 0.500000 0.852070 -0.266635
N2    N     N_1   0.500000 0.227774 0.794002 -0.270610
N3    N     N_1   0.500000 0.227502 0.206623 -0.265872
N4    N     N_1   0.500000 0.772225 0.794001 -0.270610
N5    N     N_1   0.808417 0.352917 0.130408 -0.242829
N6    N     N_1   0.220199 0.607432 0.846496 -0.215196
N7    N     N_1   0.191583 0.647082 0.130409 -0.242829
N8    N     N_1   0.779801 0.392569 0.846496 -0.215196
N9    N     N_1   0.220199 0.392568 0.846496 -0.215196
N10   N     N_1   0.808416 0.647082 0.130409 -0.242828
N11   N     N_1   0.779801 0.607432 0.846496 -0.215196
N12   N     N_R   0.000000 0.500000 0.147930 -0.267840
N13   N     N_1   0.191583 0.352917 0.130408 -0.242829
N14   N     N_1   0.279801 0.892568 0.153503 -0.215196
N15   N     N_1   0.691583 0.147083 0.869591 -0.242829
N16   N     N_1   0.720199 0.107431 0.153504 -0.215196
N17   N     N_1   0.308417 0.852917 0.869591 -0.242829
N18   N     N_1   0.691584 0.852918 0.869591 -0.242828
N19   N     N_1   0.279801 0.107431 0.153504 -0.215196
N20   N     N_1   0.308417 0.147083 0.869592 -0.242829
N21   N     N_1   0.720199 0.892568 0.153503 -0.215196
N22   N     N_R   0.500000 0.000000 0.852070 -0.267840
N23   N     N_R   0.500000 0.000000 0.147930 -0.266634
N24   N     N_1   1.000000 0.272226 0.205998 -0.270610
N25   N     N_1   0.000000 0.727502 0.793377 -0.265872
N26   N     N_1   1.000000 0.727774 0.205999 -0.270610
N27   N     N_1   1.000000 0.272498 0.793377 -0.265872
N28   N     N_1   0.500000 0.772498 0.206622 -0.265872
O1    O     O_R   0.090170 0.409820 0.618740 -0.496942
O2    O     O_R   0.409830 0.090180 0.381260 -0.496942
O3    O     O_R   0.409830 0.090180 0.618740 -0.499409
O4    O     O_R   0.590170 0.909820 0.381260 -0.496942
O5    O     O_R   0.409830 0.909820 0.381260 -0.496942
O6    O     O_R   0.590170 0.090180 0.618740 -0.499409
O7    O     O_R   0.590170 0.090180 0.381260 -0.496942
O8    O     O_R   0.409830 0.909820 0.618740 -0.499409
O9    O     O_R   0.909830 0.590180 0.381260 -0.499409
O10   O     O_R   0.909830 0.590180 0.618740 -0.496942
O11   O     O_R   0.090170 0.409820 0.381260 -0.499409
O12   O     O_R   0.909830 0.409820 0.381260 -0.499409
O13   O     O_R   0.090170 0.590180 0.618740 -0.496942
O14   O     O_R   0.090170 0.590180 0.381260 -0.499409
O15   O     O_R   0.909830 0.409820 0.618740 -0.496942
O16   O     O_R   0.590170 0.909820 0.618740 -0.499409

loop_
_geom_bond_atom_site_label_1
_geom_bond_atom_site_label_2
_ccdc_geom_bond_type
C10   C27   A    
C11   C18   A    
C43   N4    T    
C12   C29   S    
C48   N8    T    
C11   C47   S    
C16   C51   S    
C56   O2    A    
Cu2   O11   S    
C19   C31   A    
C60   N20   T    
C45   O16   A    
C22   C35   A    
C1    C30   S    
C26   C61   S    
C14   C30   A    
C20   C55   S    
C12   O9    A    
C7    C42   S    
C14   C49   S    
C50   N10   T    
Cu4   N23   S    
Cu4   O2    S    
C15   C50   S    
C54   N15   T    
C18   C53   S    
Cu1   O15   S    
C3    C38   S    
C57   N17   T    
C6    C41   S    
C10   C46   S    
Cu4   O7    S    
C13   C28   A    
C25   C60   S    
C2    N1    A    
Cu3   O3    S    
C62   O5    A    
C36   N24   T    
C33   C56   S    
C10   C21   A    
C17   C30   A    
C64   N12   A    
C44   N5    T    
C40   N28   T    
C63   O6    A    
C3    N12   A    
C58   N18   T    
C17   C52   S    
C4    N1    A    
C61   N21   T    
Cu3   O8    S    
C15   C29   A    
C62   O8    A    
C27   C34   S    
C21   C32   A    
C17   C24   A    
C13   C19   A    
Cu3   Cu4   S    
C31   C63   S    
Cu4   O5    S    
C59   N19   T    
C63   O7    A    
C1    O1    A    
C15   C26   A    
C16   C29   A    
C6    N22   A    
Cu3   N22   S    
C53   N14   T    
Cu4   O4    S    
C21   C57   S    
C5    C8    A    
C26   C35   A    
C9    C20   A    
C4    C39   S    
C11   C27   A    
C7    N23   A    
C38   N26   T    
C37   N25   T    
C23   C28   S    
Cu2   O14   S    
Cu1   O13   S    
C5    N23   A    
C1    O11   A    
C19   C54   S    
C34   O14   A    
C8    N22   A    
Cu2   O9    S    
C35   C45   S    
Cu1   O10   S    
C46   N6    T    
Cu2   N12   S    
C9    C44   S    
C16   C22   A    
Cu2   O12   S    
C45   O4    A    
C22   C58   S    
C13   C48   S    
C6    C7    A    
C23   O15   A    
C4    C64   A    
C24   C33   A    
C2    C3    A    
C39   N27   T    
Cu1   O1    S    
C12   O10   A    
C2    C37   S    
C24   C59   S    
Cu1   N1    S    
C23   O12   A    
C8    C43   S    
C42   N3    T    
C49   N9    T    
C14   C25   A    
C52   N13   T    
C51   N11   T    
C47   N7    T    
Cu3   O16   S    
C18   C32   A    
Cu3   O6    S    
Cu1   Cu2   S    
C5    C40   S    
C34   O13   A    
C32   C62   S    
C56   O3    A    
C55   N16   T    
C36   C64   S    
C9    C28   A    
C25   C33   A    
C41   N2    T    
C20   C31   A    
