data_mof_unit_3349.cif
_audit_creation_date              2012-12-10T17:05:17-0500
_audit_creation_method            fapswitch 2.2
_symmetry_space_group_name_H-M    P1
_symmetry_Int_Tables_number       1
_space_group_crystal_system       triclinic
_cell_length_a                    10.084455
_cell_length_b                    10.648221
_cell_length_c                    15.445531
_cell_angle_alpha                 89.542271
_cell_angle_beta                  67.333822
_cell_angle_gamma                 87.82611
_cell_volume                      1529.32537858

loop_
_atom_site_label
_atom_site_type_symbol
_atom_type_description
_atom_site_fract_x
_atom_site_fract_y
_atom_site_fract_z
_atom_type_partial_charge
C1    C     C_R   0.492020 0.737435 0.509012 0.856208
C2    C     C_R   0.739458 0.472576 0.024585 0.023038
C3    C     C_R   0.597194 0.442606 0.082082 0.100591
C4    C     C_R   0.409807 0.490952 0.675970 0.877826
C5    C     C_R   0.837066 0.503660 0.064795 -0.198314
C6    C     C_R   0.795396 0.506760 0.161980 0.443170
C7    C     C_R   0.554391 0.453097 0.179248 -0.308008
C8    C     C_2   0.563338 0.064173 0.559392 0.069438
C9    C     C_2   0.508758 0.128871 0.504492 -0.273735
C10   C     C_2   0.572935 0.928806 0.549436 -0.267367
C11   C     C_2   0.463884 0.865428 0.543557 -0.174390
C12   C     C_R   0.431404 0.423666 0.906505 0.087697
C13   C     C_2   0.069389 0.402407 0.515280 -0.081322
C14   C     C_2   0.938937 0.400898 0.491336 0.020279
C15   C     C_R   0.501576 0.262342 0.502026 0.961011
C16   C     C_R   0.591183 0.497891 0.323358 0.898118
C17   C     C_R   0.356324 0.456191 0.775898 -0.107972
C18   C     C_R   0.650281 0.485609 0.220287 -0.172703
C19   C     C_R   0.202519 0.347350 0.915652 -0.183525
C20   C     C_R   0.235807 0.380099 0.821296 -0.047855
C21   C     C_R   0.447462 0.481652 0.822087 -0.240282
C22   C     C_2   0.612437 0.118978 0.629478 0.438068
C23   C     C_R   0.299204 0.369415 0.958408 0.146724
C24   C     C_2   0.311449 0.916096 0.579582 0.418695
C25   C     C_2   0.918911 0.283028 0.449405 0.430289
C26   C     C_2   0.865208 0.610642 0.545047 0.552633
C27   C     C_2   0.152122 0.322802 0.771653 0.505642
C28   C     C_2   0.750727 0.398182 0.785111 0.486477
C29   C     C_R   0.540523 0.425474 0.942940 -0.046297
C30   C     C_R   0.499618 0.409896 0.040802 0.095972
C31   C     C_R   0.363640 0.359864 0.093282 -0.193166
C32   C     C_R   0.267451 0.335404 0.051322 -0.186103
C33   C     C_R   0.689041 0.437447 0.885512 -0.057958
C34   C     C_R   0.784806 0.466662 0.927430 -0.117254
H1    H     H_    0.166350 0.293294 0.092484 0.160432
H2    H     H_    0.536787 0.542424 0.789318 0.167852
H3    H     H_    0.331593 0.332649 0.165711 0.146069
H4    H     H_    0.690247 0.066643 0.649762 0.054369
H5    H     H_    0.235336 0.878186 0.553558 0.078030
H6    H     H_    0.947826 0.193530 0.472765 0.020033
H7    H     H_    0.859638 0.700971 0.513589 0.015817
H8    H     H_    0.897624 0.466837 0.240901 0.366392
H9    H     H_    0.182872 0.330645 0.696810 0.127259
H10   H     H_    0.686397 0.350317 0.754500 0.117563
H11   H     H_    0.947162 0.523726 0.020589 0.165929
H12   H     H_    0.471090 0.081045 0.456808 0.112658
H13   H     H_    0.677696 0.883761 0.535446 0.154625
H14   H     H_    0.105136 0.316511 0.539309 0.156012
H15   H     H_    0.126242 0.570375 0.460984 0.155432
H16   H     H_    0.443840 0.440449 0.224441 0.178941
H17   H     H_    0.896748 0.481373 0.884290 0.191030
H18   H     H_    0.105900 0.297213 0.954194 0.179661
N1    N     N_2   0.148330 0.498670 0.499030 -0.169306
N2    N     N_2   0.852680 0.498640 0.499000 -0.159297
O1    O     O_R   0.386950 0.680940 0.500010 -0.624631
O2    O     O_2   0.268164 0.996481 0.641163 -0.532380
O3    O     O_2   0.880311 0.285046 0.383598 -0.572311
O4    O     O_2   0.874053 0.607425 0.621632 -0.556202
O5    O     O_3   0.897649 0.534628 0.196675 -0.755971
O6    O     O_2   0.048582 0.259616 0.814210 -0.551685
O7    O     O_2   0.876742 0.413750 0.736096 -0.536482
O8    O     O_R   0.613110 0.680900 0.499990 -0.629606
O9    O     O_R   0.322330 0.500030 0.632270 -0.625441
O10   O     O_R   0.548480 0.499990 0.632240 -0.584707
O11   O     O_R   0.386890 0.319100 0.500010 -0.639587
O12   O     O_R   0.613050 0.319060 0.499990 -0.550364
O13   O     O_R   0.451520 0.500010 0.367760 -0.619870
O14   O     O_R   0.677670 0.499970 0.367730 -0.575041
O15   O     O_2   0.560752 0.218137 0.669309 -0.601875
Zn1   Zn    Zn3+2 0.349000 0.500030 0.500020 0.961271
Zn2   Zn    Zn3+2 0.651000 0.499970 0.499980 1.019756

loop_
_geom_bond_atom_site_label_1
_geom_bond_atom_site_label_2
_ccdc_geom_bond_type
H8    O5    S    
C28   C33   S    
C3    C30   A    
C8    C22   S    
C2    C5    A    
C13   N1    D    
C29   C30   A    
C16   O14   A    
C20   C27   S    
C27   H9    S    
C12   C29   A    
C13   H14   S    
C24   H5    S    
C4    O10   A    
C22   O15   D    
C19   C23   A    
O12   Zn2   S    
C12   C23   A    
O9    Zn1   S    
O13   Zn1   S    
C19   H18   S    
C28   O7    D    
C7    C18   A    
C19   C20   A    
C33   C34   A    
C9    C15   S    
C9    H12   S    
C14   C25   S    
C21   H2    S    
C13   C14   S    
C23   C32   A    
C26   O4    D    
C4    O9    A    
C2    C34   A    
C34   H17   S    
C30   C31   A    
C25   O3    D    
O14   Zn2   S    
H15   N1    S    
N1    Zn1   S    
C26   N2    S    
C6    O5    S    
C8    C10   S    
C14   N2    D    
O8    Zn2   S    
C2    C3    A    
C3    C7    A    
C27   O6    D    
C25   H6    S    
C1    O1    A    
C5    C6    A    
C6    C18   A    
O1    Zn1   S    
C24   O2    D    
C10   C11   D    
C4    C17   S    
O11   Zn1   S    
C15   O11   A    
C32   H1    S    
C29   C33   A    
C11   C24   S    
C17   C20   A    
C7    H16   S    
C1    O8    A    
C16   C18   S    
O10   Zn2   S    
C10   H13   S    
C16   O13   A    
C15   O12   A    
C5    H11   S    
C12   C21   A    
C28   H10   S    
C17   C21   A    
N2    Zn2   S    
C31   C32   A    
C26   H7    S    
C31   H3    S    
C8    C9    D    
C22   H4    S    
C1    C11   S    
