data_mof_unit_4498.cif
_audit_creation_date              2012-12-11T16:45:55-0500
_audit_creation_method            fapswitch 2.2
_symmetry_space_group_name_H-M    P1
_symmetry_Int_Tables_number       1
_space_group_crystal_system       triclinic
_cell_length_a                    19.759083
_cell_length_b                    17.121874
_cell_length_c                    15.307857
_cell_angle_alpha                 90.133586
_cell_angle_beta                  52.8801
_cell_angle_gamma                 90.011725
_cell_volume                      4129.45824386

loop_
_atom_site_label
_atom_site_type_symbol
_atom_type_description
_atom_site_fract_x
_atom_site_fract_y
_atom_site_fract_z
_atom_type_partial_charge
C1    C     C_R   0.840378 0.673535 0.046370 -0.103077
C2    C     C_R   0.159724 0.673237 0.953382 -0.105171
C3    C     C_R   0.340598 0.173775 0.045671 -0.106746
C4    C     C_R   0.659558 0.173387 0.954048 -0.103141
C5    C     C_R   0.810105 0.362247 0.321412 0.041723
C6    C     C_R   0.192842 0.364401 0.676474 0.054776
C7    C     C_R   0.307769 0.863897 0.323787 0.054686
C8    C     C_R   0.693548 0.863393 0.678707 0.052295
C9    C     C_R   0.847475 0.311548 0.931773 0.165842
C10   C     C_R   0.151840 0.311529 0.069014 0.154607
C11   C     C_R   0.347843 0.811531 0.931065 0.150531
C12   C     C_R   0.651296 0.811433 0.070029 0.169247
C13   C     C_R   0.887744 0.683926 0.307320 -0.094682
C14   C     C_R   0.112132 0.686547 0.695580 -0.077812
C15   C     C_R   0.387947 0.186737 0.304706 -0.078707
C16   C     C_R   0.607281 0.186593 0.700958 -0.109207
C17   C     C_R   0.848273 0.712928 0.491815 0.195053
C18   C     C_R   0.145126 0.721375 0.516999 0.259274
C19   C     C_R   0.355367 0.221667 0.483240 0.265339
C20   C     C_R   0.742063 0.218630 0.534473 0.158717
C21   C     C_R   0.868538 0.739729 0.392080 0.050244
C22   C     C_R   0.131437 0.745218 0.614146 0.036227
C23   C     C_R   0.369224 0.245529 0.386107 0.034994
C24   C     C_R   0.656381 0.235783 0.609094 0.059129
C25   C     C_R   0.345168 0.321184 0.379973 -0.194094
C26   C     C_R   0.622385 0.303612 0.598225 -0.217619
C27   C     C_R   0.857809 0.819802 0.382778 -0.192905
C28   C     C_R   0.156180 0.820564 0.620326 -0.193653
C29   C     C_R   0.296931 0.366982 0.473817 -0.199621
C30   C     C_R   0.672738 0.346722 0.501780 -0.214616
C31   C     C_R   0.809565 0.866200 0.477367 -0.214981
C32   C     C_R   0.204644 0.866068 0.526609 -0.198679
C33   C     C_R   0.271079 0.336995 0.575133 0.050389
C34   C     C_R   0.755024 0.320169 0.419420 0.027695
C35   C     C_R   0.771855 0.832054 0.580742 0.050210
C36   C     C_R   0.230071 0.836145 0.425267 0.052049
C37   C     C_R   0.800519 0.758390 0.584713 0.138877
C38   C     C_R   0.194783 0.766536 0.422690 0.095439
C39   C     C_R   0.306048 0.267196 0.577566 0.099584
C40   C     C_R   0.790956 0.260466 0.440444 0.165526
C41   C     C_3   0.752181 0.689194 0.655725 -0.615314
C42   C     C_3   0.132380 0.760384 0.398336 -0.544575
C43   C     C_3   0.368442 0.260718 0.601843 -0.550465
C44   C     C_3   0.841091 0.190291 0.374119 -0.496667
C45   C     C_R   0.850865 0.328692 0.219284 -0.117584
C46   C     C_R   0.150979 0.330073 0.779262 -0.118728
C47   C     C_R   0.349450 0.829702 0.220719 -0.118054
C48   C     C_R   0.651812 0.832351 0.782507 -0.138945
C49   C     C_3   0.804517 0.639592 0.554902 -0.379086
C50   C     C_3   0.078097 0.712209 0.500510 -0.441663
C51   C     C_3   0.422280 0.211934 0.499853 -0.451320
C52   C     C_3   0.786640 0.143664 0.479318 -0.523779
C53   C     C_2   0.784017 0.184579 0.958317 -0.203140
C54   C     C_2   0.216229 0.184932 0.041054 -0.200690
C55   C     C_2   0.284779 0.684296 0.956577 -0.203832
C56   C     C_2   0.715654 0.684710 0.042413 -0.203595
C57   C     C_2   0.308749 0.753595 0.905340 -0.200251
C58   C     C_2   0.690889 0.753680 0.094988 -0.204005
C59   C     C_2   0.808435 0.253530 0.906236 -0.205129
C60   C     C_2   0.191172 0.253675 0.094117 -0.205351
C61   C     C_R   0.865156 0.388459 0.896999 -0.168449
C62   C     C_R   0.134168 0.388542 0.103799 -0.152037
C63   C     C_R   0.365640 0.888485 0.896364 -0.148989
C64   C     C_R   0.634406 0.888658 0.103629 -0.167066
C65   C     C_R   0.908901 0.606649 0.302724 0.579774
C66   C     C_R   0.093167 0.609034 0.696102 0.587918
C67   C     C_R   0.406774 0.109178 0.304011 0.588506
C68   C     C_R   0.589180 0.108967 0.699008 0.594657
C69   C     C_R   0.875934 0.299149 0.992987 -0.128003
C70   C     C_R   0.123673 0.299043 0.007420 -0.137218
C71   C     C_R   0.376063 0.799115 0.992614 -0.134589
C72   C     C_R   0.622515 0.798768 0.009237 -0.140803
C73   C     C_R   0.896902 0.697946 0.211094 -0.240375
C74   C     C_R   0.102147 0.698631 0.792120 -0.244564
C75   C     C_R   0.397802 0.198712 0.208255 -0.243581
C76   C     C_R   0.600797 0.198624 0.793834 -0.237711
C77   C     C_R   0.859120 0.422406 0.315206 -0.134628
C78   C     C_R   0.141447 0.423268 0.684769 -0.149411
C79   C     C_R   0.358904 0.923095 0.315443 -0.149365
C80   C     C_R   0.642436 0.922105 0.684401 -0.122984
C81   C     C_R   0.829882 0.580701 0.951105 -0.189425
C82   C     C_R   0.170930 0.580134 0.047139 -0.188275
C83   C     C_R   0.330555 0.081159 0.949672 -0.152560
C84   C     C_R   0.670105 0.080631 0.048928 -0.189047
C85   C     C_R   0.788977 0.644645 0.020754 0.160693
C86   C     C_R   0.211562 0.644102 0.977996 0.156505
C87   C     C_R   0.289549 0.145021 0.019395 0.140869
C88   C     C_R   0.710932 0.144437 0.979561 0.160958
H1    H     H_    0.831262 0.724462 0.093985 0.090183
H2    H     H_    0.168660 0.724216 0.906303 0.090837
H3    H     H_    0.331391 0.224787 0.093176 0.092434
H4    H     H_    0.668632 0.224435 0.907065 0.088399
H5    H     H_    0.273682 0.422238 0.467741 0.133069
H6    H     H_    0.647069 0.397858 0.489612 0.140481
H7    H     H_    0.793480 0.925025 0.470124 0.131753
H8    H     H_    0.228205 0.921096 0.532859 0.133154
H9    H     H_    0.765188 0.677370 0.715757 0.195531
H10   H     H_    0.103212 0.817442 0.403498 0.212107
H11   H     H_    0.398039 0.317565 0.596422 0.209707
H12   H     H_    0.830826 0.173774 0.312650 0.187286
H13   H     H_    0.683987 0.689177 0.690019 0.215569
H14   H     H_    0.158170 0.726615 0.322050 0.190917
H15   H     H_    0.342454 0.227332 0.678241 0.193905
H16   H     H_    0.908633 0.194269 0.342023 0.201539
H17   H     H_    0.846816 0.599694 0.559189 0.216987
H18   H     H_    0.017089 0.740918 0.565854 0.185783
H19   H     H_    0.483566 0.239954 0.434436 0.185436
H20   H     H_    0.745495 0.100228 0.477934 0.214915
H21   H     H_    0.766432 0.611481 0.532014 0.185153
H22   H     H_    0.072002 0.650892 0.482598 0.209635
H23   H     H_    0.427714 0.150615 0.518230 0.211728
H24   H     H_    0.822611 0.120905 0.508308 0.197800
H25   H     H_    0.806505 0.163986 0.003536 0.123782
H26   H     H_    0.193942 0.164298 0.995537 0.123748
H27   H     H_    0.307710 0.663420 0.001166 0.124006
H28   H     H_    0.693125 0.663971 0.997210 0.124088
H29   H     H_    0.287806 0.773555 0.858102 0.126379
H30   H     H_    0.711711 0.773612 0.142460 0.126524
H31   H     H_    0.787943 0.273185 0.858375 0.126386
H32   H     H_    0.211596 0.273389 0.142120 0.127117
H33   H     H_    0.832089 0.277004 0.198352 0.092908
H34   H     H_    0.173303 0.281881 0.800996 0.100831
H35   H     H_    0.327385 0.781281 0.198822 0.100213
H36   H     H_    0.675171 0.789013 0.808783 0.117347
H37   H     H_    0.859903 0.414690 0.837126 0.086555
H38   H     H_    0.138709 0.414998 0.164313 0.089315
H39   H     H_    0.361164 0.914802 0.835845 0.101395
H40   H     H_    0.639960 0.915421 0.163091 0.085730
H41   H     H_    0.884102 0.244024 0.019726 0.081151
H42   H     H_    0.115549 0.243881 0.980448 0.084502
H43   H     H_    0.383993 0.743966 0.019568 0.084807
H44   H     H_    0.613518 0.743376 0.983623 0.085020
H45   H     H_    0.897578 0.754481 0.179361 0.126007
H46   H     H_    0.099364 0.754383 0.827320 0.125290
H47   H     H_    0.400521 0.254432 0.173337 0.125621
H48   H     H_    0.604920 0.254115 0.824238 0.133332
H49   H     H_    0.848023 0.455998 0.382491 0.152412
H50   H     H_    0.154013 0.460912 0.620605 0.159653
H51   H     H_    0.346456 0.960760 0.379746 0.160351
H52   H     H_    0.656151 0.958533 0.618273 0.149129
H53   H     H_    0.808831 0.546664 0.912057 0.102082
H54   H     H_    0.193048 0.545610 0.084383 0.097393
H55   H     H_    0.309913 0.047301 0.910004 0.101302
H56   H     H_    0.691168 0.046685 0.087896 0.101558
H57   H     H_    0.356531 0.342757 0.305872 0.129350
H58   H     H_    0.557004 0.320388 0.660663 0.139906
H59   H     H_    0.877626 0.844527 0.305690 0.130291
H60   H     H_    0.145069 0.842116 0.694408 0.129262
N1    N     N_R   0.908660 0.628630 0.995840 -0.042238
N2    N     N_R   0.091340 0.628630 0.004160 -0.043066
N3    N     N_R   0.408660 0.128630 0.995840 -0.045478
N4    N     N_R   0.591340 0.128630 0.004160 -0.042340
N5    N     N_R   0.922310 0.368460 0.151950 -0.043568
N6    N     N_R   0.077690 0.368460 0.848050 -0.042019
N7    N     N_R   0.422310 0.868460 0.151950 -0.041807
N8    N     N_R   0.577690 0.868460 0.848050 -0.044477
N9    N     N_R   0.903470 0.421430 0.936420 -0.040374
N10   N     N_R   0.096530 0.421430 0.063580 -0.036864
N11   N     N_R   0.403470 0.921430 0.936420 -0.038371
N12   N     N_R   0.596530 0.921430 0.063580 -0.040051
N13   N     N_R   0.927500 0.575670 0.211370 -0.089177
N14   N     N_R   0.072500 0.575670 0.788630 -0.097873
N15   N     N_R   0.427500 0.075670 0.211370 -0.098343
N16   N     N_R   0.572500 0.075670 0.788630 -0.091337
N17   N     N_R   0.908660 0.365680 0.995820 -0.042864
N18   N     N_R   0.091340 0.365680 0.004180 -0.044258
N19   N     N_R   0.408660 0.865680 0.995820 -0.045890
N20   N     N_R   0.591340 0.865680 0.004180 -0.043327
N21   N     N_R   0.922310 0.631420 0.151980 -0.062959
N22   N     N_R   0.077690 0.631420 0.848020 -0.061717
N23   N     N_R   0.422310 0.131420 0.151980 -0.062216
N24   N     N_R   0.577690 0.131420 0.848020 -0.065500
N25   N     N_R   0.927500 0.426330 0.211360 -0.036563
N26   N     N_R   0.072500 0.426330 0.788640 -0.044624
N27   N     N_R   0.427500 0.926330 0.211360 -0.044644
N28   N     N_R   0.572500 0.926330 0.788640 -0.035562
N29   N     N_R   0.903470 0.570760 0.936440 -0.049814
N30   N     N_R   0.096530 0.570760 0.063560 -0.044560
N31   N     N_R   0.403470 0.070760 0.936440 -0.043022
N32   N     N_R   0.596530 0.070760 0.063560 -0.050107
Ni1   Ni    Ni4+2 0.000000 0.630300 0.000000 0.194614
Ni2   Ni    Ni4+2 0.500000 0.130300 0.000000 0.194298
Ni3   Ni    Ni4+2 0.000000 0.369700 0.000000 0.207538
Ni4   Ni    Ni4+2 0.500000 0.869700 0.000000 0.206984
Ni5   Ni    Ni4+2 0.988090 0.497570 0.863760 0.208473
Ni6   Ni    Ni4+2 0.011910 0.497570 0.136240 0.231907
Ni7   Ni    Ni4+2 0.488090 0.997570 0.863760 0.252226
Ni8   Ni    Ni4+2 0.511910 0.997570 0.136240 0.207663
O1    O     O_3   0.932015 0.571635 0.362331 -0.663188
C89   C     C_3   0.015774 0.592019 0.319947 -0.275940
H61   H     H_    0.037856 0.648890 0.275590 0.137840
H62   H     H_    0.059074 0.544250 0.266236 0.158053
H63   H     H_    0.019408 0.596570 0.389208 0.160365
O2    O     O_3   0.084173 0.574941 0.621588 -0.655258
C90   C     C_3   0.999252 0.552710 0.674310 -0.334641
H64   H     H_    0.954642 0.601815 0.722278 0.150166
H65   H     H_    0.983325 0.500451 0.725684 0.166879
H66   H     H_    0.991303 0.536285 0.610854 0.171050
O3    O     O_3   0.415777 0.075169 0.378389 -0.654883
C91   C     C_3   0.500723 0.052846 0.325621 -0.334902
H67   H     H_    0.545253 0.101886 0.277964 0.150041
H68   H     H_    0.516762 0.000547 0.273965 0.167654
H69   H     H_    0.508628 0.036420 0.389027 0.169244
O4    O     O_3   0.575044 0.070840 0.631034 -0.654616
C92   C     C_3   0.546771 0.121964 0.587106 -0.280749
H70   H     H_    0.600989 0.154020 0.515769 0.163135
H71   H     H_    0.496700 0.162825 0.649874 0.148498
H72   H     H_    0.518212 0.086383 0.556416 0.167133

loop_
_geom_bond_atom_site_label_1
_geom_bond_atom_site_label_2
_ccdc_geom_bond_type
C2    N2    A    
C83   C87   A    
C89   H61   S    
N5    N25   A    
C68   O4    S    
C7    C36   S    
N23   Ni2   S    
C79   H51   S    
C58   H30   S    
C82   H54   S    
N16   Ni7   S    
C53   C59   D    
C59   H31   S    
C54   C60   D    
C92   H70   S    
C18   C50   S    
C43   H11   S    
C33   C39   A    
C11   C71   A    
C55   H27   S    
C19   C51   S    
N28   Ni7   S    
C37   C41   S    
C9    C61   A    
C14   C74   A    
C57   H29   S    
C35   C37   A    
N9    Ni5   S    
C38   C42   S    
C67   O3    S    
C70   N18   A    
N26   Ni5   S    
C54   C87   S    
C20   C40   A    
C75   H47   S    
C6    C78   A    
N31   Ni7   S    
C52   H24   S    
C16   C76   A    
C29   C33   A    
C77   N25   A    
C70   H42   S    
N29   Ni5   S    
C66   N14   A    
C25   C29   A    
C3    H3    S    
N11   Ni7   S    
C84   N32   A    
N32   Ni8   S    
C89   H63   S    
N27   Ni8   S    
N3    N31   A    
C20   C24   A    
N11   N19   A    
C91   H67   S    
N20   Ni4   S    
C51   H23   S    
N8    Ni4   S    
C1    N1    A    
C16   C68   A    
C63   N11   A    
N15   N23   A    
C41   H13   S    
C81   C85   A    
N2    N30   A    
C90   H66   S    
C12   C58   S    
C44   C52   S    
C15   C23   S    
O2    C90   S    
C21   C27   A    
O3    C91   S    
C16   C24   S    
C22   C28   A    
C5    C34   S    
N1    Ni1   S    
C72   N20   A    
C76   N24   A    
C10   C62   A    
C50   H22   S    
C4    N4    A    
C42   H14   S    
C41   C49   S    
C66   O2    S    
C53   H25   S    
C72   H44   S    
N2    Ni1   S    
C69   N17   A    
C68   N16   A    
C44   H16   S    
C46   N6    A    
C1    H1    S    
N25   Ni6   S    
C28   H60   S    
C30   C34   A    
C3    C87   A    
N17   Ni3   S    
N5    Ni3   S    
C28   C32   A    
C78   N26   A    
C80   N28   A    
N9    N17   A    
C74   H46   S    
C62   H38   S    
N6    N26   A    
N7    Ni4   S    
N4    Ni2   S    
C13   C65   A    
C26   H58   S    
C80   H52   S    
C27   C31   A    
C17   C21   A    
C61   H37   S    
N15   Ni8   S    
C9    C59   S    
C8    C35   S    
N30   Ni6   S    
N4    N32   A    
C19   C23   A    
C8    C48   A    
C13   C73   A    
N13   Ni6   S    
C79   N27   A    
C47   H35   S    
N19   Ni4   S    
N14   N22   A    
C15   C67   A    
N6    Ni3   S    
C82   N30   A    
C71   N19   A    
N1    N29   A    
C56   H28   S    
C13   C21   S    
C5    C45   A    
C17   C37   A    
C14   C66   A    
N21   Ni1   S    
C19   C39   A    
C42   C50   S    
C61   N9    A    
C10   C70   A    
C51   H19   S    
C32   H8    S    
C65   O1    S    
C81   H53   S    
C26   C30   A    
C55   C57   D    
N22   Ni1   S    
C75   N23   A    
C9    C69   A    
C41   H9    S    
N16   N24   A    
C1    C85   A    
C45   N5    A    
N12   Ni8   S    
C17   C49   S    
C32   C36   A    
C50   H18   S    
N10   N18   A    
N3    Ni2   S    
C7    C79   A    
C15   C75   A    
C92   H72   S    
N7    N27   A    
C10   C60   S    
N8    N28   A    
C73   N21   A    
C89   H62   S    
C2    H2    S    
C6    C46   A    
C18   C22   A    
C3    N3    A    
C46   H34   S    
N18   Ni3   S    
C84   C88   A    
C77   H49   S    
C48   H36   S    
N14   Ni5   S    
C49   H17   S    
C4    C88   A    
C11   C63   A    
C64   N12   A    
C6    C33   S    
C83   N31   A    
C20   C52   S    
C45   H33   S    
C14   C22   S    
C55   C86   S    
C42   H10   S    
C18   C38   A    
C49   H21   S    
N13   N21   A    
C30   H6    S    
C27   H59   S    
C82   C86   A    
C78   H50   S    
C29   H5    S    
C44   H12   S    
C24   C26   A    
C43   C51   S    
C56   C85   S    
C47   N7    A    
C91   H69   S    
C12   C64   A    
C54   H26   S    
C31   C35   A    
C36   C38   A    
C56   C58   D    
C62   N10   A    
C2    C86   A    
C53   C88   S    
N10   Ni6   S    
N12   N20   A    
C12   C72   A    
O1    C89   S    
C48   N8    A    
C43   H15   S    
C74   N22   A    
C31   H7    S    
C60   H32   S    
C81   N29   A    
C90   H64   S    
C76   H48   S    
C67   N15   A    
N24   Ni2   S    
C40   C44   S    
C23   C25   A    
O4    C92   S    
C52   H20   S    
C71   H43   S    
C69   H41   S    
C73   H45   S    
C39   C43   S    
C65   N13   A    
C8    C80   A    
C84   H56   S    
C34   C40   A    
C83   H55   S    
C25   H57   S    
C90   H65   S    
C64   H40   S    
C11   C57   S    
C92   H71   S    
C5    C77   A    
C91   H68   S    
C63   H39   S    
C7    C47   A    
C4    H4    S    
