data_mof_unit_3415.cif
_audit_creation_date              2012-12-10T20:31:00-0500
_audit_creation_method            fapswitch 2.2
_symmetry_space_group_name_H-M    P1
_symmetry_Int_Tables_number       1
_space_group_crystal_system       triclinic
_cell_length_a                    15.076429
_cell_length_b                    10.875696
_cell_length_c                    9.928743
_cell_angle_alpha                 89.489391
_cell_angle_beta                  91.555175
_cell_angle_gamma                 87.827012
_cell_volume                      1626.13237898

loop_
_atom_site_label
_atom_site_type_symbol
_atom_type_description
_atom_site_fract_x
_atom_site_fract_y
_atom_site_fract_z
_atom_type_partial_charge
C1    C     C_R   0.504576 0.260346 0.500455 0.870006
C2    C     C_R   0.900956 0.615631 0.462112 0.060470
C3    C     C_R   0.962384 0.320638 0.638889 -0.207878
C4    C     C_R   0.054529 0.324349 0.641666 -0.230148
C5    C     C_R   0.096457 0.421475 0.578965 0.126713
C6    C     C_R   0.045641 0.521526 0.522805 0.037909
C7    C     C_R   0.087533 0.625098 0.469170 0.020570
C8    C     C_R   0.033279 0.732439 0.436528 -0.027600
C9    C     C_R   0.942300 0.722412 0.423431 -0.274579
C10   C     C_R   0.188249 0.419008 0.570218 -0.303287
C11   C     C_R   0.229972 0.511474 0.500404 -0.104745
C12   C     C_R   0.326559 0.503077 0.498876 0.877796
C13   C     C_R   0.180567 0.615434 0.448539 -0.077369
C14   C     C_R   0.529894 0.059506 0.616216 0.023325
C15   C     C_R   0.515027 0.128560 0.499095 -0.127419
C16   C     C_R   0.510008 0.064950 0.376305 -0.257195
C17   C     C_R   0.508635 0.936607 0.375473 -0.191157
C18   C     C_R   0.515479 0.869879 0.497786 -0.093387
C19   C     C_R   0.531965 0.935227 0.615020 0.013572
C20   C     C_3   0.541905 0.923364 0.765370 -0.286260
C21   C     C_3   0.540285 0.068132 0.766961 -0.030932
C22   C     C_R   0.436560 0.440124 0.069050 0.223555
C23   C     C_R   0.504655 0.739197 0.499638 0.878721
C24   C     C_R   0.567540 0.547412 0.073847 -0.166029
C25   C     C_R   0.567629 0.547662 0.930442 -0.146888
C26   C     C_R   0.436208 0.440829 0.927051 0.238945
C27   C     C_3   0.338562 0.467489 0.918239 -0.484526
C28   C     C_3   0.338782 0.464855 0.071602 -0.511805
C29   C     C_R   0.672919 0.499352 0.501627 0.888753
C30   C     C_R   0.808449 0.608186 0.449793 -0.066603
C31   C     C_R   0.768120 0.506088 0.505724 -0.108254
C32   C     C_R   0.818668 0.411783 0.570880 -0.286567
C33   C     C_R   0.910938 0.415984 0.577079 0.126926
C34   C     C_R   0.952473 0.517939 0.521211 0.046323
H1    H     H_    0.500214 0.890790 0.279880 0.174834
H2    H     H_    0.620578 0.589099 0.128978 0.162509
H3    H     H_    0.321519 0.557147 0.870140 0.226609
H4    H     H_    0.301185 0.393398 0.871485 0.216034
H5    H     H_    0.320853 0.553784 0.118865 0.213162
H6    H     H_    0.303717 0.386074 0.113986 0.202333
H7    H     H_    0.092979 0.249380 0.689576 0.138517
H8    H     H_    0.903400 0.803443 0.391553 0.175268
N1    N     N_R   0.499390 0.499140 0.142800 -0.118152
N2    N     N_R   0.499390 0.499180 0.857150 -0.112957
O1    O     O_R   0.500010 0.316790 0.614690 -0.619206
O2    O     O_R   0.500000 0.316760 0.385350 -0.625679
O3    O     O_R   0.367850 0.499990 0.614680 -0.619659
O4    O     O_R   0.367840 0.499950 0.385340 -0.618565
O5    O     O_R   0.500000 0.683240 0.614650 -0.618372
O6    O     O_R   0.499990 0.683210 0.385310 -0.624245
O7    O     O_R   0.632160 0.500050 0.614660 -0.623756
O8    O     O_R   0.632150 0.500010 0.385320 -0.623675
Zn1   Zn    Zn3+2 0.500010 0.500020 0.653130 0.954473
Zn2   Zn    Zn3+2 0.499990 0.499980 0.346870 0.942381
C35   C     C_R   0.756070 0.709665 0.380832 0.137483
C36   C     C_R   0.750450 0.712476 0.239511 -0.140789
C37   C     C_R   0.722442 0.820460 0.170805 -0.181950
C38   C     C_R   0.704385 0.927946 0.242614 -0.103868
C39   C     C_R   0.712061 0.926531 0.383307 -0.112312
C40   C     C_R   0.734970 0.816908 0.452545 -0.195988
H9    H     H_    0.771407 0.632452 0.182675 0.118935
H10   H     H_    0.717907 0.821955 0.061791 0.125714
H11   H     H_    0.685044 0.012450 0.189327 0.132624
H12   H     H_    0.699886 0.010390 0.438789 0.145428
H13   H     H_    0.743075 0.817345 0.561146 0.119641
C41   C     C_R   0.464378 0.864788 0.831775 0.227878
C42   C     C_R   0.474892 0.821215 0.964859 -0.171719
C43   C     C_R   0.402863 0.773894 0.030636 -0.096918
C44   C     C_R   0.320616 0.769275 0.963142 -0.142433
C45   C     C_R   0.308690 0.815840 0.833355 -0.174958
C46   C     C_R   0.379770 0.864512 0.768414 -0.068443
H14   H     H_    0.538476 0.824936 0.017751 0.115847
H15   H     H_    0.411031 0.739167 0.132807 0.163241
H16   H     H_    0.266036 0.724814 0.007863 0.134430
H17   H     H_    0.244431 0.813464 0.783132 0.119777
H18   H     H_    0.367913 0.905864 0.670531 0.096710
H19   H     H_    0.606088 0.876161 0.795728 0.133871
C47   C     C_R   0.458256 0.121573 0.838689 0.155607
C48   C     C_R   0.458900 0.119961 0.980649 -0.184782
C49   C     C_R   0.381048 0.143677 0.050099 -0.129837
C50   C     C_R   0.300336 0.161894 0.980110 -0.119314
C51   C     C_R   0.298143 0.164151 0.840009 -0.180993
C52   C     C_R   0.376439 0.148025 0.769226 -0.106852
H20   H     H_    0.519486 0.096333 0.037585 0.117507
H21   H     H_    0.382910 0.147299 0.158450 0.121193
H22   H     H_    0.239722 0.177821 0.034344 0.112600
H23   H     H_    0.235722 0.182276 0.786815 0.106430
H24   H     H_    0.370909 0.147684 0.660593 0.107114
C53   C     C_R   0.630148 0.122809 0.806746 0.117070
C54   C     C_R   0.710787 0.066690 0.764873 -0.173330
C55   C     C_R   0.792553 0.111925 0.805899 -0.168428
C56   C     C_R   0.795824 0.216416 0.885922 -0.134678
C57   C     C_R   0.717251 0.276734 0.923309 -0.133567
C58   C     C_R   0.635317 0.230983 0.883558 -0.119245
H25   H     H_    0.711138 0.987215 0.700664 0.120427
H26   H     H_    0.853473 0.065861 0.775049 0.130487
H27   H     H_    0.859211 0.251550 0.917535 0.128630
H28   H     H_    0.719770 0.358922 0.983755 0.130708
H29   H     H_    0.576418 0.280396 0.914454 0.129333
H30   H     H_    0.621187 0.589552 0.878696 0.148281
H31   H     H_    0.785929 0.334195 0.614111 0.167388
H32   H     H_    0.931643 0.242378 0.683231 0.147226
H33   H     H_    0.227661 0.342261 0.613436 0.136270
C59   C     C_R   0.224722 0.712996 0.373326 0.142385
C60   C     C_R   0.192090 0.749404 0.244709 -0.190885
C61   C     C_R   0.210862 0.865423 0.193434 -0.135742
C62   C     C_R   0.265587 0.942089 0.266679 -0.057962
C63   C     C_R   0.303101 0.902652 0.389891 -0.145687
C64   C     C_R   0.284462 0.787058 0.441876 -0.149381
H34   H     H_    0.145154 0.693745 0.190616 0.129327
H35   H     H_    0.179771 0.898018 0.099549 0.129152
H36   H     H_    0.274401 0.034562 0.232063 0.114605
H37   H     H_    0.340828 0.965840 0.449368 0.134319
H38   H     H_    0.308641 0.760119 0.541328 0.114901
C65   C     C_R   0.063809 0.860610 0.436774 0.167364
C66   C     C_R   0.111176 0.904116 0.548708 -0.128323
C67   C     C_R   0.140006 0.024534 0.549448 -0.161887
C68   C     C_R   0.118737 0.103902 0.440870 -0.106271
C69   C     C_R   0.065901 0.064329 0.333459 -0.129893
C70   C     C_R   0.038060 0.943336 0.331415 -0.157307
H39   H     H_    0.127261 0.843691 0.633570 0.109485
H40   H     H_    0.180418 0.054917 0.632870 0.115256
H41   H     H_    0.143653 0.195658 0.439130 0.134216
H42   H     H_    0.048464 0.126315 0.250227 0.122341
H43   H     H_    0.999125 0.912881 0.245582 0.121861
H44   H     H_    0.506035 0.113872 0.281401 0.167862

loop_
_geom_bond_atom_site_label_1
_geom_bond_atom_site_label_2
_ccdc_geom_bond_type
C35   C36   A    
C57   C58   A    
C62   H36   S    
C60   C61   A    
C19   C20   S    
C32   H31   S    
C12   O4    A    
C50   C51   A    
C54   C55   A    
C26   N2    A    
C7    C8    A    
C21   C53   S    
C69   H42   S    
C66   C67   A    
O4    Zn2   S    
C9    H8    S    
C24   H2    S    
C20   H19   S    
C5    C6    A    
C14   C21   S    
C20   C41   S    
C10   H33   S    
C60   H34   S    
C18   C19   A    
C48   H20   S    
C1    O2    A    
C23   O5    A    
C61   C62   A    
C3    C33   A    
C27   H4    S    
C65   C66   A    
C63   C64   A    
C42   H14   S    
C53   C58   A    
C68   C69   A    
N1    Zn2   S    
C8    C65   S    
C55   H26   S    
C43   C44   A    
C47   C52   A    
C31   C32   A    
C8    C9    A    
C21   C47   S    
C62   C63   A    
C45   C46   A    
C1    C15   S    
C50   H22   S    
O3    Zn1   S    
C2    C34   A    
C52   H24   S    
O1    Zn1   S    
C39   C40   A    
C22   C28   S    
C35   C40   A    
C12   O3    A    
N2    Zn1   S    
C25   N2    A    
C59   C60   A    
O8    Zn2   S    
C56   H27   S    
C17   C18   A    
C61   H35   S    
C66   H39   S    
C42   C43   A    
C37   H10   S    
C24   C25   A    
C55   C56   A    
C47   C48   A    
C16   C17   A    
C23   O6    A    
C28   H5    S    
C38   C39   A    
C18   C23   S    
O7    Zn1   S    
C63   H37   S    
C67   H40   S    
C49   H21   S    
C25   H30   S    
C41   C46   A    
C14   C15   A    
C7    C13   A    
C69   C70   A    
O2    Zn2   S    
C33   C34   A    
C39   H12   S    
C44   H16   S    
O6    Zn2   S    
C13   C59   S    
C64   H38   S    
C3    H32   S    
C40   H13   S    
C65   C70   A    
C26   C27   S    
C36   C37   A    
C3    C4    A    
C46   H18   S    
C45   H17   S    
C29   O7    A    
C38   H11   S    
C36   H9    S    
C14   C19   A    
C49   C50   A    
C54   H25   S    
C11   C12   S    
C6    C7    A    
C30   C35   S    
C2    C30   A    
C32   C33   A    
C43   H15   S    
C5    C10   A    
C29   C31   S    
C4    H7    S    
C67   C68   A    
C11   C13   A    
C1    O1    A    
C37   C38   A    
C30   C31   A    
C58   H29   S    
C27   H3    S    
O5    Zn1   S    
C15   C16   A    
C56   C57   A    
C70   H43   S    
C41   C42   A    
C68   H41   S    
C44   C45   A    
C10   C11   A    
C48   C49   A    
C6    C34   A    
C4    C5    A    
C20   C21   S    
C51   C52   A    
C22   C26   A    
C27   C28   S    
C24   N1    A    
C28   H6    S    
C59   C64   A    
C17   H1    S    
C53   C54   A    
C2    C9    A    
C16   H44   S    
C57   H28   S    
C22   N1    A    
C51   H23   S    
C29   O8    A    
