data_mof_unit_145.cif
_audit_creation_date              2013-03-05T16:01:51-0500
_audit_creation_method            fapswitch 2.2
_symmetry_space_group_name_H-M    P1
_symmetry_Int_Tables_number       1
_space_group_crystal_system       triclinic
_cell_length_a                    20.850199
_cell_length_b                    7.278899
_cell_length_c                    13.068803
_cell_angle_alpha                 90.001156
_cell_angle_beta                  103.95543
_cell_angle_gamma                 89.997287
_cell_volume                      1924.86341954

loop_
_atom_site_label
_atom_site_type_symbol
_atom_site_description
_atom_site_fract_x
_atom_site_fract_y
_atom_site_fract_z
_atom_type_partial_charge
O1    O     O_R   0.449520 0.506760 0.599710 -0.570378
O2    O     O_R   0.550480 0.006760 0.400290 -0.570528
O3    O     O_R   0.587930 0.180200 0.595790 -0.573527
O4    O     O_R   0.412070 0.680200 0.404210 -0.573553
C1    C     C_R   0.612921 0.344462 0.622658 0.948994
C2    C     C_R   0.387074 0.844470 0.377348 0.949160
O5    O     O_R   0.452350 0.177380 0.611700 -0.595007
O6    O     O_R   0.547650 0.677380 0.388300 -0.595092
O7    O     O_R   0.413930 0.001760 0.416320 -0.599570
O8    O     O_R   0.586070 0.501760 0.583680 -0.599426
C3    C     C_R   0.435273 0.345643 0.637315 0.911951
C4    C     C_R   0.564742 0.845634 0.362711 0.912513
O9    O     O_3   0.487550 0.337460 0.435880 -0.290089
O10   O     O_3   0.512450 0.837460 0.564120 -0.289936
V1    V     V_3+5 0.502310 0.064670 0.511900 1.174259
V2    V     V_3+5 0.497690 0.564670 0.488100 1.174248
C5    C     C_R   0.605591 0.918941 0.099482 -0.176216
C6    C     C_R   0.394477 0.417934 0.900703 -0.176271
H1    H     H_    0.518470 0.945437 0.156273 0.124434
H2    H     H_    0.481630 0.444207 0.843978 0.124437
H3    H     H_    0.680431 0.909158 0.965159 0.150485
H4    H     H_    0.319613 0.407847 0.034999 0.150319
H5    H     H_    0.579200 0.948451 0.019128 0.121615
H6    H     H_    0.420888 0.446914 0.981119 0.121686
C7    C     C_R   0.601823 0.856900 0.279807 -0.091010
C8    C     C_R   0.398196 0.356890 0.720236 -0.090858
C9    C     C_R   0.916257 0.821533 0.312131 -0.108990
C10   C     C_R   0.083769 0.322410 0.687805 -0.108954
C11   C     C_R   0.882914 0.842608 0.390424 -0.248001
C12   C     C_R   0.117131 0.344087 0.609579 -0.248156
C13   C     C_R   0.816093 0.884298 0.365574 0.330986
C14   C     C_R   0.183959 0.385662 0.634565 0.331002
C15   C     C_R   0.779350 0.872776 0.258440 -0.109461
C16   C     C_R   0.220684 0.373298 0.741662 -0.109375
C17   C     C_R   0.814941 0.870500 0.175939 0.007437
C18   C     C_R   0.185086 0.370509 0.824141 0.007414
C19   C     C_R   0.708622 0.866478 0.231285 0.109167
C20   C     C_R   0.291405 0.366694 0.768792 0.109344
C21   C     C_R   0.674374 0.894401 0.125548 0.121677
C22   C     C_R   0.325673 0.393838 0.874587 0.121570
C23   C     C_R   0.708460 0.896523 0.046369 -0.215297
C24   C     C_R   0.291580 0.395672 0.953767 -0.215239
C25   C     C_R   0.777295 0.878462 0.068660 0.222377
C26   C     C_R   0.222729 0.377924 0.931434 0.222527
C27   C     C_R   0.670217 0.827793 0.305080 -0.147496
C28   C     C_R   0.329772 0.328402 0.694886 -0.147333
C29   C     C_R   0.570345 0.911288 0.177320 -0.182322
C30   C     C_R   0.429724 0.410482 0.822850 -0.182316
C31   C     C_R   0.886132 0.856210 0.206051 -0.185368
C32   C     C_R   0.113891 0.356353 0.793974 -0.185529
H7    H     H_    0.692435 0.779304 0.383516 0.125761
H8    H     H_    0.307507 0.280644 0.616318 0.125618
H9    H     H_    0.967186 0.786413 0.337914 0.224703
H10   H     H_    0.032827 0.287523 0.661904 0.224643
H11   H     H_    0.910762 0.836872 0.471870 0.199958
H12   H     H_    0.089294 0.338979 0.528113 0.199897
H13   H     H_    0.127008 0.991809 0.501640 0.141221
H14   H     H_    0.873020 0.489905 0.498126 0.140728
C33   C     C_R   0.223313 0.858583 0.023788 -0.186487
C34   C     C_R   0.776649 0.359500 0.976169 -0.186416
C35   C     C_R   0.273469 0.848750 0.971490 -0.118329
C36   C     C_R   0.726472 0.349908 0.028440 -0.118161
C37   C     C_R   0.337253 0.811315 0.027149 -0.134691
C38   C     C_R   0.662707 0.312150 0.972796 -0.134851
C39   C     C_R   0.352544 0.788194 0.137009 0.228223
C40   C     C_R   0.647466 0.288507 0.862976 0.227913
C41   C     C_R   0.303643 0.826503 0.195117 0.084474
C42   C     C_R   0.696359 0.326752 0.804865 0.084551
C43   C     C_R   0.236672 0.847844 0.135192 0.069714
C44   C     C_R   0.763318 0.348270 0.864783 0.069728
C45   C     C_R   0.318330 0.851321 0.307851 -0.254664
C46   C     C_R   0.681671 0.351251 0.692119 -0.254574
C47   C     C_R   0.266241 0.894693 0.356530 0.091875
C48   C     C_R   0.733764 0.394200 0.643384 0.092040
C49   C     C_R   0.198954 0.891532 0.297495 -0.019269
C50   C     C_R   0.801050 0.391060 0.702427 -0.019258
C51   C     C_R   0.183861 0.862773 0.185728 -0.265312
C52   C     C_R   0.816138 0.362802 0.814244 -0.265538
C53   C     C_R   0.280377 0.939428 0.465607 -0.072398
C54   C     C_R   0.719630 0.438479 0.534246 -0.072391
C55   C     C_R   0.230587 0.979657 0.515580 -0.086955
C56   C     C_R   0.769429 0.478134 0.484191 -0.086493
C57   C     C_R   0.165535 0.969692 0.460265 -0.110770
C58   C     C_R   0.834483 0.468121 0.539517 -0.110290
C59   C     C_R   0.149286 0.923135 0.353557 0.386288
C60   C     C_R   0.850717 0.422203 0.646316 0.386502
H15   H     H_    0.173988 0.880335 0.975287 0.113384
H16   H     H_    0.825965 0.381441 0.024659 0.113329
H17   H     H_    0.262281 0.861950 0.886480 0.138580
H18   H     H_    0.737632 0.363491 0.113430 0.138281
H19   H     H_    0.374594 0.792870 0.983005 0.131454
H20   H     H_    0.625356 0.293784 0.016926 0.131312
H21   H     H_    0.329952 0.941713 0.515202 0.127859
H22   H     H_    0.670047 0.440832 0.484677 0.127531
H23   H     H_    0.242372 0.009670 0.599136 0.118298
H24   H     H_    0.757642 0.507859 0.400598 0.117981
O11   O     O_R   0.913760 0.203480 0.916370 -0.570897
O12   O     O_R   0.086240 0.703480 0.083630 -0.570852
O13   O     O_R   0.047590 0.535230 0.888250 -0.562793
O14   O     O_R   0.952410 0.035230 0.111750 -0.562859
C61   C     C_R   0.068754 0.368260 0.867554 1.038852
C62   C     C_R   0.931253 0.868248 0.132455 1.038624
O15   O     O_R   0.912020 0.532880 0.904260 -0.594661
O16   O     O_R   0.087980 0.032880 0.095740 -0.595026
O17   O     O_R   0.949590 0.708460 0.099750 -0.583029
O18   O     O_R   0.050410 0.208460 0.900250 -0.582768
C63   C     C_R   0.885864 0.365779 0.881954 0.996101
C64   C     C_R   0.114136 0.865774 0.118035 0.995913
O19   O     O_3   0.012370 0.375360 0.064120 -0.273765
O20   O     O_3   0.987630 0.875360 0.935880 -0.273522
V3    V     V_3+5 0.997700 0.648160 0.988110 1.259965
V4    V     V_3+5 0.002300 0.148160 0.011890 1.259799
C65   C     C_3   0.419258 0.708378 0.185115 -1.006103
H25   H     H_    0.413771 0.578572 0.226562 0.274504
H26   H     H_    0.447100 0.673172 0.125285 0.230665
H27   H     H_    0.448780 0.810542 0.237921 0.219080
C66   C     C_3   0.580875 0.207894 0.814934 -1.005913
H28   H     H_    0.586565 0.078096 0.773613 0.274433
H29   H     H_    0.553079 0.172494 0.874788 0.230555
H30   H     H_    0.551203 0.309621 0.762005 0.219218
N1    N     N_R   0.081584 0.895515 0.306381 0.182345
O21   O     O_R   0.039943 0.027288 0.309442 -0.443033
O22   O     O_R   0.061005 0.728719 0.282162 -0.438246
N2    N     N_R   0.918421 0.395094 0.693628 0.182046
O23   O     O_R   0.959918 0.527386 0.690890 -0.442744
O24   O     O_R   0.939178 0.228470 0.717923 -0.438336
N3    N     N_R   0.788861 0.958488 0.448031 0.222478
O25   O     O_R   0.812444 0.909987 0.545774 -0.398788
O26   O     O_R   0.747835 0.095608 0.427941 -0.434476
N4    N     N_R   0.211222 0.460735 0.552368 0.222485
O27   O     O_R   0.187624 0.413288 0.454460 -0.398657
O28   O     O_R   0.252326 0.597622 0.572958 -0.434588
C67   C     C_3   0.806811 0.865243 0.974483 -0.929980
H31   H     H_    0.768791 0.866951 0.898502 0.250097
H32   H     H_    0.839340 0.983983 0.972889 0.251671
H33   H     H_    0.833765 0.734089 0.976919 0.246656
C68   C     C_3   0.193191 0.364438 0.025577 -0.930124
H34   H     H_    0.231203 0.365869 0.101569 0.250042
H35   H     H_    0.160675 0.483183 0.027301 0.251613
H36   H     H_    0.166218 0.233300 0.022967 0.246717

loop_
_geom_bond_atom_site_label_1
_geom_bond_atom_site_label_2
_geom_bond_distance
_ccdc_geom_bond_type
C40   C42   1.437688 A    
C37   C39   1.403754 A    
C26   C68   1.506038 S    
C50   C60   1.424008 A    
C9    C11   1.377276 A    
C23   C25   1.400123 A    
C43   C51   1.418178 A    
O1    C3    1.332510 A    
C13   N3    1.438866 S    
O2    C4    1.332478 A    
C2    O7    1.321444 A    
C14   N4    1.438841 S    
C34   H16   1.081714 S    
O3    V1    2.037678 S    
C21   C23   1.389541 A    
O18   V4    2.008363 S    
O5    C3    1.340274 A    
C68   H35   1.102055 S    
C5    H5    1.083054 S    
C48   C50   1.428985 A    
C6    H6    1.083089 S    
O15   V3    2.037694 S    
C20   C22   1.408782 A    
C58   C60   1.395170 A    
C53   H21   1.079651 S    
C1    C46   1.501220 S    
C66   H29   1.110340 S    
C55   H23   1.082169 S    
H1    C29   1.078793 S    
C42   C46   1.441879 A    
C44   C52   1.418159 A    
C27   H7    1.077447 S    
C28   H8    1.077384 S    
C45   C47   1.420262 A    
O12   C64   1.345327 A    
C62   O17   1.326789 A    
C34   C36   1.382322 A    
C5    C21   1.403215 A    
C35   C37   1.380370 A    
C6    C22   1.403247 A    
O20   V3    1.782086 S    
C36   C38   1.380445 A    
C10   C32   1.400121 A    
C49   C59   1.424123 A    
C39   C41   1.437861 A    
C40   C66   1.498606 S    
C17   C31   1.444703 A    
C67   H33   1.104321 S    
C13   C15   1.427197 A    
C59   N1    1.411859 S    
C17   C25   1.433277 A    
C7    C29   1.399075 A    
C16   C18   1.448813 A    
C8    C30   1.399100 A    
C65   H27   1.096942 S    
O5    V1    2.028410 S    
O17   V3    2.008332 S    
O6    V2    2.028473 S    
C48   C54   1.422092 A    
C47   C49   1.428971 A    
C24   C26   1.400208 A    
O14   C62   1.342663 A    
C55   C57   1.376456 A    
C35   H17   1.083018 S    
C2    C45   1.501299 S    
C68   H36   1.104260 S    
C33   C35   1.382231 A    
C56   H24   1.082206 S    
C46   C48   1.420143 A    
C66   H30   1.096846 S    
C31   C62   1.501436 S    
O16   V4    2.037639 S    
O11   V4    2.004217 S    
C10   H10   1.064810 S    
C11   H11   1.083392 S    
C3    C8    1.477422 S    
C12   H12   1.083385 S    
C15   C19   1.431912 A    
C52   C63   1.508803 S    
C41   C43   1.435201 A    
C38   C40   1.403734 A    
O4    V2    2.037626 S    
N4    O28   1.299427 A    
N3    O26   1.299388 A    
H14   C58   1.083070 S    
C34   C44   1.416969 A    
O6    C4    1.340256 A    
O13   V3    2.028684 S    
H13   C57   1.083079 S    
C47   C53   1.422081 A    
O1    V2    2.005144 S    
O2    V1    2.005113 S    
C49   C51   1.433414 A    
N1    O21   1.300795 A    
H2    C30   1.078737 S    
C33   C43   1.416976 A    
H3    C23   1.084996 S    
C54   C56   1.384550 A    
C57   C59   1.395160 A    
C25   C67   1.506040 S    
O14   V4    2.028745 S    
C56   C58   1.376528 A    
C60   N2    1.411713 S    
C67   H31   1.111269 S    
O19   V4    1.782079 S    
O4    C2    1.317682 A    
C38   H20   1.083350 S    
C19   C27   1.422358 A    
N3    O25   1.301990 A    
C7    C27   1.400114 A    
O16   C64   1.336083 A    
C18   C32   1.444752 A    
C53   C55   1.384548 A    
C65   H25   1.108664 S    
C61   O18   1.326920 A    
O12   V3    2.004240 S    
O13   C61   1.342560 A    
C16   C20   1.431845 A    
C39   C65   1.498597 S    
C51   C64   1.508714 S    
C5    C29   1.392324 A    
C50   C52   1.433523 A    
O3    C1    1.317640 A    
C6    C30   1.392435 A    
C9    H9    1.064822 S    
C68   H34   1.111261 S    
C4    C7    1.477297 S    
N2    O24   1.301073 A    
C10   C12   1.377292 A    
N4    O27   1.301900 A    
O7    V1    2.013827 S    
C1    O8    1.321457 A    
C19   C21   1.408834 A    
O8    V2    2.013798 S    
C66   H28   1.108686 S    
C20   C28   1.422377 A    
C12   C14   1.385750 A    
H4    C24   1.084992 S    
C36   H18   1.083021 S    
C22   C24   1.389625 A    
C15   C17   1.448920 A    
C41   C45   1.442009 A    
C33   H15   1.081710 S    
N1    O22   1.301098 A    
C18   C26   1.433269 A    
C8    C28   1.400046 A    
O11   C63   1.345357 A    
C32   C61   1.501461 S    
C11   C13   1.385771 A    
O9    V2    1.782139 S    
C37   H19   1.083342 S    
C67   H32   1.101959 S    
C42   C44   1.435108 A    
O10   V1    1.782146 S    
O15   C63   1.336109 A    
C54   H22   1.079683 S    
C9    C31   1.400060 A    
C14   C16   1.427048 A    
N2    O23   1.300836 A    
C65   H26   1.110386 S    
