data_mof_unit_1001.cif
_audit_creation_date              2012-12-11T17:37:46-0500
_audit_creation_method            fapswitch 2.2
_symmetry_space_group_name_H-M    P1
_symmetry_Int_Tables_number       1
_space_group_crystal_system       triclinic
_cell_length_a                    13.095358
_cell_length_b                    13.123862
_cell_length_c                    15.528793
_cell_angle_alpha                 116.803207
_cell_angle_beta                  63.357923
_cell_angle_gamma                 97.66196
_cell_volume                      2121.2044254

loop_
_atom_site_label
_atom_site_type_symbol
_atom_type_description
_atom_site_fract_x
_atom_site_fract_y
_atom_site_fract_z
_atom_type_partial_charge
Br1   Br    Br    0.498598 0.756011 0.083154 -0.568766
C1    C     C_R   0.036286 0.831409 0.016711 -0.175524
C2    C     C_R   0.320219 0.526280 0.780579 -0.156909
C3    C     C_R   0.244581 0.477151 0.103762 -0.182176
C4    C     C_R   0.696048 0.415808 0.213922 -0.129093
C5    C     C_R   0.982621 0.302740 0.700592 -0.165823
C6    C     C_R   0.338583 0.534427 0.069320 0.204395
C7    C     C_R   0.931374 0.204127 0.697185 0.071301
C8    C     C_R   0.326378 0.449767 0.680729 0.052984
C9    C     C_R   0.094756 0.149407 0.957398 0.025777
C10   C     C_R   0.268520 0.991214 0.146370 0.714722
C11   C     C_R   0.203090 0.981041 0.242552 -0.272049
C12   C     C_R   0.694538 0.457821 0.313847 0.086961
C13   C     C_R   0.095267 0.043613 0.314963 0.004768
C14   C     C_R   0.059679 0.123577 0.295334 -0.171310
C15   C     C_R   0.126527 0.136822 0.202391 -0.186181
C16   C     C_R   0.739018 0.581346 0.953446 -0.097648
C17   C     C_R   0.230679 0.071874 0.128375 -0.329290
C18   C     C_R   0.004544 0.114359 0.506584 -0.245116
C19   C     C_R   0.919785 0.119423 0.603865 0.052679
C20   C     C_R   0.837126 0.039151 0.606942 0.021783
C21   C     C_R   0.850865 0.946565 0.510350 -0.255472
C22   C     C_R   0.941223 0.938174 0.413340 0.065351
C23   C     C_R   0.637821 0.563144 0.027845 0.064104
C24   C     C_R   0.014996 0.027368 0.411185 0.076193
C25   C     C_R   0.715720 0.958465 0.736210 -0.196630
C26   C     C_R   0.626023 0.971056 0.834538 -0.097812
C27   C     C_R   0.557117 0.074373 0.905133 -0.086345
C28   C     C_R   0.953060 0.722745 0.315071 -0.127537
C29   C     C_R   0.576816 0.164877 0.877035 -0.137456
C30   C     C_R   0.666485 0.152719 0.778826 -0.133761
C31   C     C_R   0.737744 0.049811 0.708185 0.125499
C32   C     C_R   0.941339 0.416530 0.390759 -0.284306
C33   C     C_R   0.833194 0.374378 0.407940 0.642544
C34   C     C_R   0.964377 0.831172 0.318996 0.057361
C35   C     C_R   0.734694 0.450950 0.488738 -0.067423
C36   C     C_R   0.746509 0.559355 0.561898 -0.232509
C37   C     C_R   0.854979 0.598223 0.545297 -0.146047
C38   C     C_R   0.951753 0.528796 0.456729 -0.192350
C39   C     C_R   0.530896 0.424069 0.568271 -0.288582
C40   C     C_R   0.663165 0.484216 0.051839 -0.158809
C41   C     C_R   0.420749 0.436703 0.580698 0.076399
C42   C     C_R   0.402533 0.455986 0.505701 0.018563
C43   C     C_R   0.494922 0.450827 0.414687 -0.261391
C44   C     C_R   0.605273 0.443116 0.403840 0.088059
C45   C     C_R   0.325869 0.573002 0.005641 -0.103981
C46   C     C_R   0.623985 0.433268 0.483098 0.087658
C47   C     C_R   0.221431 0.427161 0.485253 -0.194002
C48   C     C_R   0.104893 0.460077 0.531560 -0.138265
C49   C     C_R   0.059571 0.569156 0.616398 -0.100054
C50   C     C_R   0.131660 0.647255 0.652023 -0.113170
C51   C     C_R   0.247391 0.613254 0.608905 -0.112447
C52   C     C_R   0.022525 0.818781 0.216325 -0.125045
C53   C     C_R   0.291246 0.501176 0.528856 0.126091
C54   C     C_2   0.439085 0.535940 0.084301 -0.316750
C55   C     C_2   0.522491 0.604996 0.064014 0.313305
C56   C     C_R   0.908858 0.197839 0.790223 -0.137873
C57   C     C_2   0.915167 0.962570 0.008934 -0.276746
C58   C     C_2   0.901869 0.054983 0.099596 0.016021
C59   C     C_R   0.792070 0.512514 0.310605 -0.132194
C60   C     C_R   0.933518 0.746861 0.925277 -0.115042
C61   C     C_R   0.964047 0.851644 0.981414 0.151081
C62   C     C_3   0.360981 0.849626 0.976487 -0.242557
C63   C     C_3   0.757040 0.200936 0.388682 -0.291668
C64   C     C_R   0.217018 0.427735 0.691144 -0.090702
C65   C     C_R   0.104238 0.253107 0.035100 -0.110973
C66   C     C_R   0.004827 0.169854 0.940964 -0.086684
H1    H     H_    0.089580 0.892728 0.047291 0.102509
H2    H     H_    0.232189 0.919573 0.257207 0.178649
H3    H     H_    0.639184 0.357206 0.185983 0.099965
H4    H     H_    0.978909 0.174471 0.351949 0.161634
H5    H     H_    0.096211 0.195539 0.186442 0.153701
H6    H     H_    0.067635 0.176792 0.503243 0.133529
H7    H     H_    0.791439 0.880575 0.510593 0.134469
H8    H     H_    0.769697 0.878715 0.683243 0.108777
H9    H     H_    0.610795 0.901092 0.856459 0.138259
H10   H     H_    0.488847 0.084477 0.981786 0.135885
H11   H     H_    0.523180 0.244750 0.931685 0.110735
H12   H     H_    0.860061 0.136936 0.818319 0.113381
H13   H     H_    0.681464 0.223932 0.758484 0.110602
H14   H     H_    0.035338 0.561618 0.439621 0.159348
H15   H     H_    0.746142 0.632619 0.913373 0.119552
H16   H     H_    0.017749 0.364196 0.324098 0.137393
H17   H     H_    0.671672 0.618163 0.624962 0.141691
H18   H     H_    0.863714 0.684259 0.597649 0.120165
H19   H     H_    0.543788 0.416362 0.629506 0.137052
H20   H     H_    0.480025 0.466486 0.358112 0.133791
H21   H     H_    0.254224 0.340424 0.423837 0.128568
H22   H     H_    0.049080 0.399110 0.504367 0.128668
H23   H     H_    0.192331 0.368040 0.629991 0.114406
H24   H     H_    0.968581 0.593119 0.655038 0.112038
H25   H     H_    0.097007 0.732252 0.716232 0.108977
H26   H     H_    0.917626 0.702008 0.382081 0.104483
H27   H     H_    0.300959 0.671233 0.642659 0.106851
H28   H     H_    0.453938 0.459139 0.088138 0.108398
H29   H     H_    0.878597 0.967142 0.960273 0.144921
H30   H     H_    0.931964 0.053368 0.153630 0.136642
H31   H     H_    0.605988 0.449994 0.106120 0.099982
H32   H     H_    0.038907 0.884603 0.191440 0.115721
H33   H     H_    0.819671 0.553673 0.372194 0.123984
H34   H     H_    0.169429 0.268935 0.062904 0.090921
H35   H     H_    0.889487 0.730894 0.876655 0.084752
H36   H     H_    0.380696 0.624976 0.968988 0.134553
H37   H     H_    0.357853 0.896910 0.933605 0.120009
H38   H     H_    0.285158 0.798948 0.992242 0.128068
H39   H     H_    0.438426 0.788099 0.921720 0.180147
H40   H     H_    0.667868 0.207665 0.400160 0.183981
H41   H     H_    0.758025 0.224779 0.466957 0.120401
H42   H     H_    0.789482 0.109337 0.337463 0.171087
H43   H     H_    0.976547 0.107851 0.883275 0.092261
H44   H     H_    0.390109 0.564419 0.799893 0.094907
H45   H     H_    0.223343 0.445310 0.162568 0.103422
H46   H     H_    0.996188 0.342852 0.649534 0.104841
H47   H     H_    0.280997 0.083487 0.056521 0.130973
N1    N     N_R   0.037320 0.720000 0.995830 -0.044426
N2    N     N_R   0.824900 0.517970 0.936430 -0.046733
N3    N     N_R   0.003190 0.648180 0.211390 -0.037613
N4    N     N_R   0.774330 0.457010 0.995830 -0.038391
N5    N     N_R   0.053760 0.709130 0.151980 -0.040036
N6    N     N_R   0.853840 0.498830 0.211390 -0.040197
N7    N     N_R   0.974250 0.667320 0.936430 -0.040225
N8    N     N_R   0.225670 0.542990 0.004170 -0.052851
N9    N     N_R   0.946240 0.290870 0.848020 -0.043418
N10   N     N_R   0.146160 0.501170 0.788610 -0.040606
N11   N     N_R   0.025750 0.332680 0.063570 -0.036049
N12   N     N_R   0.962680 0.280000 0.004170 -0.041710
N13   N     N_R   0.209230 0.553860 0.848010 -0.046331
N14   N     N_R   0.175100 0.482030 0.063570 -0.044237
N15   N     N_R   0.996810 0.351820 0.788610 -0.039663
N16   N     N_R   0.790770 0.446140 0.151990 -0.040273
Ni1   Ni    Ni4+2 0.130310 0.630310 0.000000 0.208476
Ni2   Ni    Ni4+2 0.869690 0.369690 0.000000 0.225419
Ni3   Ni    Ni4+2 0.985660 0.509480 0.863750 0.216567
Ni4   Ni    Ni4+2 0.014340 0.490520 0.136250 0.228641
O1    O     O_3   0.370479 0.924017 0.072053 -0.580518
O2    O     O_3   0.826859 0.265648 0.334826 -0.640004

loop_
_geom_bond_atom_site_label_1
_geom_bond_atom_site_label_2
_ccdc_geom_bond_type
N11   Ni4   S    
C57   C61   S    
C39   C46   A    
C28   H26   S    
C54   C55   D    
C63   O2    S    
C10   C17   A    
C25   C31   A    
N1    N7    A    
N9    Ni2   S    
C34   C52   A    
C56   H12   S    
C18   C19   A    
C15   H5    S    
C6    C54   S    
C11   H2    S    
C17   H47   S    
C30   H13   S    
C12   C59   A    
N1    Ni1   S    
C9    C66   A    
C52   H32   S    
C47   C53   A    
C8    C41   S    
C7    C19   S    
N10   Ni3   S    
N6    N16   A    
C35   C36   A    
Br1   C55   S    
C1    H1    S    
C3    C6    A    
C29   C30   A    
C7    C56   A    
C2    N13   A    
C64   N10   A    
C14   C15   A    
C35   C46   S    
C60   N7    A    
C16   H15   S    
C44   C46   A    
C39   H19   S    
C57   H29   S    
C42   C53   S    
C2    H44   S    
N5    Ni1   S    
C47   H21   S    
C36   H17   S    
C51   H27   S    
N12   Ni2   S    
C40   N4    A    
C62   H38   S    
C43   H20   S    
C4    C12   A    
C39   C41   A    
C3    H45   S    
C20   C21   A    
N9    N15   A    
C23   C40   A    
C65   H34   S    
C5    N15   A    
N3    Ni4   S    
C51   C53   A    
C63   H41   S    
C8    C64   A    
C9    C65   A    
C64   H23   S    
C20   C31   S    
C16   C23   A    
C3    N14   A    
C37   H18   S    
C50   C51   A    
C6    C45   A    
C18   H6    S    
C32   C33   A    
C38   H14   S    
C54   H28   S    
C66   N12   A    
C5    C7    A    
N2    Ni3   S    
C57   C58   D    
C28   N3    A    
C62   O1    S    
C36   C37   A    
N16   Ni2   S    
C42   C43   A    
C5    H46   S    
C4    H3    S    
C2    C8    A    
N14   Ni4   S    
C50   H25   S    
C56   N9    A    
C1    N1    A    
C66   H43   S    
C30   C31   A    
C13   C14   A    
C33   O2    S    
C49   C50   A    
C25   C26   A    
C32   C38   A    
C62   H39   S    
C27   H10   S    
C32   H16   S    
N10   N13   A    
N15   Ni3   S    
C15   C17   A    
C4    N16   A    
C11   C13   A    
C22   C34   S    
N11   N12   A    
C58   H30   S    
C41   C42   A    
C21   H7    S    
C26   H9    S    
N8    Ni1   S    
C43   C44   A    
C63   H40   S    
C47   C48   A    
C21   C22   A    
C10   O1    S    
C48   H22   S    
C62   H37   S    
C59   H33   S    
C10   C11   A    
C52   N5    A    
C23   C55   S    
C14   H4    S    
C45   H36   S    
C28   C34   A    
C65   N11   A    
N3    N5    A    
C60   H35   S    
C12   C44   S    
C63   H42   S    
C37   C38   A    
C27   C29   A    
C33   C35   A    
N2    N4    A    
C59   N6    A    
N6    Ni4   S    
C22   C24   A    
C13   C24   S    
N8    N14   A    
C60   C61   A    
C18   C24   A    
N13   Ni1   S    
N4    Ni2   S    
C29   H11   S    
C49   H24   S    
C19   C20   A    
C25   H8    S    
C48   C49   A    
C26   C27   A    
C40   H31   S    
C45   N8    A    
N7    Ni3   S    
C1    C61   A    
C16   N2    A    
