data_mof_unit_1075.cif
_audit_creation_date              2013-03-05T16:11:50-0500
_audit_creation_method            fapswitch 2.2
_symmetry_space_group_name_H-M    P1
_symmetry_Int_Tables_number       1
_space_group_crystal_system       triclinic
_cell_length_a                    10.739654
_cell_length_b                    9.406656
_cell_length_c                    23.514242
_cell_angle_alpha                 90.025144
_cell_angle_beta                  89.95952
_cell_angle_gamma                 89.871635
_cell_volume                      2375.50142439

loop_
_atom_site_label
_atom_site_type_symbol
_atom_site_description
_atom_site_fract_x
_atom_site_fract_y
_atom_site_fract_z
_atom_type_partial_charge
O1    O     O_R   0.317570 0.620260 0.500030 -0.577541
O2    O     O_R   0.317570 0.379740 0.500030 -0.567956
C1    C     C_R   0.259659 0.500031 0.499021 0.888554
O3    O     O_R   0.499840 0.620290 0.417900 -0.589125
O4    O     O_R   0.499840 0.379710 0.417900 -0.589449
C2    C     C_R   0.499948 0.499990 0.390920 0.867732
Cu1   Cu    Cu3+1 0.499860 0.642410 0.500030 0.942852
Cu2   Cu    Cu3+1 0.499860 0.357590 0.500030 0.953083
O5    O     O_R   0.682190 0.620260 0.500010 -0.602727
O6    O     O_R   0.682190 0.379740 0.500010 -0.604480
O7    O     O_R   0.499920 0.620230 0.582140 -0.599193
O8    O     O_R   0.499920 0.379770 0.582140 -0.559508
C3    C     C_R   0.740002 0.499659 0.500172 0.780818
C4    C     C_R   0.497741 0.500114 0.609022 0.881411
C5    C     C_R   0.606280 0.460640 0.880172 0.617425
N1    N     N_R   0.503030 0.508706 0.851907 -0.443544
C6    C     C_R   0.398967 0.553779 0.880440 0.606117
C7    C     C_R   0.396342 0.552941 0.940057 -0.026039
C8    C     C_R   0.502027 0.504768 0.969884 -0.012249
C9    C     C_R   0.608092 0.458091 0.939837 -0.025439
C10   C     C_R   0.291027 0.599076 0.970409 -0.141390
C11   C     C_R   0.290617 0.597538 0.029726 -0.145641
C12   C     C_R   0.395524 0.549854 0.059917 -0.022359
C13   C     C_R   0.501575 0.503163 0.029902 -0.010133
C14   C     C_R   0.607163 0.454911 0.059764 -0.017325
C15   C     C_R   0.712428 0.408571 0.029386 -0.144951
C16   C     C_R   0.712868 0.410091 0.970040 -0.136539
C17   C     C_R   0.397223 0.547376 0.119557 0.546872
N2    N     N_R   0.500813 0.500639 0.147977 -0.472958
C18   C     C_R   0.604690 0.454815 0.119433 0.540370
O9    O     O_2   0.706516 0.415405 0.850579 -0.498135
O10   O     O_2   0.298775 0.599963 0.851110 -0.498802
H1    H     H_    0.208628 0.636559 0.948459 0.198730
H2    H     H_    0.207909 0.633892 0.051801 0.196726
O11   O     O_2   0.295942 0.590349 0.148965 -0.499146
O12   O     O_2   0.705556 0.410513 0.148735 -0.515890
H3    H     H_    0.794794 0.371016 0.051340 0.196193
C19   C     C_R   0.498393 0.629059 0.238915 -0.080403
H4    H     H_    0.497313 0.729100 0.216150 0.147276
C20   C     C_R   0.498044 0.629072 0.298195 -0.170669
H5    H     H_    0.496425 0.730022 0.320340 0.152789
C21   C     C_R   0.499917 0.500034 0.328320 -0.023181
C22   C     C_R   0.501918 0.371125 0.298048 -0.174033
H6    H     H_    0.503262 0.270087 0.320096 0.149067
C23   C     C_R   0.502316 0.371436 0.238751 -0.079722
H7    H     H_    0.503567 0.271530 0.215859 0.147517
C24   C     C_R   0.500617 0.500338 0.208983 0.341318
C25   C     C_R   0.437952 0.400833 0.762666 -0.193775
C26   C     C_R   0.431896 0.397041 0.703302 0.330303
C27   C     C_R   0.495840 0.501504 0.671565 -0.216384
C28   C     C_R   0.560908 0.609515 0.700020 -0.327469
H8    H     H_    0.609158 0.689936 0.675524 0.198414
C29   C     C_R   0.564266 0.615668 0.759566 0.399555
C30   C     C_R   0.502376 0.508961 0.790925 0.176804
C31   C     C_3   0.072039 0.581549 0.550070 -0.389642
C32   C     C_3   0.071036 0.344790 0.502414 -0.393063
H9    H     H_    0.110690 0.690763 0.552616 0.213673
H10   H     H_    0.103453 0.276205 0.466928 0.226424
H11   H     H_    0.103195 0.526732 0.589548 0.211002
H12   H     H_    0.106231 0.294826 0.542234 0.217177
C33   C     C_3   0.928806 0.587559 0.549375 -0.353523
C34   C     C_3   0.928625 0.344769 0.503745 -0.387114
H13   H     H_    0.891777 0.545833 0.590316 0.173583
H14   H     H_    0.896121 0.295013 0.544065 0.189574
H15   H     H_    0.897864 0.700156 0.545618 0.202098
H16   H     H_    0.893311 0.278676 0.467930 0.191145
H17   H     H_    0.882152 0.670878 0.436018 0.198701
H18   H     H_    0.886620 0.497594 0.406909 0.170094
C35   C     C_3   0.069583 0.569833 0.440112 0.574146
C36   C     C_3   0.121459 0.499840 0.497026 -0.050643
C37   C     C_3   0.877714 0.498954 0.499079 0.046536
C38   C     C_3   0.923849 0.563685 0.442308 -0.428801
C39   C     C_3   0.604587 0.083651 0.535467 -0.185039
C40   C     C_3   0.604702 0.915909 0.535405 -0.183764
H19   H     H_    0.598764 0.123013 0.579991 0.169220
H20   H     H_    0.599219 0.876436 0.579903 0.159370
H21   H     H_    0.695204 0.121111 0.518364 0.148719
H22   H     H_    0.695322 0.878240 0.518176 0.156062
C41   C     C_3   0.383479 0.083952 0.525607 -0.167410
C42   C     C_3   0.383628 0.916487 0.525754 -0.183055
C43   C     C_3   0.512816 0.083552 0.442992 -0.192293
C44   C     C_3   0.512760 0.916337 0.442990 -0.185990
N3    N     N_3   0.500250 0.143650 0.501250 -0.139496
N4    N     N_3   0.500250 0.856350 0.501250 -0.137085
H23   H     H_    0.434784 0.121836 0.415883 0.173385
H24   H     H_    0.434745 0.878525 0.415891 0.190821
H25   H     H_    0.301884 0.120864 0.500577 0.165635
H26   H     H_    0.302035 0.879536 0.500918 0.209950
N5    N     N_R   0.355139 0.291874 0.676375 0.123497
O13   O     O_R   0.275800 0.329657 0.637381 -0.411065
O14   O     O_R   0.348784 0.164085 0.697336 -0.343955
N6    N     N_R   0.629858 0.730193 0.787117 0.152677
O15   O     O_R   0.598913 0.772436 0.837899 -0.325726
O16   O     O_R   0.715100 0.800613 0.759718 -0.324950
N7    N     N_R   0.110653 0.719488 0.435443 0.105446
O17   O     O_R   0.058024 0.819790 0.465208 -0.432177
O18   O     O_R   0.198594 0.754339 0.399959 -0.329311
N8    N     N_R   0.111326 0.493127 0.388346 0.106323
O19   O     O_R   0.067107 0.531106 0.339068 -0.291365
O20   O     O_R   0.203658 0.403356 0.389175 -0.395800
H27   H     H_    0.370083 0.123778 0.569664 0.209798
H28   H     H_    0.370461 0.876746 0.569898 0.163584
H29   H     H_    0.600319 0.122565 0.423069 0.146074
H30   H     H_    0.600203 0.876781 0.423027 0.145090
H31   H     H_    0.795534 0.373668 0.947951 0.197693
H32   H     H_    0.389150 0.321415 0.787441 0.200000

loop_
_geom_bond_atom_site_label_1
_geom_bond_atom_site_label_2
_geom_bond_distance
_ccdc_geom_bond_type
C19   C20   1.393915 A    
C31   H11   1.113404 S    
C7    C10   1.404764 A    
C39   C40   1.577890 S    
C8    C9    1.409208 A    
C42   N4    1.488703 S    
C41   H25   1.111051 S    
C43   C44   1.572937 S    
Cu1   Cu2   2.679203 S    
C4    C27   1.470838 S    
C23   H7    1.082872 S    
C25   C30   1.399296 A    
C15   C16   1.395558 A    
C40   H20   1.111971 S    
N2    C24   1.434502 S    
C17   N2    1.369935 A    
C7    C8    1.408755 A    
C19   H4    1.082889 S    
O7    C4    1.295178 A    
C10   H1    1.083154 S    
C16   H31   1.083141 S    
C5    N1    1.369241 A    
Cu2   N3    2.012672 S    
H17   C38   1.112354 S    
C33   H13   1.113315 S    
O5    C3    1.292027 A    
C34   H14   1.113763 S    
C25   H32   1.083464 S    
N7    O17   1.302304 A    
C17   O11   1.349611 S    
N1    C6    1.369487 A    
C12   C13   1.408753 A    
N5    O14   1.301307 A    
H18   C38   1.113702 S    
C35   N8    1.483324 S    
C33   C37   1.548095 S    
C20   C21   1.405778 A    
Cu1   N4    2.012666 S    
C10   C11   1.394877 A    
C39   H19   1.112006 S    
O3    Cu1   1.942313 S    
C43   N3    1.487663 S    
C27   C28   1.404124 A    
C23   C24   1.400430 A    
C5    C9    1.403334 A    
C11   H2    1.083145 S    
C34   H16   1.113852 S    
C28   H8    1.083642 S    
C1    C36   1.484996 S    
C13   C14   1.408559 A    
O3    C2    1.297077 A    
C26   N5    1.436293 S    
C3    C37   1.479187 S    
C14   C15   1.405239 A    
C44   H24   1.111938 S    
C32   H12   1.113834 S    
C42   H28   1.112467 S    
C28   C29   1.401847 A    
C35   C38   1.567151 S    
Cu1   O7    1.942084 S    
C22   H6    1.082910 S    
N2    C18   1.370193 A    
Cu2   O8    1.941902 S    
C29   N6    1.442195 S    
N6    O16   1.301627 A    
C6    C7    1.402162 A    
C12   C17   1.402705 A    
C5    O9    1.349363 S    
C22   C23   1.394351 A    
C19   C24   1.400419 A    
C25   C26   1.397908 A    
O8    C4    1.296468 A    
N8    O19   1.302397 A    
C44   N4    1.487942 S    
C31   H9    1.110498 S    
C40   H22   1.111135 S    
C32   C34   1.529735 S    
C21   C22   1.405923 A    
C43   H29   1.112812 S    
C14   C18   1.403309 A    
Cu1   O5    1.968751 S    
C20   H5    1.082906 S    
C39   H21   1.110915 S    
O1    Cu1   1.969251 S    
O2    Cu2   1.968322 S    
C40   N4    1.490300 S    
C35   N7    1.480275 S    
O6    C3    1.288841 A    
O4    Cu2   1.942495 S    
N7    O18   1.302369 A    
C15   H3    1.083132 S    
C29   C30   1.412804 A    
C9    C16   1.404845 A    
C32   C36   1.562096 S    
C18   O12   1.349514 S    
O2    C1    1.290216 A    
C37   C38   1.548994 S    
C42   H26   1.109803 S    
C41   N3    1.489467 S    
O4    C2    1.297408 A    
C31   C33   1.539284 S    
N6    O15   1.301025 A    
C32   H10   1.109860 S    
C34   C37   1.552821 S    
C8    C13   1.411389 A    
C35   C36   1.592201 S    
N8    O20   1.301172 A    
N1    C30   1.433964 S    
C31   C36   1.557107 S    
C41   C42   1.575288 S    
C33   H15   1.112921 S    
Cu2   O6    1.969680 S    
C26   C27   1.413171 A    
C2    C21   1.471999 S    
C6    O10   1.349593 S    
C44   H30   1.112827 S    
C11   C12   1.404891 A    
C41   H27   1.110630 S    
O1    C1    1.292122 A    
N5    O13   1.301196 A    
C39   N3    1.490085 S    
C43   H23   1.112620 S    
