data_mof_unit_1275.cif
_audit_creation_date              2013-03-05T16:31:47-0500
_audit_creation_method            fapswitch 2.2
_symmetry_space_group_name_H-M    P1
_symmetry_Int_Tables_number       1
_space_group_crystal_system       triclinic
_cell_length_a                    11.708536
_cell_length_b                    10.818637
_cell_length_c                    9.563632
_cell_angle_alpha                 90.701864
_cell_angle_beta                  90.169815
_cell_angle_gamma                 90.337702
_cell_volume                      1211.31158273

loop_
_atom_site_label
_atom_site_type_symbol
_atom_site_description
_atom_site_fract_x
_atom_site_fract_y
_atom_site_fract_z
_atom_type_partial_charge
O1    O     O_R   0.500000 0.319640 0.618810 -0.581850
O2    O     O_R   0.500010 0.319680 0.381230 -0.566161
C1    C     C_R   0.498599 0.262642 0.499306 0.821908
O3    O     O_R   0.337190 0.499990 0.618790 -0.580797
O4    O     O_R   0.337200 0.500030 0.381210 -0.549621
C2    C     C_R   0.284020 0.499943 0.499829 0.818170
Cu1   Cu    Cu3+1 0.499990 0.499980 0.640670 0.965128
Cu2   Cu    Cu3+1 0.500010 0.500020 0.359330 0.976864
O5    O     O_R   0.499990 0.680320 0.618770 -0.574362
O6    O     O_R   0.500000 0.680360 0.381190 -0.586967
O7    O     O_R   0.662800 0.499970 0.618790 -0.559552
O8    O     O_R   0.662810 0.500010 0.381210 -0.567231
C3    C     C_R   0.500463 0.737607 0.500588 0.803818
C4    C     C_R   0.715963 0.500136 0.500163 0.856205
C5    C     C_1   0.162323 0.500030 0.499561 -0.176636
C6    C     C_1   0.059858 0.500127 0.499751 0.005314
C7    C     C_1   0.940080 0.500203 0.500173 0.025104
C8    C     C_1   0.837627 0.500193 0.500388 -0.125402
C9    C     C_R   0.541399 0.066711 0.611572 0.085801
C10   C     C_R   0.493822 0.129617 0.499658 -0.069855
C11   C     C_R   0.438673 0.062581 0.392409 -0.222672
H1    H     H_    0.397246 0.109588 0.306989 0.159048
C12   C     C_R   0.439484 0.933487 0.393580 -0.207167
H2    H     H_    0.398479 0.882756 0.308753 0.152450
C13   C     C_R   0.495595 0.871001 0.501871 -0.084823
C14   C     C_R   0.542769 0.939161 0.613113 -0.015705
C15   C     C_3   0.660746 0.937140 0.676098 -0.234742
C16   C     C_3   0.658359 0.078693 0.674380 -0.103865
H3    H     H_    0.660760 0.903628 0.784933 0.157143
H4    H     H_    0.656749 0.122202 0.780320 0.166644
C17   C     C_R   0.584046 0.560000 0.074966 0.225868
N1    N     N_R   0.500710 0.500930 0.147930 -0.197865
C18   C     C_R   0.424673 0.428804 0.072835 0.235708
C19   C     C_R   0.424709 0.429554 0.923729 -0.130572
H5    H     H_    0.362657 0.374375 0.866250 0.146244
N2    N     N_R   0.500710 0.500890 0.852020 -0.190199
C20   C     C_R   0.584181 0.559692 0.927730 0.219817
C21   C     C_3   0.613304 0.693581 0.922875 -0.552425
C22   C     C_3   0.611960 0.694650 0.082110 -0.089093
H6    H     H_    0.698968 0.708699 0.876156 0.228472
H7    H     H_    0.543007 0.748982 0.877597 0.203560
H8    H     H_    0.543058 0.752244 0.128399 0.181207
N3    N     N_3   0.723929 0.718313 0.145863 -0.555422
H9    H     H_    0.745451 0.810663 0.127794 0.223189
H10   H     H_    0.786205 0.663742 0.097323 0.233151
C23   C     C_2   0.748123 0.874072 0.584545 0.389990
H11   H     H_    0.748591 0.887993 0.472333 0.078694
O9    O     O_2   0.818278 0.805106 0.636126 -0.560291
N4    N     N_3   0.740905 0.138572 0.581383 -0.584662
H12   H     H_    0.733922 0.103508 0.479293 0.218031
H13   H     H_    0.823101 0.119646 0.617988 0.236869
N5    N     N_3   0.343938 0.353270 0.144536 -0.526416
H14   H     H_    0.262037 0.380012 0.113853 0.199007
H15   H     H_    0.355595 0.261844 0.111191 0.180951

loop_
_geom_bond_atom_site_label_1
_geom_bond_atom_site_label_2
_geom_bond_distance
_ccdc_geom_bond_type
C7    C8    1.199578 T    
O4    Cu2   1.918334 S    
Cu1   O7    1.918333 S    
N3    H9    1.045506 S    
C20   C21   1.487449 S    
C15   H3    1.106375 S    
Cu1   N2    2.021170 S    
C4    C8    1.424498 S    
C17   N1    1.361987 A    
Cu2   O8    1.916986 S    
C12   H2    1.083300 S    
N1    C18   1.375337 A    
C9    C10   1.392050 A    
C16   H4    1.112195 S    
O2    C1    1.293552 A    
C2    C5    1.424895 S    
C1    C10   1.439953 S    
C11   H1    1.082584 S    
N5    H14   1.045503 S    
C18   N5    1.428297 S    
C21   H6    1.111263 S    
C9    C16   1.498025 S    
N3    H10   1.046952 S    
C3    C13   1.444507 S    
C14   C15   1.505712 S    
C21   C22   1.522902 S    
O3    Cu1   1.916985 S    
C15   C23   1.509218 S    
O3    C2    1.295263 A    
N2    C20   1.364299 A    
C17   C22   1.491767 S    
C18   C19   1.426114 A    
C22   H8    1.111902 S    
C19   N2    1.366115 A    
C11   C12   1.396891 A    
O4    C2    1.295697 A    
C19   H5    1.082077 S    
O7    C4    1.295676 A    
C23   O9    1.220085 D    
C5    C6    1.199734 T    
Cu2   N1    2.021938 S    
O8    C4    1.295093 A    
Cu1   Cu2   2.690637 S    
C12   C13   1.406961 A    
C10   C11   1.402602 A    
C21   H7    1.110977 S    
Cu2   O6    1.959655 S    
N4    H12   1.045909 S    
C16   N4    1.468534 S    
C15   C16   1.532119 S    
Cu1   O5    1.964793 S    
C9    C14   1.380364 A    
O5    C3    1.295672 A    
C23   H11   1.085521 S    
C22   N3    1.464050 S    
N4    H13   1.045359 S    
C13   C14   1.397561 A    
O1    Cu1   1.959655 S    
O2    Cu2   1.964792 S    
C17   C20   1.408082 A    
N5    H15   1.045352 S    
C6    C7    1.402447 S    
O1    C1    1.291986 A    
O6    C3    1.292316 A    
