data_mof_unit_2980.cif
_audit_creation_date              2012-12-11T20:41:36-0500
_audit_creation_method            fapswitch 2.2
_symmetry_space_group_name_H-M    P1
_symmetry_Int_Tables_number       1
_space_group_crystal_system       triclinic
_cell_length_a                    8.224002
_cell_length_b                    18.950773
_cell_length_c                    27.025507
_cell_angle_alpha                 97.368909
_cell_angle_beta                  92.537109
_cell_angle_gamma                 85.844973
_cell_volume                      4163.58654151

loop_
_atom_site_label
_atom_site_type_symbol
_atom_type_description
_atom_site_fract_x
_atom_site_fract_y
_atom_site_fract_z
_atom_type_partial_charge
Ba1   Ba    Ba6+2 0.852670 0.466460 0.522850 1.661823
Ba2   Ba    Ba6+2 0.337150 0.533490 0.477140 1.657441
C1    C     C_3   0.581289 0.223421 0.665134 -0.351135
C2    C     C_R   0.917592 0.569022 0.178900 0.572625
C3    C     C_2   0.760830 0.545691 0.272630 -0.082756
C4    C     C_3   0.121534 0.267994 0.650733 0.320061
C5    C     C_3   0.744782 0.569955 0.327602 -0.045040
C6    C     C_1   0.980988 0.488216 0.342391 0.028361
C7    C     C_2   0.020985 0.483650 0.294533 -0.106364
C8    C     C_2   0.903061 0.512138 0.256078 0.195200
C9    C     C_R   0.020399 0.503759 0.101421 -0.079444
C10   C     C_R   0.047248 0.442622 0.126164 -0.036897
C11   C     C_R   0.112444 0.379524 0.099319 -0.059211
C12   C     C_3   0.581076 0.293636 0.643403 0.363609
C13   C     C_R   0.954971 0.567177 0.128221 -0.024400
C14   C     C_2   0.849463 0.525413 0.360304 -0.292638
C15   C     C_2   0.350664 0.482097 0.641407 -0.279552
C16   C     C_3   0.046828 0.247279 0.696801 -0.339764
C17   C     C_R   0.162309 0.435153 0.971598 0.019525
C18   C     C_R   0.068265 0.562203 0.974411 0.020200
C19   C     C_R   0.134299 0.497782 0.947579 0.050278
C20   C     C_R   0.227560 0.372507 0.942864 -0.097902
C21   C     C_R   0.264382 0.371498 0.892865 -0.060728
C22   C     C_R   0.238359 0.432805 0.868855 -0.034439
C23   C     C_3   0.511862 0.643007 0.630054 0.312599
C24   C     C_R   0.172915 0.496079 0.896128 -0.078291
C25   C     C_R   0.146297 0.557759 0.871947 -0.033932
C26   C     C_R   0.186718 0.555743 0.821401 0.586801
C27   C     C_R   0.276509 0.432108 0.818100 0.592045
C28   C     C_3   0.183574 0.318498 0.416623 0.310312
C29   C     C_2   0.451874 0.477505 0.729276 -0.081252
C30   C     C_3   0.498192 0.486294 0.676699 -0.066940
C31   C     C_1   0.211161 0.513266 0.657276 0.046142
C32   C     C_2   0.169892 0.513788 0.704404 -0.081370
C33   C     C_2   0.295356 0.493105 0.743193 0.215035
C34   C     C_3   0.490050 0.669717 0.685061 -0.356156
C35   C     C_R   0.124474 0.437123 0.023112 0.019512
C36   C     C_R   0.058573 0.501614 0.049881 0.049873
C37   C     C_R   0.030213 0.564103 0.025732 0.020397
C38   C     C_R   0.150233 0.376718 0.049203 -0.098203
C39   C     C_R   0.927952 0.628153 0.103962 -0.059961
C40   C     C_3   0.203789 0.237942 0.403585 -0.361893
C41   C     C_R   0.042624 0.622886 0.948658 -0.099648
C42   C     C_R   0.080819 0.620583 0.898829 -0.059949
C43   C     C_R   0.964384 0.626802 0.054130 -0.101426
C44   C     C_2   0.411474 0.301860 0.521228 -0.241129
C45   C     C_3   0.071260 0.683427 0.342512 0.339277
C46   C     C_3   0.332161 0.255845 0.553365 -0.070699
C47   C     C_2   0.377193 0.177056 0.540822 -0.126226
C48   C     C_2   0.501865 0.153938 0.510449 -0.057345
C49   C     C_2   0.580740 0.206708 0.484381 -0.127985
C50   C     C_1   0.530790 0.275281 0.491708 0.062137
C51   C     C_R   0.669284 0.937345 0.498259 0.492542
C52   C     C_3   0.012875 0.682875 0.584064 0.295841
C53   C     C_R   0.565462 0.078059 0.505938 0.464016
C54   C     C_R   0.619177 0.811872 0.515607 0.107099
C55   C     C_R   0.663907 0.737891 0.508903 0.030075
C56   C     C_3   0.088212 0.701994 0.289968 -0.306209
C57   C     C_R   0.897510 0.757581 0.462403 0.019286
C58   C     C_R   0.852733 0.830963 0.467047 -0.156524
C59   C     C_R   0.712690 0.859066 0.493284 -0.078959
C60   C     C_R   0.797964 0.711619 0.480885 -0.316527
C61   C     C_3   0.992080 0.763152 0.598787 -0.354077
C62   C     C_3   0.668543 0.378483 0.372701 0.302749
C63   C     C_3   0.662770 0.361148 0.316159 -0.354342
C64   C     C_3   0.532949 0.724237 0.365843 0.353057
C65   C     C_3   0.493115 0.796561 0.347915 -0.352607
C66   C     C_R   0.007586 0.445672 0.177142 0.598249
H1    H     H_    0.636491 0.282516 0.606176 0.062485
H2    H     H_    0.794138 0.390335 0.385458 0.006116
H3    H     H_    0.583885 0.425927 0.382917 0.076382
H4    H     H_    0.708264 0.200758 0.670156 0.132635
H5    H     H_    0.751246 0.315541 0.304624 0.134809
H6    H     H_    0.694228 0.407909 0.298667 0.068791
H7    H     H_    0.538080 0.347188 0.302802 0.134503
H8    H     H_    0.453338 0.316427 0.640131 -0.084655
H9    H     H_    0.513822 0.184358 0.639527 0.076772
H10   H     H_    0.390875 0.629609 0.613163 0.024398
H11   H     H_    0.597368 0.594656 0.626611 0.024750
H12   H     H_    0.294630 0.223830 0.374105 0.124785
H13   H     H_    0.411826 0.720281 0.688951 0.150845
H14   H     H_    0.430418 0.630032 0.703567 0.071847
H15   H     H_    0.610618 0.679266 0.703929 0.124200
H16   H     H_    0.522382 0.232125 0.701818 0.134601
H17   H     H_    0.135783 0.253746 0.728932 0.104564
H18   H     H_    0.146642 0.633190 0.346343 0.090294
H19   H     H_    0.941273 0.675490 0.347736 -0.056683
H20   H     H_    0.204452 0.727014 0.286747 0.147340
H21   H     H_    0.088818 0.652586 0.263210 0.118158
H22   H     H_    0.985309 0.739574 0.280243 0.122273
H23   H     H_    0.246375 0.212665 0.437041 0.078215
H24   H     H_    0.667660 0.713636 0.365314 -0.064061
H25   H     H_    0.492666 0.727109 0.404807 0.076766
H26   H     H_    0.559767 0.837760 0.372011 0.087301
H27   H     H_    0.360400 0.811429 0.349818 0.155268
H28   H     H_    0.144880 0.325676 0.657766 0.027944
H29   H     H_    0.530790 0.794985 0.308810 0.120289
H30   H     H_    0.140516 0.460796 0.283286 0.128956
H31   H     H_    0.134898 0.331464 0.117084 0.123173
H32   H     H_    0.546707 0.465265 0.756721 0.096031
H33   H     H_    0.314223 0.321919 0.872960 0.120345
H34   H     H_    0.085085 0.216940 0.389970 0.136216
H35   H     H_    0.252131 0.322689 0.957773 0.069845
H36   H     H_    0.199913 0.325805 0.032070 0.070147
H37   H     H_    0.668815 0.565130 0.246713 0.117600
H38   H     H_    0.877782 0.677901 0.123565 0.123284
H39   H     H_    0.993050 0.673801 0.965741 0.070395
H40   H     H_    0.238116 0.235226 0.645369 -0.024909
H41   H     H_    0.058650 0.668901 0.881333 0.124819
H42   H     H_    0.046690 0.530930 0.715488 0.118973
H43   H     H_    0.938818 0.676530 0.039223 0.069874
H44   H     H_    0.833748 0.536847 0.400255 0.081856
H45   H     H_    0.894827 0.662690 0.570136 -0.001215
H46   H     H_    0.357343 0.451992 0.604480 0.066420
H47   H     H_    0.318499 0.140041 0.560626 0.096869
H48   H     H_    0.682113 0.188735 0.460426 0.101059
H49   H     H_    0.930037 0.866294 0.451971 0.108863
H50   H     H_    0.381634 0.358902 0.527817 0.066025
H51   H     H_    0.935856 0.282098 0.706367 0.163799
H52   H     H_    0.832765 0.655046 0.476971 0.063427
H53   H     H_    0.015413 0.190752 0.690131 0.116502
H54   H     H_    0.303197 0.338906 0.428403 -0.003976
H55   H     H_    0.098658 0.331122 0.447710 0.087847
H56   H     H_    0.102259 0.671599 0.554137 0.079322
H57   H     H_    0.892513 0.776183 0.625588 0.139889
H58   H     H_    0.961805 0.790639 0.565489 0.077126
H59   H     H_    0.107277 0.783022 0.616485 0.154776
I1    I     I_    0.411011 0.849728 0.559266 -0.390608
N1    N     N_R   0.943521 0.508621 0.203311 -0.422123
N2    N     N_R   0.251491 0.493397 0.794975 -0.425615
N3    N     N_R   0.613992 0.972441 0.541864 -0.197942
N4    N     N_R   0.561989 0.040993 0.545566 -0.228828
N5    N     N_R   0.628225 0.044160 0.462807 -0.241091
N6    N     N_R   0.678556 0.975046 0.458979 -0.246462
O1    O     O_2   0.914730 0.537460 0.618690 -0.459176
O2    O     O_2   0.236609 0.751912 0.468888 -0.449966
O3    O     O_3   0.125106 0.739142 0.377147 -0.600229
O4    O     O_3   0.146720 0.537410 0.558510 -0.494599
O5    O     O_3   0.553920 0.415280 0.473710 -0.492966
O6    O     O_2   0.383540 0.672140 0.526840 -0.446318
O7    O     O_3   0.575996 0.696876 0.607432 -0.617131
O8    O     O_2   0.413787 0.533753 0.323405 -0.498967
O9    O     O_3   0.451607 0.671530 0.334663 -0.593544
O10   O     O_2   0.027929 0.391901 0.197841 -0.594854
O11   O     O_2   0.330968 0.376791 0.794430 -0.601176
O12   O     O_3   0.623091 0.319325 0.393627 -0.632061
O13   O     O_2   0.862611 0.625116 0.201382 -0.620945
O14   O     O_2   0.166242 0.609924 0.801107 -0.596248
O15   O     O_3   0.666360 0.409390 0.586570 -0.481939
O16   O     O_2   0.834912 0.448976 0.670530 -0.474594
O17   O     O_3   0.067375 0.651220 0.626232 -0.628568
O18   O     O_3   0.673205 0.340438 0.675378 -0.586913
O19   O     O_2   0.806150 0.327840 0.473120 -0.455595
O20   O     O_3   0.073640 0.373350 0.561550 -0.472683
O21   O     O_2   0.013931 0.246680 0.511026 -0.479481
O22   O     O_3   0.016087 0.253968 0.608742 -0.570639
O23   O     O_2   0.274960 0.462520 0.381280 -0.458867
O24   O     O_3   0.042980 0.462530 0.441480 -0.499275
O25   O     O_3   0.523340 0.590550 0.413420 -0.478968
O26   O     O_3   0.122470 0.348613 0.374420 -0.624145
O27   O     O_3   0.635780 0.584660 0.526290 -0.480318
O28   O     O_3   0.116060 0.626590 0.438450 -0.496303
P1    P     P_3+3 0.084800 0.558370 0.611580 0.997623
P2    P     P_3+3 0.628800 0.338360 0.458800 0.986979
P3    P     P_3+3 0.108629 0.280667 0.557698 0.967962
P4    P     P_3+3 0.104900 0.441570 0.388420 0.990285
P5    P     P_3+3 0.093562 0.719211 0.437208 0.964644
P6    P     P_3+3 0.667014 0.422495 0.652077 0.990334
P7    P     P_3+3 0.568591 0.674041 0.542606 0.988564
P8    P     P_3+3 0.532013 0.588340 0.348910 0.944230

loop_
_geom_bond_atom_site_label_1
_geom_bond_atom_site_label_2
_ccdc_geom_bond_type
C20   H35   S    
C19   C24   A    
C40   H12   S    
O6    P7    D    
O25   P8    S    
Ba2   O28   S    
C55   C60   A    
C3    H37   S    
C28   O26   S    
C10   C66   A    
C14   H44   S    
C24   C25   A    
C7    H30   S    
Ba2   O5    S    
O5    P2    S    
C17   C19   A    
C22   C24   A    
Ba1   Ba2   S    
C35   C38   A    
C27   O11   D    
C36   C37   A    
C52   C61   S    
C34   H15   S    
C52   H45   S    
C44   C50   D    
C63   H5    S    
C54   C55   A    
C44   H50   S    
C32   C33   S    
C62   H3    S    
C22   C27   A    
C11   C38   A    
C17   C35   A    
C9    C13   A    
C25   C42   A    
C46   P3    S    
C28   H54   S    
Ba1   P2    S    
C34   H14   S    
C6    C7    D    
C65   H26   S    
C21   C22   A    
O20   P3    S    
Ba1   O15   S    
O4    P1    S    
C51   N3    A    
C62   H2    S    
C7    C8    S    
Ba2   P4    S    
C60   H52   S    
Ba1   O5    S    
C37   C43   A    
O17   P1    S    
O27   P7    S    
C42   H41   S    
C64   C65   S    
Ba1   O27   S    
C57   C58   A    
C6    C14   D    
C65   H27   S    
C66   N1    Am   
O15   P6    S    
C15   C31   D    
C40   H34   S    
Ba2   O27   S    
O18   P6    S    
C15   H46   S    
C48   C49   S    
C55   P7    S    
C4    C16   S    
C44   C46   S    
C26   O14   D    
C16   H17   S    
C39   H38   S    
O19   P2    D    
C49   C50   D    
Ba2   O4    S    
C45   H18   S    
C17   C20   A    
C13   C39   A    
C52   O17   S    
C3    C5    S    
C18   C37   A    
Ba2   O25   S    
C64   H24   S    
C64   O9    S    
C23   C34   S    
C53   N5    A    
C2    O13   D    
O12   P2    S    
C63   H6    S    
C23   H10   S    
C58   C59   A    
C12   H8    S    
C11   H31   S    
C9    C36   A    
C41   C42   A    
C35   C36   A    
C38   H36   S    
C27   N2    Am   
C34   H13   S    
Ba2   O24   S    
O16   P6    D    
C45   O3    S    
O7    P7    S    
C31   C32   D    
C58   H49   S    
C54   C59   A    
C41   H39   S    
C29   H32   S    
C18   C19   A    
Ba1   O19   S    
C28   H55   S    
C56   H22   S    
C33   N2    S    
C61   H57   S    
C1    C12   S    
C6    P4    S    
C50   P2    S    
C64   H25   S    
C46   C47   S    
C47   H47   S    
C53   N4    A    
O26   P4    S    
C30   P6    S    
N5    N6    A    
C32   H42   S    
C12   H1    S    
C29   C33   D    
C51   C59   S    
N3    N4    A    
C1    H9    S    
O3    P5    S    
C18   C41   A    
C57   P5    S    
O24   P4    S    
C52   H56   S    
C5    C14   S    
C57   C60   A    
C39   C43   A    
C62   O12   S    
C23   H11   S    
O1    P1    D    
C29   C30   S    
C23   O7    S    
C51   N6    A    
C49   H48   S    
O9    P8    S    
C56   H20   S    
O23   P4    D    
C9    C10   A    
C43   H43   S    
C2    N1    Am   
O2    P5    D    
C4    H28   S    
C48   C53   S    
C63   H7    S    
O8    P8    D    
Ba2   O6    S    
C62   C63   S    
C2    C13   A    
C1    H4    S    
C8    N1    S    
C3    C8    D    
C45   C56   S    
Ba1   O24   S    
C21   H33   S    
O22   P3    S    
O21   P3    D    
Ba2   O23   S    
C31   P1    S    
C66   O10   D    
C26   N2    Am   
C54   I1    S    
Ba1   O20   S    
C56   H21   S    
C4    O22   S    
C61   H58   S    
C65   H29   S    
C16   H53   S    
O28   P5    S    
C10   C11   A    
Ba1   P1    S    
C47   C48   D    
C5    P8    S    
C12   O18   S    
C1    H16   S    
C15   C30   S    
C4    H40   S    
C20   C21   A    
C28   C40   S    
Ba1   O1    S    
C16   H51   S    
C61   H59   S    
Ba1   O4    S    
C40   H23   S    
C45   H19   S    
C25   C26   A    
