data_mof_unit_4900.cif
_audit_creation_date              2012-12-11T18:11:17-0500
_audit_creation_method            fapswitch 2.2
_symmetry_space_group_name_H-M    P1
_symmetry_Int_Tables_number       1
_space_group_crystal_system       triclinic
_cell_length_a                    8.222961
_cell_length_b                    12.826208
_cell_length_c                    18.667673
_cell_angle_alpha                 99.433761
_cell_angle_beta                  90.859185
_cell_angle_gamma                 98.890264
_cell_volume                      1917.26391667

loop_
_atom_site_label
_atom_site_type_symbol
_atom_type_description
_atom_site_fract_x
_atom_site_fract_y
_atom_site_fract_z
_atom_type_partial_charge
Ba1   Ba    Ba6+2 0.852780 0.548340 0.465070 1.674594
Ba2   Ba    Ba6+2 0.337060 0.451750 0.534940 1.693154
C1    C     C_3   0.573094 0.899979 0.263064 0.367622
C2    C     C_3   0.646898 0.816607 0.298167 0.317503
C3    C     C_3   0.476141 0.278176 0.314190 0.335128
C4    C     C_3   0.480322 0.247878 0.232008 -0.293102
C5    C     C_3   0.062597 0.255324 0.733317 0.410550
C6    C     C_3   0.058658 0.238553 0.812021 -0.269636
C7    C     C_3   0.588983 0.211838 0.768431 0.578348
C8    C     C_3   0.556996 0.164450 0.837554 -0.287324
C9    C     C_R   0.989409 0.450616 0.049260 0.009844
C10   C     C_R   0.893998 0.393774 0.096995 -0.089443
C11   C     C_R   0.756489 0.433251 0.959363 -0.095460
C12   C     C_3   0.116411 0.738942 0.260499 0.290338
C13   C     C_R   0.925233 0.463434 0.980346 0.039285
C14   C     C_R   0.698234 0.438016 0.889780 -0.111415
C15   C     C_R   0.805821 0.470995 0.837569 -0.024067
C16   C     C_R   0.970990 0.514999 0.859643 0.012133
C17   C     C_R   0.031418 0.511064 0.931262 0.040037
C18   C     C_R   0.754752 0.458958 0.763577 -0.028477
C19   C     C_R   0.865867 0.494598 0.713724 -0.288913
C20   C     C_R   0.022878 0.550309 0.735661 0.039231
C21   C     C_R   0.076512 0.560976 0.809729 -0.026461
C22   C     C_R   0.156469 0.491911 0.070364 0.032753
C23   C     C_3   0.040866 0.740670 0.185006 0.366716
C24   C     C_R   0.217118 0.487536 0.141853 -0.010886
C25   C     C_R   0.111771 0.441077 0.191686 -0.045381
C26   C     C_R   0.955010 0.387705 0.165947 -0.007671
C27   C     C_R   0.231953 0.615305 0.835717 0.023799
C28   C     C_R   0.293264 0.609739 0.904751 -0.047343
C29   C     C_R   0.198394 0.552332 0.952349 0.027327
C30   C     C_R   0.262822 0.538987 0.021088 0.050437
C31   C     C_R   0.431758 0.568781 0.041849 -0.016182
C32   C     C_R   0.382749 0.530633 0.163772 -0.032025
C33   C     C_R   0.489961 0.565360 0.111730 -0.004121
C34   C     C_3   0.133769 0.797857 0.639053 0.266950
C35   C     C_R   0.435358 0.538370 0.237248 0.008241
C36   C     C_R   0.326097 0.501132 0.286963 -0.310060
C37   C     C_R   0.167164 0.449914 0.265398 0.035318
C38   C     C_R   0.765545 0.180576 0.528571 -0.236487
C39   C     C_R   0.425241 0.809158 0.473658 -0.257958
C40   C     C_R   0.400518 0.984036 0.447877 -0.106570
C41   C     C_R   0.336020 0.876012 0.443039 -0.009177
C42   C     C_R   0.577843 0.848756 0.510073 0.072379
C43   C     C_R   0.645620 0.959542 0.515143 -0.026196
C44   C     C_R   0.554469 0.027654 0.483278 -0.052496
C45   C     C_3   0.161610 0.914173 0.676143 0.355635
C46   C     C_R   0.617825 0.138377 0.489404 0.056613
C47   C     C_R   0.860934 0.114769 0.556326 -0.006796
C48   C     C_R   0.800249 0.005039 0.550964 -0.003036
C49   C     C_3   0.967619 0.216734 0.384056 0.342456
C50   C     C_3   0.967085 0.097068 0.369152 0.146308
C51   C     C_3   0.685453 0.703020 0.686815 0.373339
C52   C     C_3   0.631261 0.733555 0.763927 -0.279885
H1    H     H_    0.763635 0.855448 0.328319 0.068446
H2    H     H_    0.295373 0.942198 0.686557 0.086571
H3    H     H_    0.114726 0.963640 0.639864 0.005039
H4    H     H_    0.848232 0.234228 0.404066 -0.098940
H5    H     H_    0.065923 0.251736 0.426071 0.056309
H6    H     H_    0.850679 0.056210 0.340016 0.083538
H7    H     H_    0.978844 0.066741 0.420810 -0.010596
H8    H     H_    0.808419 0.680259 0.689902 -0.056628
H9    H     H_    0.599687 0.632176 0.660249 0.067556
H10   H     H_    0.578828 0.974585 0.303284 -0.046008
H11   H     H_    0.727869 0.791972 0.796907 0.174845
H12   H     H_    0.607403 0.661618 0.790397 0.048883
H13   H     H_    0.518317 0.770718 0.762820 0.138178
H14   H     H_    0.557197 0.789372 0.337725 -0.149759
H15   H     H_    0.441313 0.870370 0.249088 0.097595
H16   H     H_    0.351722 0.295884 0.328649 0.015432
H17   H     H_    0.568864 0.351022 0.331158 0.045446
H18   H     H_    0.386500 0.176608 0.212088 0.193381
H19   H     H_    0.454215 0.315055 0.205408 0.014623
H20   H     H_    0.604020 0.229494 0.216706 0.143934
H21   H     H_    0.162541 0.322535 0.729263 0.083367
H22   H     H_    0.943629 0.277485 0.717538 -0.075168
H23   H     H_    0.180493 0.223255 0.830270 0.165751
H24   H     H_    0.030007 0.310801 0.847256 0.014651
H25   H     H_    0.962223 0.170382 0.818097 0.157445
H26   H     H_    0.714026 0.258519 0.775235 -0.074893
H27   H     H_    0.541678 0.227531 0.884010 0.072953
H28   H     H_    0.661932 0.125021 0.850913 0.084887
H29   H     H_    0.044190 0.669215 0.279394 0.035624
H30   H     H_    0.444203 0.104125 0.830221 0.197647
H31   H     H_    0.826401 0.483145 0.657025 0.062488
H32   H     H_    0.567883 0.413471 0.877065 0.085665
H33   H     H_    0.875643 0.341950 0.198999 0.103301
H34   H     H_    0.309284 0.661062 0.802432 0.102629
H35   H     H_    0.619988 0.591744 0.124444 0.114987
H36   H     H_    0.367245 0.509718 0.343275 0.069121
H37   H     H_    0.665313 0.406172 0.995933 0.060645
H38   H     H_    0.771441 0.351277 0.082157 0.069159
H39   H     H_    0.415401 0.652864 0.919759 0.089141
H40   H     H_    0.246360 0.725631 0.257113 -0.049540
H41   H     H_    0.522599 0.596074 0.005192 0.079392
H42   H     H_    0.326734 0.033825 0.425758 0.143202
H43   H     H_    0.873598 0.957355 0.575904 0.102936
H44   H     H_    0.811766 0.265319 0.533766 0.048405
H45   H     H_    0.373285 0.725641 0.470583 0.072073
H46   H     H_    0.000848 0.657330 0.156675 -0.040756
H47   H     H_    0.931788 0.780994 0.190530 0.154156
H48   H     H_    0.175957 0.791966 0.582506 -0.047974
H49   H     H_    0.002158 0.767285 0.639000 0.060261
O1    O     O_2   0.873090 0.425890 0.325140 -0.472804
O2    O     O_3   0.691992 0.791895 0.651112 -0.581114
O3    O     O_3   0.104060 0.835042 0.307653 -0.553450
O4    O     O_2   0.316610 0.574140 0.674900 -0.464158
O5    O     O_3   0.067290 0.565720 0.585630 -0.499628
O6    O     O_3   0.530210 0.372990 0.631200 -0.442607
O7    O     O_3   0.225221 0.742312 0.678356 -0.616877
O8    O     O_3   0.611340 0.366290 0.463630 -0.485223
O9    O     O_3   0.108550 0.314140 0.595200 -0.502646
O10   O     O_2   0.206455 0.124950 0.558969 -0.469602
O11   O     O_3   0.092151 0.161320 0.688652 -0.534724
O12   O     O_3   0.122420 0.434370 0.414380 -0.503619
O13   O     O_3   0.578370 0.633800 0.536380 -0.500735
O14   O     O_2   0.341510 0.231850 0.465510 -0.465010
O15   O     O_3   0.511557 0.192291 0.346463 -0.609135
O16   O     O_2   0.422922 0.465272 0.754718 -0.516402
O17   O     O_3   0.464654 0.271752 0.756042 -0.580794
O18   O     O_3   0.659500 0.627100 0.368810 -0.474284
O19   O     O_2   0.776257 0.547762 0.242779 -0.522127
O20   O     O_3   0.992979 0.255829 0.318964 -0.597753
O21   O     O_3   0.680650 0.732659 0.244708 -0.595128
O22   O     O_2   0.848200 0.768190 0.534530 -0.503738
O23   O     O_3   0.081160 0.685950 0.404810 -0.490512
O24   O     O_2   0.995155 0.874727 0.439293 -0.498748
P1    P     P_3+3 0.041040 0.394770 0.336330 0.985231
P2    P     P_3+3 0.672880 0.754030 0.556100 0.995748
P3    P     P_3+3 0.130956 0.820345 0.399077 0.976116
P4    P     P_3+3 0.148670 0.605320 0.663680 1.000691
P5    P     P_3+3 0.066676 0.176737 0.597890 1.002735
P6    P     P_3+3 0.638539 0.608788 0.274155 0.944784
P7    P     P_3+3 0.523216 0.230505 0.441101 0.972338
P8    P     P_3+3 0.547411 0.391620 0.726606 0.961349
S1    S     S_3+6 0.059748 0.930003 0.760518 -0.067719
O25   O     O_2   0.038394 0.827787 0.791324 -0.324304
O26   O     O_2   0.160400 0.016414 0.814174 -0.304184
O27   O     O_3   0.874929 0.965006 0.746152 -0.497369
H50   H     H_    0.830441 0.980327 0.795089 0.353955
Br1   Br    Br    0.151347 0.067515 0.310312 -0.483268
S2    S     S_3+6 0.671073 0.931781 0.182247 -0.000384
O28   O     O_2   0.665030 0.832974 0.125869 -0.223349
O29   O     O_2   0.581923 0.009992 0.152258 -0.278334
O30   O     O_3   0.868088 0.987537 0.201025 -0.478511
H51   H     H_    0.906100 0.013331 0.155988 0.385490
S3    S     S_3+6 0.175536 0.808442 0.127725 -0.027987
O31   O     O_2   0.333509 0.763953 0.122612 -0.281270
O32   O     O_2   0.093601 0.791089 0.053260 -0.272730
O33   O     O_3   0.214834 0.940078 0.160510 -0.439389
H52   H     H_    0.245855 0.974811 0.117980 0.380234
Br2   Br    Br    0.583315 0.096405 0.688031 -0.617918

loop_
_geom_bond_atom_site_label_1
_geom_bond_atom_site_label_2
_ccdc_geom_bond_type
C6    H24   S    
Ba2   O6    S    
O10   P5    D    
C20   P4    S    
O6    P8    S    
C32   C35   A    
C49   O20   S    
Ba2   O4    S    
S3    O31   D    
Ba1   P1    S    
C17   C29   A    
O30   H51   S    
C5    C6    S    
C7    Br2   S    
C52   H11   S    
C1    H10   S    
C4    H18   S    
Ba2   O9    S    
C24   C25   A    
C27   C28   A    
O21   P6    S    
C10   C26   A    
C34   H49   S    
C40   H42   S    
C21   C27   A    
C5    O11   S    
C46   P7    S    
C1    H15   S    
C35   C36   A    
C22   C24   A    
C16   C17   A    
C28   H39   S    
Ba1   P2    S    
C50   H7    S    
C38   H44   S    
C36   C37   A    
C45   S1    S    
O23   P3    S    
C38   C47   A    
C9    C22   A    
C15   C18   A    
C2    O21   S    
C34   C45   S    
C34   H48   S    
C32   C33   A    
C40   C44   A    
Ba2   O5    S    
C38   C46   A    
O5    P4    S    
C50   H6    S    
C9    C13   A    
C24   C32   A    
O13   P2    S    
C25   C37   A    
C14   C15   A    
C27   H34   S    
C6    H25   S    
C39   H45   S    
Ba1   O13   S    
C7    C8    S    
O15   P7    S    
C18   P8    S    
C19   C20   A    
C11   H37   S    
C14   H32   S    
C39   C41   A    
S2    O30   S    
C1    S2    S    
Ba2   O13   S    
C12   H29   S    
S1    O27   S    
O14   P7    D    
C31   H41   S    
Ba2   O14   S    
C4    H20   S    
C44   C46   A    
C47   P5    S    
C19   H31   S    
Ba2   O8    S    
Ba2   P4    S    
C49   C50   S    
S3    O33   S    
Ba1   O23   S    
O4    P4    D    
C2    H14   S    
C5    H21   S    
C52   H13   S    
C42   P2    S    
C43   C44   A    
C8    H28   S    
O16   P8    D    
O12   P1    S    
C16   C21   A    
C7    H26   S    
C13   C17   A    
C22   C30   A    
O19   P6    D    
C3    H16   S    
C51   O2    S    
C45   H3    S    
Ba2   O12   S    
C23   H46   S    
C29   C30   A    
O1    P1    D    
C28   C29   A    
O27   H50   S    
C26   H33   S    
C15   C16   A    
O7    P4    S    
C23   S3    S    
C49   H4    S    
O9    P5    S    
Ba1   O1    S    
C33   H35   S    
S1    O26   D    
C11   C13   A    
C2    H1    S    
C34   O7    S    
C6    H23   S    
C39   C42   A    
C35   P6    S    
C49   H5    S    
C40   C41   A    
C1    C2    S    
C42   C43   A    
C4    H19   S    
O3    P3    S    
C48   H43   S    
C37   P1    S    
S3    O32   D    
S2    O28   D    
O11   P5    S    
C10   H38   S    
C41   P3    S    
Ba1   O22   S    
S1    O25   D    
O2    P2    S    
C9    C10   A    
O8    P7    S    
C51   C52   S    
C5    H22   S    
C52   H12   S    
C36   H36   S    
C8    H27   S    
C50   Br1   S    
O33   H52   S    
C3    O15   S    
O17   P8    S    
C30   C31   A    
O24   P3    D    
C3    H17   S    
Ba1   O8    S    
C51   H9    S    
C23   H47   S    
O20   P1    S    
C3    C4    S    
C43   C48   A    
Ba1   Ba2   S    
C8    H30   S    
C31   C33   A    
S2    O29   D    
C12   C23   S    
Ba1   O18   S    
Ba1   O5    S    
O22   P2    D    
C12   O3    S    
C18   C19   A    
C51   H8    S    
C47   C48   A    
C11   C14   A    
C25   C26   A    
C7    O17   S    
C20   C21   A    
Ba1   O12   S    
O18   P6    S    
C12   H40   S    
C45   H2    S    
