data_mof_unit_1568.cif
_audit_creation_date              2013-03-05T16:18:22-0500
_audit_creation_method            fapswitch 2.2
_symmetry_space_group_name_H-M    P1
_symmetry_Int_Tables_number       1
_space_group_crystal_system       triclinic
_cell_length_a                    10.640949
_cell_length_b                    9.709131
_cell_length_c                    10.530255
_cell_angle_alpha                 89.501387
_cell_angle_beta                  89.90777
_cell_angle_gamma                 90.049686
_cell_volume                      1087.88361088

loop_
_atom_site_label
_atom_site_type_symbol
_atom_site_description
_atom_site_fract_x
_atom_site_fract_y
_atom_site_fract_z
_atom_type_partial_charge
O1    O     O_R   0.314910 0.616040 0.499970 -0.629869
O2    O     O_R   0.314910 0.383960 0.499970 -0.603898
C1    C     C_R   0.257635 0.500198 0.498999 0.887508
O3    O     O_R   0.500080 0.616020 0.313900 -0.628464
O4    O     O_R   0.500080 0.383980 0.313900 -0.632462
C2    C     C_R   0.497325 0.500629 0.257540 0.977002
Zn1   Zn    Zn3+2 0.500150 0.654960 0.499940 0.940916
Zn2   Zn    Zn3+2 0.500150 0.345040 0.499940 0.948533
O5    O     O_R   0.685320 0.616040 0.499930 -0.628669
O6    O     O_R   0.685320 0.383960 0.499930 -0.633446
O7    O     O_R   0.500150 0.616060 0.686000 -0.619970
O8    O     O_R   0.500150 0.383940 0.686000 -0.607209
C3    C     C_R   0.742491 0.500299 0.498612 0.927690
C4    C     C_R   0.503353 0.499453 0.742469 0.966136
C5    C     C_3   0.455472 0.624333 0.039220 -0.214964
C6    C     C_3   0.423355 0.397819 0.042654 -0.248250
C7    C     C_3   0.382894 0.519982 0.955226 -0.248343
H1    H     H_    0.287910 0.535532 0.914025 0.171821
H2    H     H_    0.419818 0.724567 0.074177 0.191872
H3    H     H_    0.361637 0.314829 0.080611 0.176962
C8    C     C_3   0.503704 0.498636 0.876919 -0.248673
C9    C     C_3   0.574823 0.600456 0.959894 0.260120
C10   C     C_3   0.543662 0.379653 0.963476 0.284237
C11   C     C_3   0.615453 0.481303 0.045069 0.319188
C12   C     C_3   0.496724 0.501953 0.123405 -0.127082
C13   C     C_3   0.071374 0.651427 0.480052 0.212606
C14   C     C_3   0.071322 0.442959 0.627557 0.189894
H4    H     H_    0.106288 0.716512 0.559630 0.085931
H5    H     H_    0.102498 0.513251 0.704847 0.071114
C15   C     C_3   0.928149 0.651093 0.484004 -0.442943
C16   C     C_3   0.926680 0.438898 0.624705 -0.423999
H6    H     H_    0.896125 0.714419 0.565661 0.177619
H7    H     H_    0.888924 0.497788 0.706435 0.191719
H8    H     H_    0.889694 0.699563 0.395955 0.216918
H9    H     H_    0.892481 0.330933 0.635451 0.231666
H10   H     H_    0.109959 0.448432 0.295295 0.194430
H11   H     H_    0.103648 0.302242 0.399966 0.199141
H12   H     H_    0.895751 0.460998 0.294044 0.231052
H13   H     H_    0.890933 0.307663 0.390591 0.187519
C17   C     C_3   0.071999 0.410814 0.387873 -0.350841
C18   C     C_3   0.121060 0.500961 0.498339 0.113289
C19   C     C_3   0.878645 0.501246 0.498109 0.029382
C20   C     C_3   0.927941 0.414861 0.385388 -0.377864
C21   C     C_3   0.373533 0.081378 0.467764 -0.257315
C22   C     C_3   0.373672 0.919020 0.467277 -0.246715
H14   H     H_    0.341365 0.121241 0.373924 0.155508
H15   H     H_    0.342328 0.881585 0.372928 0.179513
H16   H     H_    0.304038 0.117903 0.538901 0.197903
H17   H     H_    0.303784 0.880482 0.537742 0.157739
H18   H     H_    0.562477 0.120705 0.305005 0.190834
H19   H     H_    0.563727 0.882108 0.305427 0.183922
C23   C     C_3   0.588269 0.082218 0.401266 -0.228670
C24   C     C_3   0.588652 0.919658 0.401648 -0.233759
C25   C     C_3   0.537686 0.079959 0.622200 -0.184076
C26   C     C_3   0.537181 0.917788 0.622456 -0.191143
N1    N     N_3   0.499750 0.138610 0.497240 -0.071051
N2    N     N_3   0.499750 0.861390 0.497240 -0.067090
H20   H     H_    0.633024 0.117856 0.647213 0.200472
H21   H     H_    0.631964 0.878622 0.648707 0.198998
H22   H     H_    0.472770 0.117180 0.697236 0.200725
H23   H     H_    0.471514 0.879975 0.697311 0.184552
H24   H     H_    0.684916 0.120688 0.419910 0.155029
H25   H     H_    0.685341 0.881694 0.421244 0.153514
N3    N     N_R   0.658154 0.708283 0.912329 0.217838
O9    O     O_R   0.636120 0.836516 0.938952 -0.346421
O10   O     O_R   0.755206 0.676675 0.843388 -0.447183
N4    N     N_R   0.594884 0.248730 0.921549 0.220518
O11   O     O_R   0.538999 0.134034 0.952279 -0.381293
O12   O     O_R   0.700902 0.245711 0.860056 -0.422789
O13   O     O_3   0.735022 0.461598 0.096899 -0.768402
H26   H     H_    0.792605 0.454502 0.023204 0.368680
O14   O     O_3   0.113401 0.707056 0.363520 -0.753471
H27   H     H_    0.102089 0.808385 0.368432 0.330284
O15   O     O_3   0.118608 0.309937 0.651412 -0.760194
H28   H     H_    0.105953 0.290953 0.743356 0.346222

loop_
_geom_bond_atom_site_label_1
_geom_bond_atom_site_label_2
_geom_bond_distance
_ccdc_geom_bond_type
H19   C24   1.112218 S    
C16   C19   1.547102 S    
C26   H21   1.112651 S    
C14   H5    1.117314 S    
C13   O14   1.408475 S    
Zn2   N1    2.004707 S    
C11   O13   1.397906 S    
C25   H22   1.111643 S    
C21   C22   1.576410 S    
C5    H2    1.110389 S    
C22   N2    1.487310 S    
C4    C8    1.415756 S    
C5    C9    1.537823 S    
H11   C17   1.113227 S    
O4    C2    1.274431 A    
O7    C4    1.274734 A    
C5    C12   1.540845 S    
C2    C12   1.412454 S    
C5    C7    1.556170 S    
C10   N4    1.455334 S    
C14   C18   1.559673 S    
O5    C3    1.278486 A    
C17   C20   1.533715 S    
C6    C7    1.556573 S    
H18   C23   1.112182 S    
C10   C11   1.520328 S    
C16   H7    1.112150 S    
O13   H26   0.990902 S    
C14   O15   1.407199 S    
C6    H3    1.110385 S    
C8    C9    1.526212 S    
O3    Zn1   1.998426 S    
C3    C19   1.448831 S    
C21   H14   1.112694 S    
C22   H15   1.112457 S    
C25   N1    1.485860 S    
O15   H28   0.992945 S    
C15   H8    1.114687 S    
C14   C16   1.539943 S    
N4    O11   1.300156 A    
H10   C17   1.113199 S    
C11   C12   1.522091 S    
O3    C2    1.272727 A    
C24   N2    1.488066 S    
H13   C20   1.113357 S    
C7    C8    1.541273 S    
O1    C1    1.278900 A    
N3    O10   1.299894 A    
Zn1   O7    1.992101 S    
C21   N1    1.487277 S    
C22   H17   1.112004 S    
Zn2   O8    1.998556 S    
C7    H1    1.110458 S    
C17   C18   1.552602 S    
O8    C4    1.274437 A    
C13   C15   1.524548 S    
C6    C10   1.537743 S    
C26   N2    1.486924 S    
C9    C11   1.521108 S    
C19   C20   1.550364 S    
C23   C24   1.578291 S    
C25   H20   1.111689 S    
C6    C12   1.539650 S    
Zn1   O5    2.006613 S    
C25   C26   1.574523 S    
C1    C18   1.453338 S    
O1    Zn1   2.006701 S    
O2    Zn2   2.007345 S    
O14   H27   0.993046 S    
O6    C3    1.282453 A    
O4    Zn2   1.991965 S    
C13   H4    1.117749 S    
N3    O9    1.300013 A    
C8    C10   1.526388 S    
O2    C1    1.283054 A    
H12   C20   1.112215 S    
C23   H24   1.112178 S    
C15   H6    1.114520 S    
C24   H25   1.112211 S    
C26   H23   1.112258 S    
C16   H9    1.114084 S    
C9    N3    1.456367 S    
C23   N1    1.488569 S    
Zn2   O6    2.005969 S    
C15   C19   1.552703 S    
N4    O12   1.300348 A    
Zn1   N2    2.004219 S    
C21   H16   1.112231 S    
C13   C18   1.564480 S    
