data_mof_unit_469.cif
_audit_creation_date              2012-10-26T19:52:44-0400
_audit_creation_method            fapswitch 2.2
_symmetry_space_group_name_H-M    P1
_symmetry_Int_Tables_number       1
_space_group_crystal_system       triclinic
_cell_length_a                    15.08949
_cell_length_b                    10.825706
_cell_length_c                    9.578734
_cell_angle_alpha                 89.937684
_cell_angle_beta                  89.565249
_cell_angle_gamma                 91.125919
_cell_volume                      1564.37983505

loop_
_atom_site_label
_atom_site_type_symbol
_atom_type_description
_atom_site_fract_x
_atom_site_fract_y
_atom_site_fract_z
_atom_type_partial_charge
Br1   Br    Br    0.365904 0.306387 0.837083 -0.571355
C1    C     C_R   0.498935 0.262421 0.500020 0.586391
C2    C     C_R   0.184558 0.480904 0.625952 -0.121006
C3    C     C_R   0.231846 0.500036 0.500838 -0.007996
C4    C     C_R   0.328708 0.500013 0.500398 0.564631
C5    C     C_R   0.186367 0.518840 0.375576 -0.134739
C6    C     C_R   0.492268 0.063150 0.625363 0.086441
C7    C     C_R   0.491651 0.129014 0.499978 0.025270
C8    C     C_R   0.480009 0.063810 0.374360 -0.166645
C9    C     C_R   0.479729 0.935093 0.374331 -0.162822
C10   C     C_R   0.491424 0.870413 0.499952 0.002492
C11   C     C_R   0.491910 0.935919 0.625356 0.005360
C12   C     C_R   0.908407 0.519096 0.374478 0.013281
C13   C     C_3   0.553639 0.929146 0.746377 -0.266012
C14   C     C_3   0.554209 0.070050 0.746969 -0.028498
C15   C     C_R   0.546488 0.588379 0.072615 0.121736
C16   C     C_R   0.498997 0.737499 0.499944 0.541131
C17   C     C_R   0.445363 0.422309 0.076655 0.212071
C18   C     C_R   0.445276 0.421770 0.927446 0.244116
C19   C     C_R   0.546157 0.588839 0.925628 0.122164
C20   C     C_3   0.643374 0.614300 0.918301 -0.275593
C21   C     C_3   0.643886 0.611897 0.076342 -0.281165
C22   C     C_R   0.671402 0.499290 0.499675 0.543925
C23   C     C_R   0.952040 0.455169 0.749919 -0.133369
C24   C     C_R   0.816126 0.520104 0.375581 -0.138127
C25   C     C_R   0.768483 0.497634 0.499509 -0.010693
C26   C     C_R   0.813974 0.473855 0.623652 -0.133904
C27   C     C_R   0.906356 0.475323 0.625274 0.011731
C28   C     C_R   0.953806 0.497563 0.500035 0.062341
C29   C     C_R   0.044490 0.457536 0.750606 -0.126856
C30   C     C_R   0.092169 0.478878 0.626400 0.011122
C31   C     C_R   0.046715 0.498375 0.500333 0.061920
C32   C     C_R   0.094063 0.518883 0.374571 0.013083
C33   C     C_R   0.048354 0.539154 0.250007 -0.129556
C34   C     C_R   0.955976 0.539778 0.250066 -0.132635
Cu1   Cu    Cu3+1 0.500000 0.499980 0.640670 1.011868
Cu2   Cu    Cu3+1 0.500000 0.500020 0.359330 0.972549
H1    H     H_    0.781805 0.539519 0.280042 0.112305
H2    H     H_    0.661505 0.702541 0.124089 0.126959
H3    H     H_    0.916295 0.438304 0.846866 0.105149
H4    H     H_    0.078678 0.442371 0.848059 0.117251
H5    H     H_    0.219429 0.466727 0.722916 0.167611
H6    H     H_    0.222688 0.534352 0.278814 0.130434
H7    H     H_    0.084027 0.554917 0.152776 0.109740
H8    H     H_    0.921744 0.556109 0.152899 0.104414
H9    H     H_    0.475332 0.111534 0.275552 0.139592
H10   H     H_    0.667364 0.082708 0.622893 0.233650
H11   H     H_    0.683421 0.110338 0.793876 0.227375
H12   H     H_    0.474453 0.887024 0.275531 0.140141
H13   H     H_    0.322443 0.359312 0.128512 0.233256
H14   H     H_    0.401160 0.249533 0.123734 0.226323
H15   H     H_    0.520695 0.888065 0.840163 0.127780
H16   H     H_    0.618100 0.887507 0.717870 0.129602
H17   H     H_    0.523681 0.111140 0.841739 0.180357
H18   H     H_    0.680409 0.536807 0.872282 0.149066
H19   H     H_    0.659546 0.706870 0.873739 0.120049
H20   H     H_    0.679510 0.531129 0.117207 0.144012
H21   H     H_    0.777779 0.453410 0.718992 0.120065
N1    N     N_R   0.500570 0.500930 0.147930 -0.221660
N2    N     N_R   0.500570 0.500890 0.852020 -0.230672
N3    N     N_3   0.640570 0.126119 0.710771 -0.619834
N4    N     N_3   0.388014 0.340094 0.153868 -0.547650
O1    O     O_R   0.500000 0.319640 0.618810 -0.435814
O2    O     O_R   0.500010 0.319680 0.381230 -0.490536
O3    O     O_R   0.370250 0.499950 0.618800 -0.468932
O4    O     O_R   0.370260 0.499990 0.381220 -0.485872
O5    O     O_R   0.499990 0.680320 0.618770 -0.502336
O6    O     O_R   0.500000 0.680360 0.381190 -0.512325
O7    O     O_R   0.629740 0.500010 0.618780 -0.509248
O8    O     O_R   0.629750 0.500050 0.381200 -0.512901

loop_
_geom_bond_atom_site_label_1
_geom_bond_atom_site_label_2
_ccdc_geom_bond_type
H10   N3    S    
C20   H19   S    
C15   C21   S    
C10   C11   A    
Cu2   O6    S    
C29   H4    S    
C18   N2    A    
C19   N2    A    
Cu1   O1    S    
C8    C9    A    
C22   O7    A    
C30   C31   A    
C13   C14   S    
C5    C32   A    
C29   C30   A    
C15   C19   A    
C31   C32   A    
C13   H16   S    
C21   H20   S    
C6    C14   S    
C32   C33   A    
C14   N3    S    
Cu1   O5    S    
C8    H9    S    
C2    H5    S    
C24   C25   A    
Cu2   O8    S    
Cu2   O4    S    
C2    C30   A    
C22   O8    A    
C12   C24   A    
C25   C26   A    
Cu2   N1    S    
H14   N4    S    
C4    O4    A    
C21   H2    S    
C3    C5    A    
C27   C28   A    
C23   H3    S    
C11   C13   S    
C12   C34   A    
C28   C31   A    
C5    H6    S    
C6    C11   A    
H13   N4    S    
C23   C29   A    
C16   O5    A    
Br1   C18   S    
C9    C10   A    
C13   H15   S    
C2    C3    A    
C34   H8    S    
C14   H17   S    
C24   H1    S    
C17   N1    A    
C6    C7    A    
Cu2   O2    S    
C33   H7    S    
Cu1   O7    S    
C7    C8    A    
C4    O3    A    
C33   C34   A    
C22   C25   S    
H11   N3    S    
C26   C27   A    
C20   H18   S    
C17   C18   A    
Cu1   O3    S    
Cu1   Cu2   S    
C16   O6    A    
C17   N4    S    
C1    O1    A    
C19   C20   S    
C20   C21   S    
C9    H12   S    
C15   N1    A    
C1    C7    S    
C23   C27   A    
C12   C28   A    
C1    O2    A    
C3    C4    S    
Cu1   N2    S    
C26   H21   S    
C10   C16   S    
