data_mof_unit_2125.cif
_audit_creation_date              2012-12-10T17:56:43-0500
_audit_creation_method            fapswitch 2.2
_symmetry_space_group_name_H-M    P1
_symmetry_Int_Tables_number       1
_space_group_crystal_system       triclinic
_cell_length_a                    10.784607
_cell_length_b                    9.590663
_cell_length_c                    10.86637
_cell_angle_alpha                 88.253204
_cell_angle_beta                  92.902635
_cell_angle_gamma                 89.721752
_cell_volume                      1121.93864654

loop_
_atom_site_label
_atom_site_type_symbol
_atom_type_description
_atom_site_fract_x
_atom_site_fract_y
_atom_site_fract_z
_atom_type_partial_charge
C1    C     C_R   0.262437 0.499848 0.501256 0.770879
C2    C     C_R   0.737698 0.499546 0.501151 0.781183
C3    C     C_R   0.938760 0.599863 0.567450 -0.187054
C4    C     C_R   0.067262 0.598493 0.569358 -0.174837
C5    C     C_R   0.415991 0.079419 0.428466 -0.043244
C6    C     C_R   0.583969 0.073585 0.571764 -0.046870
C7    C     C_R   0.413456 0.931728 0.428360 0.161794
C8    C     C_R   0.583266 0.925625 0.575996 0.196993
C9    C     C_R   0.501490 0.503143 0.261618 0.794826
C10   C     C_R   0.491275 0.498080 0.736534 0.786593
C11   C     C_R   0.443448 0.765041 0.097605 -0.201753
C12   C     C_R   0.351857 0.711654 0.860488 -0.165120
C13   C     C_R   0.379840 0.869104 0.026645 -0.166043
C14   C     C_R   0.327231 0.839433 0.911351 -0.161934
C15   C     C_R   0.427314 0.610907 0.926606 0.110845
C16   C     C_R   0.457125 0.628811 0.052952 0.108172
C17   C     C_R   0.501115 0.510265 0.125998 -0.120779
C18   C     C_R   0.476872 0.494825 0.869110 -0.117092
C19   C     C_R   0.534458 0.388270 0.067348 -0.212998
C20   C     C_R   0.527613 0.382875 0.940149 -0.219474
C21   C     C_R   0.061828 0.394575 0.441856 -0.191236
C22   C     C_R   0.933372 0.394237 0.441970 -0.183965
C23   C     C_R   0.871714 0.498271 0.503137 -0.011321
C24   C     C_R   0.128709 0.498200 0.503879 -0.011151
Cu1   Cu    Cu3+1 0.500000 0.640660 0.500000 0.914991
Cu2   Cu    Cu3+1 0.500000 0.359340 0.500000 0.930049
H1    H     H_    0.370994 0.973171 0.061090 0.131301
H2    H     H_    0.273639 0.918197 0.858355 0.135928
H3    H     H_    0.108776 0.315489 0.391971 0.135056
H4    H     H_    0.882191 0.314764 0.392442 0.143345
H5    H     H_    0.892125 0.678298 0.617918 0.129293
H6    H     H_    0.118476 0.674480 0.622776 0.121972
N1    N     N_R   0.500000 0.852070 0.500000 -0.185266
N2    N     N_R   0.500000 0.147940 0.500000 -0.185528
O1    O     O_R   0.319640 0.618740 0.499990 -0.596060
O2    O     O_R   0.680360 0.618740 0.500010 -0.600789
O3    O     O_R   0.319620 0.381170 0.499990 -0.582808
O4    O     O_R   0.680380 0.381170 0.500010 -0.582932
O5    O     O_R   0.500000 0.618810 0.319650 -0.608970
O6    O     O_R   0.500000 0.618810 0.680350 -0.593543
O7    O     O_R   0.499970 0.381240 0.319640 -0.578209
O8    O     O_R   0.500030 0.381240 0.680360 -0.579303
H7    H     H_    0.570229 0.297691 0.119941 0.163000
H8    H     H_    0.563710 0.291593 0.897315 0.157536
H9    H     H_    0.487273 0.797342 0.182861 0.169089
H10   H     H_    0.313162 0.693286 0.768667 0.144230
H11   H     H_    0.349454 0.140309 0.371105 0.129539
H12   H     H_    0.651205 0.130149 0.627866 0.130627
C25   C     C_3   0.309696 0.871820 0.348020 -0.387298
C26   C     C_3   0.182823 0.895096 0.402217 -0.361090
C27   C     C_3   0.078808 0.829831 0.323090 -0.813715
H13   H     H_    0.072614 0.880791 0.229795 0.245885
H14   H     H_    0.095936 0.716495 0.313933 0.261958
H15   H     H_    0.988870 0.844141 0.366667 0.244389
H16   H     H_    0.183605 0.850284 0.497300 0.232325
H17   H     H_    0.163126 0.008590 0.407219 0.199227
H18   H     H_    0.307720 0.927526 0.257243 0.157631
H19   H     H_    0.323497 0.761682 0.328381 0.257448
C28   C     C_3   0.676863 0.858370 0.668993 -0.398866
C29   C     C_3   0.653053 0.898895 0.801682 -0.382178
C30   C     C_3   0.730431 0.810032 0.896281 -0.824892
H20   H     H_    0.705442 0.698198 0.889155 0.256266
H21   H     H_    0.830933 0.822661 0.881209 0.245842
H22   H     H_    0.712013 0.843479 0.990630 0.246984
H23   H     H_    0.676319 0.010227 0.815386 0.202119
H24   H     H_    0.553610 0.884789 0.818922 0.255759
H25   H     H_    0.677969 0.745192 0.667899 0.265740
H26   H     H_    0.771469 0.892906 0.646148 0.157501

loop_
_geom_bond_atom_site_label_1
_geom_bond_atom_site_label_2
_ccdc_geom_bond_type
C30   H22   S    
Cu2   O3    S    
C21   H3    S    
C25   H19   S    
Cu2   O4    S    
C28   H26   S    
C15   C18   A    
C11   C13   A    
C11   C16   A    
C2    O4    A    
C9    O7    A    
C26   H16   S    
C12   C15   A    
C1    O3    A    
C27   H15   S    
C28   H25   S    
C5    N2    A    
Cu1   N1    S    
C30   H21   S    
C26   C27   S    
C29   H24   S    
C28   C29   S    
C8    C28   S    
C21   C22   A    
Cu1   O5    S    
C3    H5    S    
C5    H11   S    
C7    C25   S    
C4    H6    S    
C6    H12   S    
Cu1   O1    S    
C9    C17   S    
C20   H8    S    
C10   C18   S    
C29   H23   S    
C18   C20   A    
C8    N1    A    
Cu1   O6    S    
C30   H20   S    
C4    C24   A    
C11   H9    S    
C10   O8    A    
C15   C16   A    
C7    N1    A    
Cu1   O2    S    
C17   C19   A    
C27   H13   S    
C16   C17   A    
C6    N2    A    
C9    O5    A    
C25   H18   S    
Cu2   O8    S    
C1    C24   S    
C12   H10   S    
C25   C26   S    
C21   C24   A    
C2    O2    A    
C2    C23   S    
C5    C7    A    
C1    O1    A    
C22   C23   A    
C13   H1    S    
C10   O6    A    
C6    C8    A    
C22   H4    S    
C14   H2    S    
Cu1   Cu2   S    
C13   C14   A    
C3    C23   A    
Cu2   N2    S    
C26   H17   S    
C3    C4    A    
C19   C20   A    
Cu2   O7    S    
C12   C14   A    
C29   C30   S    
C27   H14   S    
C19   H7    S    
