data_mof_unit_251.cif
_audit_creation_date              2012-10-26T21:21:56-0400
_audit_creation_method            fapswitch 2.2
_symmetry_space_group_name_H-M    P1
_symmetry_Int_Tables_number       1
_space_group_crystal_system       triclinic
_cell_length_a                    18.444881
_cell_length_b                    18.499506
_cell_length_c                    11.702504
_cell_angle_alpha                 90.103124
_cell_angle_beta                  76.238607
_cell_angle_gamma                 89.931874
_cell_volume                      3878.50664772

loop_
_atom_site_label
_atom_site_type_symbol
_atom_type_description
_atom_site_fract_x
_atom_site_fract_y
_atom_site_fract_z
_atom_type_partial_charge
C1    C     C_R   0.398570 0.098965 0.521338 0.581771
C2    C     C_R   0.463946 0.000246 0.038651 -0.041112
C3    C     C_R   0.034913 0.501633 0.961041 -0.010508
C4    C     C_R   0.963736 0.503182 0.038611 -0.007548
C5    C     C_R   0.410601 0.999303 0.865637 0.295442
C6    C     C_R   0.589343 0.999156 0.134007 0.266041
C7    C     C_R   0.910421 0.501609 0.865770 0.264910
C8    C     C_R   0.089332 0.495244 0.130790 0.255518
C9    C     C_R   0.400787 0.999528 0.989496 0.056162
C10   C     C_R   0.598688 0.999607 0.009710 0.058445
C11   C     C_R   0.900690 0.503804 0.990299 0.056661
C12   C     C_R   0.601953 0.901460 0.478637 0.544390
C13   C     C_R   0.097843 0.498515 0.007852 0.097906
C14   C     C_R   0.541988 0.001137 0.838136 0.025449
C15   C     C_R   0.457787 0.000802 0.162234 -0.002721
C16   C     C_R   0.041744 0.501347 0.837809 0.038491
C17   C     C_R   0.957662 0.503581 0.162471 0.031841
C18   C     C_R   0.660283 0.152566 0.467983 -0.000806
C19   C     C_R   0.338254 0.847785 0.530451 -0.010256
C20   C     C_R   0.344225 0.157071 0.531937 0.000461
C21   C     C_R   0.657232 0.844017 0.467676 -0.006664
C22   C     C_R   0.150943 0.661810 0.469347 -0.029300
C23   C     C_R   0.600764 0.099582 0.478999 0.571813
C24   C     C_R   0.840909 0.346155 0.531792 -0.004262
C25   C     C_R   0.844195 0.657024 0.531787 -0.001536
C26   C     C_R   0.156834 0.343692 0.467931 -0.008685
C27   C     C_R   0.255731 0.761832 0.652364 0.079721
C28   C     C_R   0.784929 0.188342 0.368630 0.100668
C29   C     C_R   0.704138 0.730878 0.376037 0.086903
C30   C     C_R   0.299826 0.271439 0.620196 0.099027
C31   C     C_R   0.716509 0.309406 0.632084 0.086172
C32   C     C_R   0.239839 0.739740 0.342043 0.105297
C33   C     C_R   0.202326 0.229590 0.378514 0.090077
C34   C     C_R   0.397372 0.901871 0.520867 0.555669
C35   C     C_R   0.799126 0.770899 0.621313 0.100562
C36   C     C_R   0.312816 0.812364 0.637666 -0.159880
C37   C     C_R   0.723428 0.144313 0.377243 -0.128364
C38   C     C_R   0.657624 0.790500 0.384473 -0.148599
C39   C     C_R   0.344459 0.210934 0.614214 -0.125653
C40   C     C_R   0.777404 0.354850 0.621800 -0.145298
C41   C     C_R   0.189833 0.682991 0.357280 -0.125113
C42   C     C_R   0.156117 0.289427 0.386401 -0.155087
C43   C     C_R   0.843786 0.710409 0.615096 -0.131676
C44   C     C_R   0.308179 0.829817 0.433159 0.086539
C45   C     C_R   0.898506 0.598902 0.521324 0.577320
C46   C     C_R   0.655531 0.207579 0.551720 0.092453
C47   C     C_R   0.707020 0.841156 0.541884 0.082762
C48   C     C_R   0.296090 0.160394 0.455902 0.097645
C49   C     C_R   0.846519 0.289116 0.450539 0.084134
C50   C     C_R   0.162809 0.697855 0.569708 0.113709
C51   C     C_R   0.207214 0.341244 0.541188 0.083542
C52   C     C_R   0.796780 0.660898 0.454634 0.092715
C53   C     C_R   0.257871 0.771926 0.442452 0.047259
C54   C     C_R   0.717842 0.253678 0.547456 0.047792
C55   C     C_R   0.752744 0.779378 0.540151 0.048949
C56   C     C_R   0.101842 0.401362 0.478676 0.540494
C57   C     C_R   0.250249 0.222333 0.457039 0.049773
C58   C     C_R   0.784192 0.243405 0.454777 0.049768
C59   C     C_R   0.224856 0.744101 0.556255 0.049316
C60   C     C_R   0.252740 0.279371 0.539950 0.048177
C61   C     C_R   0.751120 0.722957 0.455817 0.047312
C62   C     C_R   0.098456 0.601822 0.479636 0.542691
C63   C     C_R   0.899813 0.399836 0.520796 0.555230
C64   C     C_R   0.535450 0.000378 0.961699 0.005038
Cu1   Cu    Cu3+1 0.507800 1.000000 0.383250 0.972501
Cu2   Cu    Cu3+1 0.492200 1.000000 0.616750 0.975072
Cu3   Cu    Cu3+1 0.007800 0.500000 0.383250 0.937194
Cu4   Cu    Cu3+1 0.992200 0.500000 0.616750 0.974577
H1    H     H_    0.403700 0.001983 0.222982 0.137384
H2    H     H_    0.774129 0.398782 0.684197 0.133361
H3    H     H_    0.880334 0.706010 0.675001 0.149911
H4    H     H_    0.117912 0.292653 0.328969 0.125796
H5    H     H_    0.683904 0.951076 0.155247 0.208088
H6    H     H_    0.686266 0.042810 0.153233 0.204670
H7    H     H_    0.315185 0.952710 0.846255 0.223079
H8    H     H_    0.314328 0.044318 0.846446 0.231455
H9    H     H_    0.162807 0.517448 0.234705 0.271780
H10   H     H_    0.157384 0.427626 0.195017 0.248114
H11   H     H_    0.813708 0.456848 0.847819 0.196051
H12   H     H_    0.596335 0.003016 0.777913 0.161401
H13   H     H_    0.815887 0.548545 0.841997 0.208696
H14   H     H_    0.593098 0.205800 0.721420 0.272963
H15   H     H_    0.563592 0.267230 0.629982 0.258560
H16   H     H_    0.376907 0.866457 0.280466 0.250434
H17   H     H_    0.310891 0.927978 0.352787 0.251646
H18   H     H_    0.240186 0.077411 0.399154 0.256491
H19   H     H_    0.313512 0.113566 0.293606 0.260106
H20   H     H_    0.666163 0.904354 0.685068 0.253952
H21   H     H_    0.717896 0.949771 0.565613 0.240252
H22   H     H_    0.109853 0.739662 0.730023 0.238582
H23   H     H_    0.903382 0.505390 0.223107 0.181762
H24   H     H_    0.055415 0.696687 0.664553 0.220151
H25   H     H_    0.959455 0.274368 0.412316 0.233598
H26   H     H_    0.926724 0.316796 0.304760 0.257714
H27   H     H_    0.740791 0.578597 0.396286 0.259164
H28   H     H_    0.815035 0.614127 0.291783 0.276112
H29   H     H_    0.167430 0.405529 0.683340 0.253460
H30   H     H_    0.218776 0.449988 0.562554 0.243513
H31   H     H_    0.634780 0.374546 0.723739 0.233377
H32   H     H_    0.671765 0.317088 0.807184 0.233932
H33   H     H_    0.258864 0.808530 0.201984 0.268010
H34   H     H_    0.096057 0.502122 0.777417 0.170909
H35   H     H_    0.333962 0.755032 0.211708 0.247154
H36   H     H_    0.212368 0.202228 0.207930 0.236819
H37   H     H_    0.144118 0.157883 0.304730 0.235399
H38   H     H_    0.825353 0.870215 0.676408 0.274094
H39   H     H_    0.749742 0.828122 0.768711 0.255931
H40   H     H_    0.217578 0.761386 0.829312 0.226702
H41   H     H_    0.282091 0.697202 0.775893 0.237321
H42   H     H_    0.857959 0.221581 0.218361 0.258930
H43   H     H_    0.892428 0.156835 0.298486 0.270417
H44   H     H_    0.716202 0.705400 0.204255 0.233927
H45   H     H_    0.726006 0.101355 0.313356 0.154081
H46   H     H_    0.647541 0.659796 0.298243 0.231899
H47   H     H_    0.326803 0.371084 0.672982 0.274113
H48   H     H_    0.251456 0.329667 0.766985 0.256522
H49   H     H_    0.320299 0.952757 0.116168 0.238648
H50   H     H_    0.318403 0.044767 0.115351 0.234454
H51   H     H_    0.699999 0.952378 0.949229 0.230223
H52   H     H_    0.701096 0.044287 0.949421 0.235950
H53   H     H_    0.797847 0.460446 0.052179 0.230495
H54   H     H_    0.799844 0.552288 0.048027 0.233277
H55   H     H_    0.196404 0.446923 0.944435 0.245124
H56   H     H_    0.337026 0.824009 0.711479 0.137183
H57   H     H_    0.202526 0.538312 0.950913 0.261518
H58   H     H_    0.381560 0.206936 0.673320 0.162852
H59   H     H_    0.620095 0.794145 0.326017 0.131032
H60   H     H_    0.180384 0.656266 0.279597 0.162616
N1    N     N_R   0.519530 0.000000 0.207810 -0.216533
N2    N     N_3   0.322131 0.873824 0.329380 -0.665280
N3    N     N_3   0.294086 0.098858 0.381689 -0.622798
N4    N     N_3   0.713168 0.902171 0.614923 -0.650335
N5    N     N_3   0.108552 0.692604 0.681112 -0.546930
N6    N     N_3   0.916488 0.275913 0.367958 -0.660694
N7    N     N_3   0.794862 0.599578 0.379850 -0.603847
N8    N     N_3   0.214126 0.402755 0.612752 -0.649083
N9    N     N_3   0.653828 0.321680 0.729176 -0.661944
N10   N     N_3   0.276080 0.757439 0.222879 -0.632620
N11   N     N_3   0.198941 0.176881 0.290073 -0.662725
N12   N     N_R   0.480470 0.000000 0.792190 -0.235328
N13   N     N_3   0.802712 0.821356 0.712955 -0.632851
N14   N     N_3   0.234796 0.723541 0.761768 -0.601423
N15   N     N_3   0.846153 0.174933 0.269617 -0.631544
N16   N     N_3   0.702137 0.679128 0.285588 -0.662160
N17   N     N_3   0.304176 0.322488 0.710661 -0.628629
N18   N     N_3   0.326345 0.998512 0.062495 -0.666849
N19   N     N_3   0.671881 0.998745 0.932353 -0.672250
N20   N     N_3   0.827446 0.506180 0.067308 -0.670030
N21   N     N_3   0.170937 0.495507 0.930152 -0.648115
N22   N     N_R   0.019530 0.500000 0.207810 -0.247601
N23   N     N_R   0.980470 0.500000 0.792190 -0.226377
N24   N     N_3   0.653076 0.997889 0.183743 -0.555939
N25   N     N_3   0.346792 0.998713 0.816042 -0.534685
N26   N     N_3   0.155910 0.481579 0.170004 -0.636921
N27   N     N_3   0.846848 0.501522 0.815623 -0.553407
N28   N     N_3   0.585740 0.215864 0.637064 -0.600304
O1    O     O_R   0.430030 0.075530 0.417420 -0.480950
O2    O     O_R   0.583140 0.924490 0.385390 -0.481686
O3    O     O_R   0.583140 0.075510 0.385390 -0.485036
O4    O     O_R   0.416860 0.924490 0.614610 -0.481842
O5    O     O_R   0.916860 0.575510 0.614610 -0.491596
O6    O     O_R   0.083140 0.424490 0.385390 -0.523850
O7    O     O_R   0.083140 0.575510 0.385390 -0.529277
O8    O     O_R   0.916860 0.424490 0.614610 -0.473405
O9    O     O_R   0.569970 0.924470 0.582580 -0.520450
O10   O     O_R   0.569970 0.075530 0.582580 -0.487755
O11   O     O_R   0.430030 0.924470 0.417420 -0.519489
O12   O     O_R   0.930030 0.575530 0.417420 -0.476390
O13   O     O_R   0.069970 0.424470 0.582580 -0.511454
O14   O     O_R   0.069970 0.575530 0.582580 -0.482635
O15   O     O_R   0.930030 0.424470 0.417420 -0.510794
O16   O     O_R   0.416860 0.075510 0.614610 -0.485637

loop_
_geom_bond_atom_site_label_1
_geom_bond_atom_site_label_2
_ccdc_geom_bond_type
Cu3   O12   S    
C49   N6    S    
H55   N21   S    
C8    C13   A    
H30   N8    S    
C56   O13   A    
H8    N25   S    
H24   N5    S    
C17   H23   S    
Cu1   O3    S    
C25   C43   A    
H40   N14   S    
C38   H59   S    
C53   C59   A    
C48   C57   A    
Cu4   O5    S    
C7    C11   A    
C5    C9    A    
H21   N4    S    
C40   H2    S    
C5    N12   A    
C33   C42   A    
Cu2   O16   S    
C36   H56   S    
C18   C37   A    
C52   C61   A    
H48   N17   S    
H17   N2    S    
H18   N3    S    
C22   C41   A    
C37   H45   S    
H51   N19   S    
C56   O6    A    
C9    N18   S    
C27   N14   S    
C31   C40   A    
C51   N8    S    
H19   N3    S    
C45   O5    A    
H26   N6    S    
Cu4   O14   S    
C44   C53   A    
C21   C38   A    
C17   N22   A    
C23   O3    A    
C29   C38   A    
C43   H3    S    
C32   C41   A    
C48   N3    S    
H41   N14   S    
H54   N20   S    
C31   N9    S    
C35   C43   A    
C3    C13   A    
H43   N15   S    
C10   N19   S    
C22   C50   A    
C6    N24   S    
C39   H58   S    
Cu3   N22   S    
C41   H60   S    
H6    N24   S    
C6    N1    A    
C15   H1    S    
C18   C46   A    
Cu2   O4    S    
C2    C64   A    
H28   N7    S    
Cu4   O8    S    
C63   O8    A    
C62   O14   A    
C29   C61   A    
Cu2   O10   S    
C35   C55   A    
C18   C23   S    
H50   N18   S    
Cu1   O1    S    
H25   N6    S    
H35   N10   S    
C12   O9    A    
H22   N5    S    
H10   N26   S    
C57   C60   A    
H15   N28   S    
Cu3   O15   S    
C29   N16   S    
C12   C21   S    
C50   N5    S    
C49   C58   A    
Cu3   Cu4   S    
C30   C60   A    
H49   N18   S    
H46   N16   S    
C8    N22   A    
C22   C62   S    
C32   N10   S    
H9    N26   S    
H37   N11   S    
C23   O10   A    
Cu4   O13   S    
H7    N25   S    
C63   O15   A    
C62   O7    A    
C15   N1    A    
C14   C64   A    
C46   C54   A    
C42   H4    S    
H27   N7    S    
H53   N20   S    
Cu2   N12   S    
C28   N15   S    
C4    C11   A    
C2    C15   A    
C20   C48   A    
H57   N21   S    
C35   N13   S    
C7    N23   A    
C4    C17   A    
C16   H34   S    
C14   N12   A    
C24   C63   S    
C14   H12   S    
H5    N24   S    
H39   N13   S    
C50   C59   A    
C34   O11   A    
C25   C45   S    
C32   C53   A    
C8    N26   S    
C19   C44   A    
C26   C42   A    
C30   N17   S    
C47   C55   A    
C54   C58   A    
C24   C49   A    
C20   C39   A    
Cu1   O11   S    
C1    C20   S    
C33   C57   A    
Cu2   O9    S    
C10   C64   A    
Cu1   O2    S    
C19   C34   S    
C26   C56   S    
C6    C10   A    
Cu1   N1    S    
H33   N10   S    
C28   C58   A    
C27   C36   A    
C46   N28   S    
H47   N17   S    
C1    O16   A    
H13   N27   S    
H36   N11   S    
C47   N4    S    
C19   C36   A    
H44   N16   S    
C1    O1    A    
C25   C52   A    
C13   N21   S    
Cu4   N23   S    
C27   C59   A    
C26   C51   A    
Cu3   O6    S    
C28   C37   A    
C33   N11   S    
C5    N25   S    
C55   C61   A    
H16   N2    S    
C24   C40   A    
C30   C39   A    
C16   N23   A    
C31   C54   A    
H42   N15   S    
C11   N20   S    
C45   O12   A    
H32   N9    S    
H11   N27   S    
Cu3   O7    S    
C7    N27   S    
H52   N19   S    
Cu1   Cu2   S    
H14   N28   S    
C52   N7    S    
H20   N4    S    
H31   N9    S    
C51   C60   A    
H29   N8    S    
C12   O2    A    
C2    C9    A    
C44   N2    S    
H38   N13   S    
C3    C16   A    
C3    C4    A    
C21   C47   A    
C34   O4    A    
