data_mof_unit_1604.cif
_audit_creation_date              2012-12-10T18:31:56-0500
_audit_creation_method            fapswitch 2.2
_symmetry_space_group_name_H-M    P1
_symmetry_Int_Tables_number       1
_space_group_crystal_system       triclinic
_cell_length_a                    10.647557
_cell_length_b                    14.978036
_cell_length_c                    15.322047
_cell_angle_alpha                 82.533315
_cell_angle_beta                  89.19746
_cell_angle_gamma                 104.318444
_cell_volume                      2344.86046138

loop_
_atom_site_label
_atom_site_type_symbol
_atom_type_description
_atom_site_fract_x
_atom_site_fract_y
_atom_site_fract_z
_atom_type_partial_charge
C1    C     C_R   0.485256 0.442057 0.662622 0.859007
C2    C     C_3   0.121524 0.499292 0.498301 0.149103
C3    C     C_3   0.105060 0.583312 0.432906 -0.455089
C4    C     C_3   0.072313 0.507000 0.592092 -0.391085
C5    C     C_R   0.499633 0.408310 0.755078 -0.065047
C6    C     C_R   0.553867 0.592363 0.243990 -0.071362
C7    C     C_R   0.499837 0.284894 0.873899 -0.178575
C8    C     C_R   0.477134 0.313299 0.786433 -0.202792
C9    C     C_R   0.547775 0.474033 0.810965 -0.256805
C10   C     C_R   0.575600 0.447286 0.897764 0.095237
C11   C     C_R   0.546549 0.351279 0.930270 0.140735
C12   C     C_R   0.742296 0.500777 0.498864 0.840223
C13   C     C_R   0.621211 0.514108 0.954666 0.061536
C14   C     C_R   0.612530 0.484434 0.046332 -0.008544
C15   C     C_R   0.600263 0.388133 0.077012 -0.068009
C16   C     C_R   0.565160 0.322864 0.018377 -0.264457
C17   C     C_R   0.670814 0.609942 0.923497 -0.212305
C18   C     C_R   0.690148 0.675862 0.981263 -0.218613
C19   C     C_R   0.652091 0.648278 0.069989 0.169459
C20   C     C_R   0.609348 0.552218 0.102385 0.119821
C21   C     C_R   0.650604 0.715133 0.126041 -0.218208
C22   C     C_R   0.603446 0.687164 0.213331 -0.180088
C23   C     C_R   0.520176 0.558037 0.337248 0.888396
C24   C     C_R   0.550644 0.526761 0.186775 -0.181265
C25   C     C_R   0.694461 0.843914 0.635862 -0.313542
C26   C     C_R   0.661179 0.754027 0.614841 0.019933
C27   C     C_R   0.515645 0.793805 0.509548 -0.054047
C28   C     C_R   0.544336 0.886296 0.528159 -0.003028
C29   C     C_R   0.636680 0.910509 0.592461 0.182056
C30   C     C_R   0.485798 0.954891 0.485244 0.082469
C31   C     C_R   0.521268 0.047176 0.507317 0.100327
C32   C     C_R   0.616079 0.068324 0.570442 -0.235265
C33   C     C_R   0.671620 0.000994 0.612439 -0.206476
C34   C     C_R   0.257942 0.499467 0.499629 0.835299
C35   C     C_R   0.392371 0.934003 0.421625 -0.241266
C36   C     C_R   0.338010 0.001437 0.378762 -0.144114
C37   C     C_R   0.372804 0.092915 0.397711 0.082535
C38   C     C_R   0.461304 0.115456 0.465173 -0.014881
C39   C     C_R   0.317344 0.161913 0.353284 -0.104295
C40   C     C_R   0.344892 0.249257 0.381264 -0.031922
C41   C     C_R   0.484648 0.205797 0.488644 -0.073866
C42   C     C_3   0.897796 0.408138 0.469900 -0.347367
C43   C     C_3   0.040550 0.408410 0.468149 -0.377027
C44   C     C_3   0.961414 0.586620 0.433933 -0.172521
C45   C     C_3   0.928251 0.507724 0.591649 -0.434695
C46   C     C_3   0.879292 0.501075 0.497321 0.074607
H1    H     H_    0.858291 0.396305 0.404464 0.237696
H2    H     H_    0.129351 0.571931 0.614942 0.185436
H3    H     H_    0.955444 0.650703 0.461745 0.151536
H4    H     H_    0.164736 0.649674 0.451621 0.170923
H5    H     H_    0.552202 0.249415 0.041422 0.197797
H6    H     H_    0.500288 0.455144 0.208403 0.152359
H7    H     H_    0.607107 0.739224 0.256755 0.178692
H8    H     H_    0.726174 0.748846 0.955413 0.144304
H9    H     H_    0.479841 0.211170 0.897674 0.143294
H10   H     H_    0.441989 0.261245 0.743655 0.157032
H11   H     H_    0.559509 0.546543 0.786490 0.158489
H12   H     H_    0.843800 0.348129 0.518022 0.167299
H13   H     H_    0.696490 0.635364 0.854713 0.136784
H14   H     H_    0.685472 0.788714 0.102335 0.151618
H15   H     H_    0.743405 0.020211 0.660693 0.144147
H16   H     H_    0.547232 0.229035 0.539969 0.129132
H17   H     H_    0.304672 0.303855 0.348835 0.159634
H18   H     H_    0.265021 0.979741 0.332268 0.183248
H19   H     H_    0.764982 0.861320 0.685251 0.141797
H20   H     H_    0.705374 0.701799 0.647505 0.122471
H21   H     H_    0.448838 0.768542 0.461091 0.124704
H22   H     H_    0.053254 0.346467 0.512480 0.180624
H23   H     H_    0.651477 0.136800 0.588597 0.134418
H24   H     H_    0.357877 0.865591 0.403122 0.137098
H25   H     H_    0.073004 0.402584 0.400149 0.204286
H26   H     H_    0.141733 0.577858 0.365832 0.176248
H27   H     H_    0.916049 0.572655 0.614831 0.178660
H28   H     H_    0.870779 0.448180 0.638714 0.171793
H29   H     H_    0.084923 0.447291 0.639544 0.163527
N1    N     N_R   0.573860 0.731700 0.552730 -0.096863
N2    N     N_R   0.426060 0.268290 0.447230 -0.110190
O1    O     O_R   0.462770 0.383110 0.605620 -0.616979
O2    O     O_R   0.510160 0.531900 0.639510 -0.621007
O3    O     O_R   0.661510 0.425600 0.483070 -0.617646
O4    O     O_R   0.708900 0.574390 0.516960 -0.618848
O5    O     O_R   0.489840 0.468100 0.360490 -0.610316
O6    O     O_R   0.537230 0.616890 0.394380 -0.606174
O7    O     O_R   0.291100 0.425610 0.483040 -0.627262
O8    O     O_R   0.338490 0.574400 0.516930 -0.627324
Zn1   Zn    Zn3+2 0.468350 0.400660 0.477370 0.950132
Zn2   Zn    Zn3+2 0.531650 0.599340 0.522630 0.948560
C47   C     C_2   0.638274 0.353853 0.165732 0.904697
O9    O     O_2   0.724229 0.403371 0.202639 -0.573211
O10   O     O_R   0.578117 0.263799 0.206090 -0.793506
H30   H     H_    0.612160 0.248584 0.266241 0.349211
C48   C     C_2   0.235963 0.147635 0.275914 0.909259
O11   O     O_2   0.141825 0.180628 0.268068 -0.628051
O12   O     O_R   0.270362 0.100734 0.209801 -0.787744
H31   H     H_    0.208473 0.097045 0.159946 0.345702
C49   C     C_2   0.914149 0.596571 0.341283 0.901689
O13   O     O_2   0.914200 0.537083 0.293709 -0.580694
O14   O     O_R   0.875626 0.676752 0.309038 -0.807153
H32   H     H_    0.855420 0.678917 0.244513 0.354484

loop_
_geom_bond_atom_site_label_1
_geom_bond_atom_site_label_2
_ccdc_geom_bond_type
C44   H3    S    
C24   H6    S    
O6    Zn2   S    
C23   O5    A    
C19   C20   A    
C16   H5    S    
C7    H9    S    
C42   H12   S    
O2    Zn2   S    
C7    C8    A    
C45   C46   S    
C7    C11   A    
C40   H17   S    
C23   O6    A    
C30   C35   A    
C1    C5    S    
C36   C37   A    
C19   C21   A    
O7    Zn1   S    
C41   N2    A    
C30   C31   A    
C15   C16   A    
C6    C22   A    
C29   C33   A    
C45   H27   S    
C18   C19   A    
C42   C46   S    
C4    H29   S    
O3    Zn1   S    
C20   C24   A    
C35   H24   S    
C43   H22   S    
C49   O14   S    
C26   N1    A    
C9    C10   A    
O1    Zn1   S    
C13   C14   A    
C1    O1    A    
C8    H10   S    
C34   O7    A    
C41   H16   S    
C3    H4    S    
C44   C46   S    
C22   H7    S    
C4    C45   S    
O8    Zn2   S    
C25   C29   A    
C3    C44   S    
C26   H20   S    
C14   C20   A    
C25   H19   S    
C38   C41   A    
C12   C46   S    
C39   C40   A    
C25   C26   A    
O5    Zn1   S    
C45   H28   S    
C34   O8    A    
C2    C4    S    
C5    C9    A    
C37   C38   A    
C44   C49   S    
C11   C16   A    
C31   C32   A    
C2    C43   S    
C6    C24   A    
C49   O13   D    
C48   O12   S    
C17   C18   A    
N1    Zn2   S    
C21   H14   S    
O4    Zn2   S    
C17   H13   S    
C47   O10   S    
N2    Zn1   S    
C1    O2    A    
C42   C43   S    
C27   N1    A    
C39   C48   S    
C4    H2    S    
C28   C29   A    
C43   H25   S    
C14   C15   A    
C10   C13   A    
C5    C8    A    
C32   H23   S    
C31   C38   A    
C13   C17   A    
C32   C33   A    
C28   C30   A    
C2    C3    S    
C37   C39   A    
C36   H18   S    
C2    C34   S    
O10   H30   S    
C6    C23   S    
C12   O3    A    
C48   O11   D    
C12   O4    A    
C3    H26   S    
C9    H11   S    
C42   H1    S    
O12   H31   S    
C27   H21   S    
C10   C11   A    
C18   H8    S    
C47   O9    D    
C33   H15   S    
O14   H32   S    
C27   C28   A    
C40   N2    A    
C35   C36   A    
C21   C22   A    
C15   C47   S    
