data_mof_unit_4675.cif
_audit_creation_date              2012-12-11T14:58:34-0500
_audit_creation_method            fapswitch 2.2
_symmetry_space_group_name_H-M    P1
_symmetry_Int_Tables_number       1
_space_group_crystal_system       triclinic
_cell_length_a                    11.087713
_cell_length_b                    11.069862
_cell_length_c                    18.746586
_cell_angle_alpha                 90.222271
_cell_angle_beta                  89.914377
_cell_angle_gamma                 58.960646
_cell_volume                      1971.44974568

loop_
_atom_site_label
_atom_site_type_symbol
_atom_type_description
_atom_site_fract_x
_atom_site_fract_y
_atom_site_fract_z
_atom_type_partial_charge
C1    C     C_R   0.358750 0.773265 0.398236 0.562520
C2    C     C_R   0.598396 0.093571 0.171278 0.078097
C3    C     C_R   0.348628 0.313633 0.168491 -0.056105
C4    C     C_R   0.451566 0.199773 0.280870 0.170261
C5    C     C_R   0.464390 0.204477 0.206945 -0.050688
C6    C     C_R   0.100513 0.681468 0.333730 -0.033725
C7    C     C_R   0.995482 0.777513 0.381953 0.307179
C8    C     C_R   0.607146 0.971141 0.145288 -0.022106
C9    C     C_R   0.726078 0.866235 0.110176 -0.088934
C10   C     C_R   0.233998 0.424198 0.205071 -0.168013
C11   C     C_R   0.232813 0.434787 0.278752 -0.068672
C12   C     C_R   0.381887 0.350315 0.389839 0.576604
C13   C     C_R   0.888773 0.750945 0.402750 0.325223
C14   C     C_R   0.872306 0.655021 0.362017 -0.084051
C15   C     C_R   0.979888 0.559039 0.317464 -0.175644
C16   C     C_R   0.105852 0.557188 0.312969 -0.019225
C17   C     C_R   0.347168 0.324047 0.317616 -0.006544
C18   C     C_R   0.977936 0.263171 0.317207 -0.200971
C19   C     C_R   0.024425 0.249002 0.246761 -0.195421
C20   C     C_R   0.926678 0.309227 0.191595 -0.021026
C21   C     C_R   0.783211 0.387595 0.206267 -0.125955
C22   C     C_R   0.734193 0.402713 0.276754 0.240997
C23   C     C_R   0.781616 0.375539 0.404430 0.556551
C24   C     C_R   0.833790 0.342899 0.331868 0.049919
C25   C     C_R   0.470873 0.781050 0.286448 0.001861
C26   C     C_R   0.460446 0.799817 0.212993 -0.144953
C27   C     C_R   0.327739 0.873875 0.182284 0.004969
C28   C     C_R   0.207292 0.930846 0.225999 -0.122794
C29   C     C_R   0.218569 0.917158 0.298613 -0.170774
C30   C     C_R   0.349190 0.833712 0.328790 0.040417
C31   C     C_R   0.373879 0.197138 0.690897 -0.086691
C32   C     C_R   0.363440 0.183636 0.763448 -0.102862
C33   C     C_R   0.294181 0.304048 0.807307 0.030060
C34   C     C_R   0.371716 0.706151 0.610794 0.550346
C35   C     C_R   0.219952 0.437869 0.777195 -0.154458
C36   C     C_R   0.228088 0.451276 0.704108 -0.134307
C37   C     C_R   0.314547 0.331475 0.661903 0.043061
C38   C     C_R   0.899284 0.398127 0.708147 -0.182618
C39   C     C_R   0.937721 0.381152 0.779180 -0.150130
C40   C     C_R   0.928563 0.281711 0.820684 -0.034272
C41   C     C_R   0.898248 0.187109 0.788322 -0.103777
C42   C     C_R   0.859298 0.201919 0.716652 0.263206
C43   C     C_R   0.848256 0.317517 0.676958 0.007622
C44   C     C_R   0.230789 0.772820 0.721604 -0.137068
C45   C     C_R   0.367151 0.349972 0.594565 0.550571
C46   C     C_R   0.212756 0.808596 0.792837 -0.173202
C47   C     C_R   0.318657 0.813668 0.830999 0.037340
C48   C     C_R   0.451407 0.766770 0.799129 0.266121
C49   C     C_R   0.470122 0.723932 0.726920 -0.130508
C50   C     C_R   0.357222 0.735600 0.687371 -0.023412
C51   C     C_R   0.972406 0.289783 0.117970 0.532117
C52   C     C_R   0.327071 0.291522 0.093940 0.544712
C53   C     C_R   0.304324 0.903538 0.106554 0.532466
C54   C     C_R   0.950276 0.279749 0.897545 0.555850
C55   C     C_R   0.291555 0.283423 0.883207 0.542142
C56   C     C_R   0.768269 0.372630 0.609536 0.528368
C57   C     C_R   0.278872 0.889497 0.899216 0.557594
C58   C     C_R   0.843189 0.880362 0.102630 0.263555
C59   C     C_R   0.840328 0.997746 0.132430 -0.074144
C60   C     C_R   0.718428 0.104624 0.165916 -0.150240
Cr1   Cr    Cr6+3 0.601770 0.606860 0.505860 1.131191
Cr2   Cr    Cr6+3 0.291380 0.601660 0.495070 1.027935
Cr3   Cr    Cr6+3 0.606880 0.291510 0.499120 1.155979
Cr4   Cr    Cr6+3 0.062440 0.063090 0.008210 1.077673
Cr5   Cr    Cr6+3 0.062880 0.375170 0.998920 1.108655
Cr6   Cr    Cr6+3 0.374700 0.061720 0.992470 1.043209
H1    H     H_    0.775624 0.655965 0.364453 0.189620
H2    H     H_    0.963463 0.489816 0.285163 0.155913
H3    H     H_    0.053712 0.219971 0.360149 0.125914
H4    H     H_    0.136101 0.196325 0.235465 0.131406
H5    H     H_    0.712216 0.434676 0.161847 0.122654
H6    H     H_    0.573872 0.715379 0.309093 0.189781
H7    H     H_    0.554791 0.749409 0.180416 0.110477
H8    H     H_    0.102312 0.989893 0.204416 0.151295
H9    H     H_    0.725685 0.775520 0.088746 0.143828
H10   H     H_    0.124791 0.965890 0.330481 0.184381
H11   H     H_    0.436783 0.103578 0.658589 0.149641
H12   H     H_    0.412329 0.078884 0.785691 0.142367
H13   H     H_    0.160027 0.531123 0.810096 0.140561
H14   H     H_    0.176218 0.555845 0.681640 0.143844
H15   H     H_    0.900295 0.482164 0.679240 0.161614
H16   H     H_    0.967192 0.451597 0.802744 0.147546
H17   H     H_    0.898503 0.105477 0.820013 0.193881
H18   H     H_    0.143302 0.779153 0.692831 0.201623
H19   H     H_    0.111312 0.841737 0.816680 0.198150
H20   H     H_    0.570793 0.684016 0.700801 0.137141
H21   H     H_    0.932355 0.006023 0.129157 0.179560
H22   H     H_    0.719443 0.193438 0.188092 0.102705
H23   H     H_    0.177964 0.701885 0.312129 0.148953
H24   H     H_    0.517788 0.961823 0.152585 0.162726
H25   H     H_    0.142625 0.502809 0.176198 0.212525
O1    O     O_R   0.748800 0.497470 0.428000 -0.505817
O2    O     O_R   0.300070 0.471040 0.567100 -0.527140
O3    O     O_R   0.491670 0.258900 0.574910 -0.469247
O4    O     O_R   0.718780 0.304180 0.577850 -0.443696
O5    O     O_3   0.500010 0.500010 0.500020 -0.298209
O6    O     O_R   0.186690 0.923650 0.086970 -0.480235
O7    O     O_R   0.957250 0.194250 0.084630 -0.519812
O8    O     O_R   0.934970 0.407490 0.085330 -0.471083
O9    O     O_R   0.203780 0.365190 0.067090 -0.471388
O10   O     O_R   0.417600 0.174890 0.067840 -0.522937
O11   O     O_R   0.375320 0.946260 0.070860 -0.532758
O12   O     O_R   0.476420 0.724060 0.429470 -0.438873
O13   O     O_R   0.160600 0.919630 0.926660 -0.488920
O14   O     O_R   0.933060 0.190520 0.936020 -0.484864
O15   O     O_R   0.908880 0.403460 0.925020 -0.471666
O16   O     O_R   0.179600 0.361450 0.918490 -0.503668
O17   O     O_R   0.391510 0.170860 0.907530 -0.502727
O18   O     O_R   0.351130 0.942530 0.922260 -0.461899
O19   O     O_3   0.166667 0.166667 0.999870 -0.326819
O20   O     O_R   0.264580 0.744340 0.416750 -0.550025
O21   O     O_R   0.309380 0.472470 0.418200 -0.521120
O22   O     O_R   0.501710 0.260430 0.414300 -0.398690
O23   O     O_R   0.728090 0.305600 0.428960 -0.478564
O24   O     O_R   0.738760 0.495930 0.588610 -0.519583
O25   O     O_R   0.467110 0.722640 0.578360 -0.475424
O26   O     O_R   0.254530 0.742800 0.577360 -0.527595
S1    S     S_3+6 0.573663 0.041135 0.327108 0.027686
O27   O     O_2   0.502120 0.025346 0.391532 -0.220313
O28   O     O_2   0.631397 0.909424 0.283482 -0.355547
O29   O     O_3   0.711008 0.055910 0.351804 -0.409695
H26   H     H_    0.724537 0.108395 0.313145 0.328865
S2    S     S_3+6 0.789025 0.815834 0.482785 0.044583
O30   O     O_2   0.677702 0.777484 0.485144 -0.241065
O31   O     O_2   0.886481 0.747130 0.544781 -0.353871
O32   O     O_3   0.709716 0.991120 0.491844 -0.434047
H27   H     H_    0.668354 0.010252 0.540326 0.384536
O33   O     O_3   0.592526 0.482491 0.296138 -0.587660
C61   C     C_3   0.500321 0.492541 0.241906 -0.129004
H28   H     H_    0.528510 0.388008 0.222633 0.117486
H29   H     H_    0.497104 0.556836 0.196359 0.117359
H30   H     H_    0.393029 0.545766 0.264236 0.156185
S3    S     S_3+6 0.818990 0.077249 0.683840 -0.010933
O34   O     O_2   0.662409 0.145460 0.681333 -0.282412
O35   O     O_2   0.881062 0.028134 0.610911 -0.313910
O36   O     O_3   0.882034 0.936845 0.737970 -0.587661
H31   H     H_    0.855455 0.873202 0.714950 0.364695
O37   O     O_3   0.977624 0.910255 0.390047 -0.586765
C62   C     C_3   0.994235 0.941745 0.461000 0.021684
H32   H     H_    0.026763 0.853713 0.499123 0.193734
H33   H     H_    0.896070 0.037039 0.478550 0.215493
H34   H     H_    0.074452 0.973007 0.462365 0.110159
O38   O     O_3   0.559057 0.758163 0.841513 -0.538559
C63   C     C_3   0.658508 0.775327 0.802746 -0.085360
H35   H     H_    0.608763 0.860707 0.762484 0.108973
H36   H     H_    0.736869 0.674683 0.776946 0.118206
H37   H     H_    0.716200 0.804457 0.840657 0.178792
S4    S     S_3+6 0.989904 0.756042 0.053057 -0.009677
O39   O     O_2   0.974345 0.633304 0.033272 -0.277360
O40   O     O_2   0.998758 0.825246 0.986204 -0.275519
O41   O     O_3   0.136960 0.700202 0.101192 -0.557174
H38   H     H_    0.214956 0.635281 0.069065 0.361667

loop_
_geom_bond_atom_site_label_1
_geom_bond_atom_site_label_2
_ccdc_geom_bond_type
C33   C55   S    
C56   O4    A    
O32   H27   S    
Cr2   O5    S    
C41   C42   A    
Cr6   O11   S    
C35   C36   A    
S4    O41   S    
C45   O2    A    
O33   C61   S    
C60   H22   S    
Cr1   O5    S    
S2    O30   D    
C29   H10   S    
Cr3   O3    S    
C26   C27   A    
C21   H5    S    
C42   S3    S    
C18   C24   A    
C28   C29   A    
Cr1   O12   S    
S4    O40   D    
C18   C19   A    
C20   C51   S    
C38   C39   A    
C13   S2    S    
C62   H34   S    
C58   S4    S    
S2    O31   D    
C34   O25   A    
O38   C63   S    
C41   H17   S    
Cr3   O4    S    
C26   H7    S    
Cr5   O9    S    
C9    C58   A    
S1    O27   D    
Cr2   O26   S    
Cr3   O23   S    
C22   O33   S    
C57   O18   A    
Cr2   O20   S    
C47   C48   A    
C8    C9    A    
C12   C17   S    
Cr1   O24   S    
S3    O36   S    
C14   H1    S    
C1    O12   A    
Cr1   O1    S    
C61   H30   S    
C18   H3    S    
Cr4   O7    S    
O41   H38   S    
C28   H8    S    
C59   C60   A    
C21   C22   A    
Cr6   O10   S    
C4    S1    S    
C63   H37   S    
C45   O3    A    
C44   C46   A    
C31   H11   S    
S1    O28   D    
C51   O8    A    
C52   O10   A    
C34   C50   S    
C54   O15   A    
Cr4   O14   S    
S4    O39   D    
Cr5   O8    S    
C63   H36   S    
C36   H14   S    
C39   C40   A    
C4    C5    A    
S2    O32   S    
C3    C5    A    
C58   C59   A    
C6    C16   A    
Cr3   O5    S    
C52   O9    A    
C31   C37   A    
C48   O38   S    
C55   O16   A    
S1    O29   S    
C29   C30   A    
C47   C57   S    
C11   C16   S    
Cr4   O19   S    
C31   C32   A    
Cr4   O6    S    
C53   O11   A    
C23   C24   S    
Cr1   O25   S    
C25   H6    S    
Cr6   O19   S    
O29   H26   S    
C4    C17   A    
C40   C41   A    
C10   H25   S    
C40   C54   S    
C38   H15   S    
S3    O34   D    
C22   C24   A    
C2    C5    S    
C8    H24   S    
C42   C43   A    
C37   C45   S    
Cr5   O15   S    
C12   O21   A    
C61   H28   S    
C44   C50   A    
C25   C30   A    
Cr4   O13   S    
C57   O13   A    
C46   C47   A    
C36   C37   A    
C54   O14   A    
C14   C15   A    
C49   H20   S    
C2    C8    A    
C39   H16   S    
Cr6   O17   S    
C63   H35   S    
C44   H18   S    
C11   C17   A    
C7    O37   S    
C62   H32   S    
C27   C53   S    
C6    C7    A    
C6    H23   S    
C55   O17   A    
C53   O6    A    
C32   C33   A    
C46   H19   S    
C19   C20   A    
C25   C26   A    
C38   C43   A    
C3    C10   A    
C3    C52   S    
C23   O23   A    
C62   H33   S    
C34   O26   A    
C48   C49   A    
C15   H2    S    
C35   H13   S    
C1    C30   S    
C33   C35   A    
C56   O24   A    
C12   O22   A    
C2    C60   A    
C51   O7    A    
Cr6   O18   S    
C59   H21   S    
Cr5   O19   S    
C10   C11   A    
C32   H12   S    
Cr3   O22   S    
C43   C56   S    
C7    C13   A    
Cr2   O21   S    
C20   C21   A    
C49   C50   A    
Cr2   O2    S    
C27   C28   A    
S3    O35   D    
C23   O1    A    
O36   H31   S    
C19   H4    S    
C9    H9    S    
C13   C14   A    
Cr5   O16   S    
C1    O20   A    
O37   C62   S    
C15   C16   A    
C61   H29   S    
