data_mof_unit_4479.cif
_audit_creation_date              2012-12-11T16:07:18-0500
_audit_creation_method            fapswitch 2.2
_symmetry_space_group_name_H-M    P1
_symmetry_Int_Tables_number       1
_space_group_crystal_system       triclinic
_cell_length_a                    17.104848
_cell_length_b                    17.10485
_cell_length_c                    17.447939
_cell_angle_alpha                 90.000017
_cell_angle_beta                  89.999968
_cell_angle_gamma                 90.000018
_cell_volume                      5104.84574616

loop_
_atom_site_label
_atom_site_type_symbol
_atom_type_description
_atom_site_fract_x
_atom_site_fract_y
_atom_site_fract_z
_atom_type_partial_charge
C1    C     C_R   0.389333 0.701923 0.588275 0.654480
C2    C     C_R   0.586649 0.678871 0.639473 0.551068
C3    C     C_3   0.800312 0.199687 0.629476 -0.220977
C4    C     C_3   0.800313 0.800313 0.370525 -0.220978
C5    C     C_3   0.253663 0.253666 0.731080 -0.210290
C6    C     C_3   0.746337 0.253663 0.268921 -0.210281
C7    C     C_3   0.199686 0.800312 0.629476 -0.220977
C8    C     C_3   0.699687 0.699687 0.870525 -0.220981
C9    C     C_3   0.246333 0.246337 0.231080 -0.210292
C10   C     C_3   0.753663 0.246337 0.768921 -0.210282
C11   C     C_3   0.300312 0.699687 0.129476 -0.220980
C12   C     C_3   0.300316 0.300311 0.870525 -0.220981
C13   C     C_R   0.678871 0.413350 0.360527 0.551068
C14   C     C_3   0.753664 0.753664 0.231079 -0.210284
C15   C     C_3   0.246337 0.753664 0.768921 -0.210282
C16   C     C_3   0.699688 0.300313 0.129476 -0.220975
C17   C     C_3   0.374952 0.825804 0.532435 -0.261557
C18   C     C_3   0.569860 0.189033 0.341218 -0.150798
C19   C     C_3   0.810967 0.569860 0.658783 -0.150803
C20   C     C_3   0.174204 0.374953 0.467576 -0.261544
C21   C     C_3   0.625047 0.174195 0.532438 -0.261557
C22   C     C_3   0.430140 0.810967 0.341217 -0.150804
C23   C     C_3   0.189035 0.430147 0.658791 -0.150837
C24   C     C_R   0.298077 0.610667 0.588274 0.654493
C25   C     C_3   0.825804 0.625048 0.467565 -0.261559
C26   C     C_3   0.374953 0.174193 0.467560 -0.261562
C27   C     C_3   0.569860 0.810967 0.658782 -0.150796
C28   C     C_3   0.810967 0.430139 0.341219 -0.150797
C29   C     C_3   0.174194 0.625047 0.532439 -0.261579
C30   C     C_3   0.625047 0.825805 0.467563 -0.261562
C31   C     C_3   0.430137 0.189033 0.658780 -0.150797
C32   C     C_3   0.189033 0.569863 0.341220 -0.150778
C33   C     C_3   0.825805 0.374952 0.532437 -0.261565
C34   C     C_3   0.874952 0.325805 0.032437 -0.261566
C35   C     C_R   0.610667 0.701923 0.411725 0.654484
C36   C     C_3   0.069861 0.689033 0.841218 -0.150801
C37   C     C_3   0.310967 0.069862 0.158780 -0.150797
C38   C     C_3   0.674196 0.874952 0.967565 -0.261555
C39   C     C_3   0.125048 0.674195 0.032437 -0.261564
C40   C     C_3   0.930139 0.310967 0.841218 -0.150791
C41   C     C_3   0.689033 0.930140 0.158783 -0.150803
C42   C     C_3   0.325806 0.125047 0.967561 -0.261562
C43   C     C_3   0.874952 0.674196 0.967565 -0.261557
C44   C     C_3   0.069856 0.310965 0.158788 -0.150812
C45   C     C_3   0.310967 0.930140 0.841216 -0.150804
C46   C     C_R   0.413351 0.321129 0.639474 0.551067
C47   C     C_3   0.674194 0.125048 0.032438 -0.261560
C48   C     C_3   0.125048 0.325800 0.967570 -0.261551
C49   C     C_3   0.930140 0.689033 0.158783 -0.150802
C50   C     C_3   0.689033 0.069861 0.841219 -0.150792
C51   C     C_3   0.325803 0.874952 0.032434 -0.261557
C52   C     C_R   0.321129 0.586650 0.360527 0.551068
C53   C     C_R   0.701923 0.389333 0.588275 0.654483
C54   C     C_R   0.889333 0.201923 0.088274 0.654488
C55   C     C_R   0.086650 0.821129 0.860527 0.551068
C56   C     C_R   0.178870 0.086649 0.139474 0.551066
C57   C     C_R   0.586650 0.321129 0.360527 0.551069
C58   C     C_R   0.798077 0.889333 0.911725 0.654480
C59   C     C_R   0.110667 0.798077 0.088275 0.654483
C60   C     C_R   0.913350 0.178871 0.860527 0.551068
C61   C     C_R   0.821129 0.913351 0.139473 0.551067
C62   C     C_R   0.201923 0.110666 0.911725 0.654484
C63   C     C_R   0.889333 0.798077 0.911725 0.654481
C64   C     C_R   0.086648 0.178870 0.139474 0.551063
C65   C     C_R   0.178871 0.913350 0.860527 0.551067
C66   C     C_R   0.798076 0.110667 0.088274 0.654482
C67   C     C_R   0.110667 0.201923 0.911725 0.654479
C68   C     C_R   0.678871 0.586649 0.639473 0.551066
C69   C     C_R   0.913351 0.821129 0.139473 0.551066
C70   C     C_R   0.821129 0.086649 0.860527 0.551070
C71   C     C_R   0.201923 0.889333 0.088275 0.654480
C72   C     C_3   0.261648 0.261647 0.352131 0.279269
C73   C     C_3   0.684223 0.684223 0.748317 0.319645
C74   C     C_3   0.315776 0.684224 0.251683 0.319645
C75   C     C_3   0.738351 0.261649 0.647870 0.279266
C76   C     C_3   0.738351 0.738352 0.352130 0.279266
C77   C     C_3   0.315777 0.315777 0.748318 0.319645
C78   C     C_3   0.684224 0.315776 0.251684 0.319646
C79   C     C_R   0.298077 0.389332 0.411724 0.654473
C80   C     C_3   0.261648 0.738351 0.647869 0.279265
C81   C     C_3   0.761648 0.761648 0.852130 0.279267
C82   C     C_3   0.184222 0.184222 0.248318 0.319644
C83   C     C_3   0.815776 0.184224 0.751684 0.319645
C84   C     C_3   0.238352 0.761649 0.147870 0.279266
C85   C     C_3   0.238352 0.238352 0.852131 0.279267
C86   C     C_3   0.815776 0.815777 0.248317 0.319645
C87   C     C_3   0.184224 0.815776 0.751683 0.319646
C88   C     C_3   0.761649 0.238351 0.147870 0.279265
C89   C     C_R   0.310035 0.689965 0.597457 -0.469928
C90   C     C_R   0.610667 0.298077 0.588275 0.654482
C91   C     C_R   0.648145 0.351855 0.318644 -0.369856
C92   C     C_R   0.648144 0.648144 0.681357 -0.369853
C93   C     C_R   0.310036 0.310034 0.402542 -0.469925
C94   C     C_R   0.689965 0.310035 0.597457 -0.469928
C95   C     C_R   0.351856 0.648145 0.318644 -0.369856
C96   C     C_R   0.351856 0.351857 0.681357 -0.369846
C97   C     C_R   0.689965 0.689965 0.402543 -0.469927
C98   C     C_R   0.810035 0.189965 0.097457 -0.469928
C99   C     C_R   0.148145 0.851855 0.818644 -0.369855
C100  C     C_R   0.148143 0.148143 0.181358 -0.369849
C101  C     C_R   0.413351 0.678871 0.360527 0.551068
C102  C     C_R   0.810035 0.810035 0.902542 -0.469926
C103  C     C_R   0.189965 0.810035 0.097457 -0.469926
C104  C     C_R   0.851855 0.148144 0.818644 -0.369858
C105  C     C_R   0.851856 0.851856 0.181357 -0.369853
C106  C     C_R   0.189965 0.189965 0.902542 -0.469927
C107  C     C_3   0.736641 0.645983 0.808801 -0.148118
C108  C     C_3   0.208702 0.299291 0.291596 -0.162146
C109  C     C_3   0.700707 0.208705 0.708408 -0.162164
C110  C     C_3   0.354017 0.736641 0.191199 -0.148119
C111  C     C_3   0.263362 0.354017 0.808804 -0.148117
C112  C     C_R   0.321129 0.413352 0.639474 0.551057
C113  C     C_3   0.791295 0.700708 0.291593 -0.162160
C114  C     C_3   0.299293 0.791295 0.708406 -0.162160
C115  C     C_3   0.645984 0.263359 0.191199 -0.148120
C116  C     C_3   0.736642 0.354016 0.191200 -0.148121
C117  C     C_3   0.208706 0.700707 0.708408 -0.162164
C118  C     C_3   0.700707 0.791295 0.291593 -0.162163
C119  C     C_3   0.354017 0.263357 0.808800 -0.148118
C120  C     C_3   0.263358 0.645984 0.191200 -0.148119
C121  C     C_3   0.791294 0.299293 0.708407 -0.162163
C122  C     C_3   0.299292 0.208706 0.291591 -0.162165
C123  C     C_R   0.701923 0.610667 0.411725 0.654480
C124  C     C_3   0.645983 0.736641 0.808801 -0.148118
C125  C     C_3   0.236643 0.145982 0.308800 -0.148115
C126  C     C_3   0.708705 0.799293 0.791593 -0.162161
C127  C     C_3   0.200707 0.708706 0.208408 -0.162163
C128  C     C_3   0.854016 0.236641 0.691200 -0.148120
C129  C     C_3   0.763359 0.854017 0.308801 -0.148119
C130  C     C_3   0.291294 0.200708 0.791592 -0.162161
C131  C     C_3   0.799293 0.291294 0.208407 -0.162162
C132  C     C_3   0.145984 0.763358 0.691200 -0.148119
C133  C     C_3   0.236641 0.854016 0.691199 -0.148120
C134  C     C_R   0.389334 0.298076 0.411725 0.654481
C135  C     C_3   0.708705 0.200707 0.208407 -0.162165
C136  C     C_3   0.200708 0.291297 0.791595 -0.162155
C137  C     C_3   0.854016 0.763359 0.308801 -0.148119
C138  C     C_3   0.763358 0.145984 0.691200 -0.148118
C139  C     C_3   0.291295 0.799293 0.208407 -0.162160
C140  C     C_3   0.799292 0.708705 0.791593 -0.162161
C141  C     C_3   0.145982 0.236638 0.308804 -0.148118
C142  C     C_3   0.199689 0.199684 0.370526 -0.220987
C143  C     C_3   0.746336 0.746336 0.731079 -0.210285
C144  C     C_3   0.253664 0.746337 0.268921 -0.210284
H1    H     H_    0.181789 0.181779 0.429095 0.109331
H2    H     H_    0.265386 0.265394 0.173161 0.099496
H3    H     H_    0.035715 0.652404 0.881279 0.181508
H4    H     H_    0.131936 0.688154 0.860266 0.077874
H5    H     H_    0.065604 0.659669 0.784788 0.117067
H6    H     H_    0.340331 0.065607 0.215210 0.117066
H7    H     H_    0.311844 0.131936 0.139730 0.077874
H8    H     H_    0.347595 0.035716 0.118719 0.181507
H9    H     H_    0.701469 0.832901 0.008228 0.117108
H10   H     H_    0.640061 0.844410 0.922997 0.143861
H11   H     H_    0.631248 0.910385 0.999863 0.147511
H12   H     H_    0.155588 0.640061 0.077006 0.143863
H13   H     H_    0.734608 0.265392 0.826840 0.099495
H14   H     H_    0.167100 0.701467 0.991774 0.117111
H15   H     H_    0.089615 0.631246 0.000139 0.147510
H16   H     H_    0.964286 0.347597 0.881278 0.181505
H17   H     H_    0.868065 0.311846 0.860269 0.077872
H18   H     H_    0.934393 0.340330 0.784787 0.117066
H19   H     H_    0.659671 0.934395 0.215214 0.117068
H20   H     H_    0.688154 0.868066 0.139732 0.077875
H21   H     H_    0.652403 0.964287 0.118723 0.181505
H22   H     H_    0.368754 0.089615 0.999860 0.147508
H23   H     H_    0.298536 0.167101 0.008222 0.117111
H24   H     H_    0.318215 0.681783 0.070906 0.109330
H25   H     H_    0.359941 0.155585 0.922991 0.143863
H26   H     H_    0.844410 0.640061 0.922997 0.143861
H27   H     H_    0.832901 0.701469 0.008227 0.117108
H28   H     H_    0.910385 0.631248 0.999863 0.147511
H29   H     H_    0.035709 0.347596 0.118729 0.181504
H30   H     H_    0.131931 0.311847 0.139738 0.077875
H31   H     H_    0.065600 0.340325 0.215220 0.117072
H32   H     H_    0.340329 0.934396 0.784785 0.117069
H33   H     H_    0.311847 0.868066 0.860266 0.077874
H34   H     H_    0.347597 0.964287 0.881276 0.181505
H35   H     H_    0.318219 0.318212 0.929095 0.109330
H36   H     H_    0.631247 0.089617 0.000138 0.147510
H37   H     H_    0.701464 0.167104 0.991778 0.117110
H38   H     H_    0.640058 0.155585 0.077009 0.143861
H39   H     H_    0.155595 0.359936 0.923007 0.143859
H40   H     H_    0.167094 0.298524 0.008235 0.117105
H41   H     H_    0.089614 0.368748 0.999867 0.147515
H42   H     H_    0.964287 0.652404 0.118723 0.181505
H43   H     H_    0.868066 0.688154 0.139733 0.077874
H44   H     H_    0.934395 0.659671 0.215214 0.117069
H45   H     H_    0.659670 0.065608 0.784788 0.117065
H46   H     H_    0.734609 0.734609 0.173160 0.099495
H47   H     H_    0.688154 0.131935 0.860270 0.077873
H48   H     H_    0.652403 0.035714 0.881278 0.181505
H49   H     H_    0.298530 0.832903 0.991771 0.117108
H50   H     H_    0.359938 0.844409 0.077001 0.143861
H51   H     H_    0.368752 0.910385 0.000137 0.147512
H52   H     H_    0.265393 0.734609 0.826839 0.099495
H53   H     H_    0.681785 0.318216 0.070906 0.109329
H54   H     H_    0.746161 0.582278 0.816351 0.130806
H55   H     H_    0.197646 0.362836 0.284341 0.142643
H56   H     H_    0.637161 0.197652 0.715664 0.142636
H57   H     H_    0.765391 0.765391 0.673160 0.099495
H58   H     H_    0.417722 0.746161 0.183649 0.130806
H59   H     H_    0.253843 0.417723 0.816355 0.130805
H60   H     H_    0.802349 0.637162 0.284337 0.142637
H61   H     H_    0.362838 0.802349 0.715662 0.142638
H62   H     H_    0.582278 0.253839 0.183650 0.130806
H63   H     H_    0.746163 0.417722 0.183650 0.130807
H64   H     H_    0.197653 0.637162 0.715664 0.142635
H65   H     H_    0.637162 0.802348 0.284336 0.142636
H66   H     H_    0.417723 0.253835 0.816349 0.130807
H67   H     H_    0.253837 0.582278 0.183651 0.130807
H68   H     H_    0.234609 0.765393 0.326840 0.099496
H69   H     H_    0.802348 0.362838 0.715664 0.142636
H70   H     H_    0.362837 0.197654 0.284333 0.142634
H71   H     H_    0.582278 0.746162 0.816351 0.130807
H72   H     H_    0.246165 0.082277 0.316348 0.130808
H73   H     H_    0.697651 0.862838 0.784337 0.142637
H74   H     H_    0.137162 0.697653 0.215664 0.142636
H75   H     H_    0.917722 0.246162 0.683650 0.130807
H76   H     H_    0.753838 0.917722 0.316350 0.130806
H77   H     H_    0.302346 0.137162 0.784334 0.142634
H78   H     H_    0.862839 0.302347 0.215664 0.142636
H79   H     H_    0.818215 0.181784 0.570906 0.109329
H80   H     H_    0.082278 0.753837 0.683651 0.130807
H81   H     H_    0.246161 0.917722 0.683649 0.130806
H82   H     H_    0.697651 0.137161 0.215663 0.142635
H83   H     H_    0.137163 0.302353 0.784340 0.142639
H84   H     H_    0.917722 0.753839 0.316351 0.130806
H85   H     H_    0.753838 0.082278 0.683650 0.130806
H86   H     H_    0.302350 0.862838 0.215662 0.142638
H87   H     H_    0.862838 0.697651 0.784337 0.142637
H88   H     H_    0.082277 0.246156 0.316356 0.130805
H89   H     H_    0.344410 0.859939 0.577002 0.143861
H90   H     H_    0.818215 0.818216 0.429094 0.109330
H91   H     H_    0.332901 0.798531 0.491772 0.117109
H92   H     H_    0.410385 0.868752 0.500137 0.147511
H93   H     H_    0.535713 0.152403 0.381276 0.181505
H94   H     H_    0.631934 0.188154 0.360269 0.077875
H95   H     H_    0.565607 0.159671 0.284787 0.117066
H96   H     H_    0.840329 0.565604 0.715214 0.117068
H97   H     H_    0.811846 0.631934 0.639734 0.077874
H98   H     H_    0.847596 0.535713 0.618723 0.181506
H99   H     H_    0.201486 0.332918 0.508248 0.117101
H100  H     H_    0.140071 0.344391 0.423020 0.143858
H101  H     H_    0.234607 0.234613 0.673161 0.099495
H102  H     H_    0.131253 0.410388 0.499867 0.147516
H103  H     H_    0.655585 0.140059 0.577007 0.143862
H104  H     H_    0.667101 0.201466 0.491777 0.117109
H105  H     H_    0.589615 0.131248 0.500138 0.147511
H106  H     H_    0.464287 0.847597 0.381276 0.181505
H107  H     H_    0.368066 0.811847 0.360267 0.077875
H108  H     H_    0.434396 0.840329 0.284786 0.117068
H109  H     H_    0.159675 0.434409 0.715223 0.117077
H110  H     H_    0.188152 0.368071 0.639748 0.077879
H111  H     H_    0.152406 0.464291 0.618729 0.181507
H112  H     H_    0.765391 0.234607 0.326840 0.099495
H113  H     H_    0.868752 0.589615 0.499863 0.147512
H114  H     H_    0.798530 0.667098 0.508228 0.117108
H115  H     H_    0.859939 0.655590 0.422998 0.143862
H116  H     H_    0.344416 0.140058 0.422990 0.143863
H117  H     H_    0.332899 0.201463 0.508221 0.117110
H118  H     H_    0.410385 0.131245 0.499859 0.147509
H119  H     H_    0.535713 0.847596 0.618723 0.181505
H120  H     H_    0.631934 0.811846 0.639730 0.077873
H121  H     H_    0.565607 0.840329 0.715213 0.117067
H122  H     H_    0.840330 0.434394 0.284788 0.117067
H123  H     H_    0.181783 0.818214 0.570906 0.109330
H124  H     H_    0.811846 0.368065 0.360268 0.077873
H125  H     H_    0.847597 0.464285 0.381279 0.181506
H126  H     H_    0.131245 0.589616 0.500139 0.147511
H127  H     H_    0.201463 0.667102 0.491778 0.117116
H128  H     H_    0.140059 0.655584 0.577009 0.143866
H129  H     H_    0.655586 0.859941 0.422993 0.143862
H130  H     H_    0.667101 0.798534 0.508224 0.117111
H131  H     H_    0.589616 0.868753 0.499862 0.147511
H132  H     H_    0.464284 0.152404 0.618720 0.181506
H133  H     H_    0.368063 0.188155 0.639729 0.077873
H134  H     H_    0.681784 0.681785 0.929094 0.109330
H135  H     H_    0.434392 0.159669 0.715210 0.117066
H136  H     H_    0.159669 0.565609 0.284789 0.117064
H137  H     H_    0.188155 0.631937 0.360271 0.077868
H138  H     H_    0.152403 0.535717 0.381279 0.181506
H139  H     H_    0.798534 0.332900 0.491775 0.117111
H140  H     H_    0.859939 0.344411 0.577006 0.143863
H141  H     H_    0.868754 0.410384 0.500139 0.147510
H142  H     H_    0.844412 0.359940 0.077006 0.143862
H143  H     H_    0.832899 0.298534 0.991775 0.117111
H144  H     H_    0.910384 0.368753 0.000138 0.147511
N1    N     N_R   0.424590 0.632770 0.578330 -0.134896
N2    N     N_R   0.575410 0.632770 0.578330 -0.134654
N3    N     N_R   0.632770 0.424590 0.421670 -0.134655
N4    N     N_R   0.367230 0.575410 0.578330 -0.134894
N5    N     N_R   0.575410 0.632770 0.421670 -0.134897
N6    N     N_R   0.424590 0.367230 0.578330 -0.134654
N7    N     N_R   0.367230 0.575410 0.421670 -0.134654
N8    N     N_R   0.632770 0.424590 0.578330 -0.134896
N9    N     N_R   0.924590 0.132770 0.078330 -0.134895
N10   N     N_R   0.075410 0.867230 0.921670 -0.134654
N11   N     N_R   0.132770 0.075410 0.078330 -0.134654
N12   N     N_R   0.575410 0.367230 0.421670 -0.134654
N13   N     N_R   0.867230 0.924590 0.921670 -0.134897
N14   N     N_R   0.075410 0.867230 0.078330 -0.134897
N15   N     N_R   0.924590 0.132770 0.921670 -0.134655
N16   N     N_R   0.867230 0.924590 0.078330 -0.134655
N17   N     N_R   0.132770 0.075410 0.921670 -0.134897
N18   N     N_R   0.924590 0.867230 0.921670 -0.134897
N19   N     N_R   0.075410 0.132770 0.078330 -0.134655
N20   N     N_R   0.132770 0.924590 0.921670 -0.134655
N21   N     N_R   0.867230 0.075410 0.078330 -0.134896
N22   N     N_R   0.075410 0.132770 0.921670 -0.134896
N23   N     N_R   0.632770 0.575410 0.578330 -0.134655
N24   N     N_R   0.924590 0.867230 0.078330 -0.134655
N25   N     N_R   0.867230 0.075410 0.921670 -0.134654
N26   N     N_R   0.132770 0.924590 0.078330 -0.134897
N27   N     N_R   0.367230 0.424590 0.421670 -0.134897
N28   N     N_R   0.575410 0.367230 0.578330 -0.134897
N29   N     N_R   0.424590 0.632770 0.421670 -0.134655
N30   N     N_R   0.367230 0.424590 0.578330 -0.134657
N31   N     N_R   0.632770 0.575410 0.421670 -0.134897
N32   N     N_R   0.424590 0.367230 0.421670 -0.134897
Ni1   Ni    Ni4+2 0.500000 0.631570 0.500000 0.258904
Ni2   Ni    Ni4+2 0.500000 0.368430 0.500000 0.258904
Ni3   Ni    Ni4+2 0.631570 0.500000 0.500000 0.258904
Ni4   Ni    Ni4+2 0.368430 0.500000 0.500000 0.258900
Ni5   Ni    Ni4+2 0.000000 0.131570 0.000000 0.258903
Ni6   Ni    Ni4+2 0.000000 0.868430 0.000000 0.258903
Ni7   Ni    Ni4+2 0.131570 0.000000 0.000000 0.258903
Ni8   Ni    Ni4+2 0.868430 0.000000 0.000000 0.258904
O1    O     O_3   0.426097 0.770785 0.565805 -0.569624
O2    O     O_3   0.535323 0.735962 0.663889 -0.599904
O3    O     O_3   0.735962 0.464676 0.336112 -0.599903
O4    O     O_3   0.229215 0.573902 0.565802 -0.569630
O5    O     O_3   0.573902 0.770785 0.434196 -0.569623
O6    O     O_3   0.464676 0.264037 0.663888 -0.599905
O7    O     O_3   0.264037 0.535325 0.336112 -0.599900
O8    O     O_3   0.770785 0.426097 0.565805 -0.569623
O9    O     O_3   0.926098 0.270785 0.065803 -0.569626
O10   O     O_3   0.035324 0.764038 0.836112 -0.599903
O11   O     O_3   0.235962 0.035324 0.163888 -0.599904
O12   O     O_3   0.535324 0.264038 0.336111 -0.599905
O13   O     O_3   0.729214 0.926097 0.934195 -0.569623
O14   O     O_3   0.073902 0.729215 0.065804 -0.569624
O15   O     O_3   0.964676 0.235962 0.836112 -0.599903
O16   O     O_3   0.764038 0.964677 0.163889 -0.599905
O17   O     O_3   0.270785 0.073902 0.934195 -0.569623
O18   O     O_3   0.926097 0.729214 0.934194 -0.569624
O19   O     O_3   0.035321 0.235959 0.163890 -0.599904
O20   O     O_3   0.235962 0.964677 0.836111 -0.599904
O21   O     O_3   0.729215 0.073902 0.065803 -0.569622
O22   O     O_3   0.073903 0.270786 0.934193 -0.569625
O23   O     O_3   0.735961 0.535323 0.663889 -0.599904
O24   O     O_3   0.964677 0.764038 0.163889 -0.599904
O25   O     O_3   0.764037 0.035324 0.836112 -0.599904
O26   O     O_3   0.270785 0.926097 0.065805 -0.569624
O27   O     O_3   0.229213 0.426096 0.434188 -0.569626
O28   O     O_3   0.573902 0.229215 0.565805 -0.569623
O29   O     O_3   0.464677 0.735962 0.336111 -0.599904
O30   O     O_3   0.264042 0.464681 0.663892 -0.599903
O31   O     O_3   0.770786 0.573903 0.434194 -0.569623
O32   O     O_3   0.426099 0.229215 0.434195 -0.569622

loop_
_geom_bond_atom_site_label_1
_geom_bond_atom_site_label_2
_ccdc_geom_bond_type
C5    C136  S    
C33   H139  S    
C135  H82   S    
C81   C126  S    
C78   C115  S    
C44   H31   S    
C83   C128  S    
C23   H109  S    
C57   N12   A    
C21   H103  S    
C9    C108  S    
C72   C142  S    
C44   O19   S    
C66   O21   S    
C133  H81   S    
C7    C133  S    
C137  H84   S    
N26   Ni7   S    
N17   N22   A    
C126  C143  S    
C119  C130  S    
C107  C140  S    
C117  C132  S    
C36   H4    S    
C49   H42   S    
N6    Ni2   S    
C61   C105  A    
C18   H93   S    
C59   N14   A    
C1    O1    S    
N28   Ni2   S    
C30   H131  S    
C13   C91   A    
C82   C141  S    
C31   H132  S    
C66   N21   A    
N31   Ni3   S    
C123  N31   A    
C8    C81   S    
C65   C99   A    
C121  C128  S    
C111  H59   S    
C48   H40   S    
C69   C105  A    
C76   C118  S    
C121  H69   S    
C82   C125  S    
C40   H18   S    
C134  O32   S    
C55   N10   A    
C69   O24   S    
C1    N1    A    
C3    C138  S    
C50   H47   S    
C7    C132  S    
C22   O29   S    
C15   H52   S    
C5    C130  S    
C35   N5    A    
C33   H141  S    
N24   Ni6   S    
N20   Ni7   S    
C113  C137  S    
C69   N24   A    
C5    C77   S    
C32   H137  S    
C14   C113  S    
C16   C115  S    
C123  O31   S    
C42   H23   S    
N16   N24   A    
C80   C117  S    
C119  H66   S    
C30   O5    S    
C4    H90   S    
C130  H77   S    
C88   C135  S    
C36   O10   S    
C74   C110  S    
C107  H54   S    
N23   Ni3   S    
C11   C110  S    
C62   C106  A    
C11   C84   S    
C27   O2    S    
C74   C120  S    
C2    O2    S    
C110  H58   S    
C15   C117  S    
C118  C129  S    
C51   H51   S    
N11   N19   A    
C49   H44   S    
C27   H120  S    
C68   C92   A    
C60   O15   S    
C131  H78   S    
C58   N13   A    
C19   H97   S    
C22   H107  S    
C46   C96   A    
C140  H87   S    
C41   H20   S    
C46   O6    S    
C25   O31   S    
C70   N25   A    
N21   Ni8   S    
C83   C138  S    
C127  H74   S    
C20   H99   S    
C61   O16   S    
N12   Ni2   S    
C140  C143  S    
C37   H6    S    
C47   H37   S    
C117  H64   S    
C57   O12   S    
N1    Ni1   S    
C141  H88   S    
N27   N32   A    
C47   H36   S    
C44   H30   S    
C22   H106  S    
C129  H76   S    
C111  C136  S    
C6    C78   S    
C112  N30   A    
C58   O13   S    
C9    H2    S    
C31   O6    S    
C41   O16   S    
C50   O25   S    
C101  O29   S    
C4    C137  S    
C72   C108  S    
C34   H144  S    
C68   N23   A    
C3    C75   S    
C42   O17   S    
C25   H113  S    
C62   N17   A    
C59   O14   S    
N13   Ni8   S    
C63   N18   A    
C38   H11   S    
C63   C102  A    
C11   C120  S    
N2    Ni1   S    
N5    N31   A    
N7    N29   A    
C29   H127  S    
C112  O30   S    
C14   C86   S    
C51   H49   S    
C43   H27   S    
C3    C128  S    
C39   O14   S    
C109  C138  S    
N32   Ni2   S    
C65   O20   S    
C6    C135  S    
N27   Ni4   S    
C12   C119  S    
C128  H75   S    
C76   C113  S    
C7    H123  S    
N3    N12   A    
C90   N28   A    
C45   H34   S    
C30   H129  S    
C40   O15   S    
C143  H57   S    
C39   H14   S    
C23   O30   S    
C37   H8    S    
C85   C106  S    
C8    C107  S    
N9    Ni5   S    
C17   H92   S    
C71   C103  A    
C3    H79   S    
C26   O32   S    
C53   C94   A    
C78   C116  S    
C73   C92   S    
C67   O22   S    
C18   O12   S    
C34   O9    S    
C77   C96   S    
C114  H61   S    
N30   Ni4   S    
C59   C103  A    
C66   C98   A    
C122  C125  S    
C48   H41   S    
C97   C123  A    
C115  C135  S    
C34   H142  S    
C90   O28   S    
C71   O26   S    
N14   Ni6   S    
C68   O23   S    
C38   O13   S    
C14   H46   S    
N2    N23   A    
C26   H116  S    
N17   Ni7   S    
C115  H62   S    
C55   C99   A    
C21   O28   S    
C38   H10   S    
C24   O4    S    
C46   N6    A    
C38   H9    S    
C60   C104  A    
C88   C98   S    
C95   C101  A    
N6    N30   A    
C124  H71   S    
N8    N28   A    
C81   C140  S    
C26   H117  S    
C55   O10   S    
C118  H65   S    
C124  C126  S    
C110  C139  S    
C70   C104  A    
C73   C107  S    
C10   C83   S    
N1    N4    A    
C52   C95   A    
C10   H13   S    
C80   C89   S    
C77   C111  S    
N15   Ni5   S    
C86   C137  S    
C43   H26   S    
C84   C139  S    
N8    Ni3   S    
N5    Ni1   S    
C33   O8    S    
C58   C102  A    
C50   H48   S    
C53   N8    A    
C9    C82   S    
C33   H140  S    
C49   O24   S    
N14   N26   A    
C142  H1    S    
C79   N27   A    
N16   Ni8   S    
C23   H110  S    
C32   H138  S    
C16   C116  S    
C63   O18   S    
C108  C141  S    
C90   C94   A    
C21   H104  S    
C101  N29   A    
C56   N11   A    
C120  C127  S    
C134  N32   A    
C8    C124  S    
C76   C97   S    
C28   O3    S    
C122  H70   S    
C42   H25   S    
C85   C130  S    
N15   N25   A    
C36   H3    S    
C49   H43   S    
C27   H119  S    
C9    C122  S    
C6    H112  S    
N9    N21   A    
C24   N4    A    
C48   O22   S    
C72   C93   S    
C79   O27   S    
C136  H83   S    
C30   H130  S    
C41   H19   S    
C11   H24   S    
C144  H68   S    
C73   C143  S    
C20   H100  S    
C45   O20   S    
C74   C144  S    
N11   Ni7   S    
C28   H125  S    
C57   C91   A    
C39   H15   S    
C132  H80   S    
C40   H16   S    
C5    H101  S    
C6    C131  S    
C28   H124  S    
C48   H39   S    
C8    H134  S    
N4    Ni4   S    
C67   C106  A    
C4    C129  S    
C67   N22   A    
C17   H89   S    
C52   O7    S    
C116  C131  S    
N18   Ni6   S    
C40   H17   S    
C17   O1    S    
C2    N2    A    
C27   H121  S    
N13   N18   A    
C108  H55   S    
C127  C144  S    
C52   N7    A    
C71   N26   A    
N29   Ni1   S    
C64   C100  A    
C53   O8    S    
C16   C88   S    
C109  H56   S    
N19   Ni5   S    
C19   H96   S    
C16   H53   S    
C42   H22   S    
C75   C94   S    
N10   N20   A    
C7    C80   S    
N7    Ni4   S    
C87   C133  S    
C10   C121  S    
C24   C89   A    
C47   O21   S    
C19   O23   S    
C22   H108  S    
C96   C112  A    
C61   N16   A    
C12   C85   S    
C10   C109  S    
C29   H126  S    
C65   N20   A    
C79   C93   A    
C21   H105  S    
C125  H72   S    
C36   H5    S    
N10   Ni6   S    
C28   H122  S    
C56   O11   S    
C113  H60   S    
C50   H45   S    
C64   N19   A    
C19   H98   S    
C14   C118  S    
C41   H21   S    
C31   H135  S    
C32   H136  S    
C126  H73   S    
C45   H33   S    
C84   C127  S    
C20   H102  S    
C62   O17   S    
C20   O27   S    
C37   H7    S    
C47   H38   S    
C87   C99   S    
C81   C102  S    
C17   H91   S    
C75   C109  S    
C83   C104  S    
C43   O18   S    
C44   H29   S    
C23   H111  S    
C93   C134  A    
C45   H32   S    
C29   O4    S    
C37   O11   S    
C85   C136  S    
C64   O19   S    
C54   O9    S    
C25   H115  S    
C87   C132  S    
C139  C144  S    
N3    Ni3   S    
C125  C142  S    
C73   C124  S    
C34   H143  S    
C15   C114  S    
C2    C92   A    
C54   N9    A    
C25   H114  S    
C80   C114  S    
C13   N3    A    
C86   C105  S    
C56   C100  A    
C18   H95   S    
C15   C87   S    
C60   N15   A    
C1    C89   A    
C72   C122  S    
C75   C121  S    
C29   H128  S    
C82   C100  S    
C74   C95   S    
C138  H85   S    
C13   O3    S    
C77   C119  S    
C51   H50   S    
C43   H28   S    
C86   C129  S    
C26   H118  S    
C78   C91   S    
C88   C131  S    
C70   O25   S    
C39   H12   S    
C51   O26   S    
C141  C142  S    
N22   Ni5   S    
C120  H67   S    
C114  C133  S    
C139  H86   S    
N25   Ni8   S    
C31   H133  S    
C4    C76   S    
C116  H63   S    
C18   H94   S    
C12   H35   S    
C84   C103  S    
C54   C98   A    
C35   C97   A    
C35   O5    S    
C12   C111  S    
C32   O7    S    
