data_mof_unit_2837.cif
_audit_creation_date              2012-12-10T18:44:58-0500
_audit_creation_method            fapswitch 2.2
_symmetry_space_group_name_H-M    P1
_symmetry_Int_Tables_number       1
_space_group_crystal_system       triclinic
_cell_length_a                    19.392338
_cell_length_b                    18.14799
_cell_length_c                    10.843271
_cell_angle_alpha                 90.481389
_cell_angle_beta                  89.156755
_cell_angle_gamma                 90.036072
_cell_volume                      3815.54513113

loop_
_atom_site_label
_atom_site_type_symbol
_atom_type_description
_atom_site_fract_x
_atom_site_fract_y
_atom_site_fract_z
_atom_type_partial_charge
C1    C     C_R   0.367822 0.500063 0.501122 0.770081
C2    C     C_R   0.632211 0.500286 0.500241 0.778338
C3    C     C_R   0.851031 0.500318 0.525483 0.062701
C4    C     C_R   0.148397 0.499868 0.511535 0.058063
C5    C     C_R   0.810672 0.538589 0.615637 0.021154
C6    C     C_R   0.184224 0.545821 0.426429 0.025193
C7    C     C_R   0.738861 0.540503 0.602912 -0.242238
C8    C     C_R   0.256483 0.546182 0.426116 -0.233337
C9    C     C_R   0.707093 0.501660 0.507317 -0.021636
C10   C     C_R   0.292847 0.500351 0.504996 -0.031656
C11   C     C_R   0.964230 0.562577 0.538450 -0.167741
C12   C     C_R   0.035647 0.562394 0.535257 -0.171189
C13   C     C_R   0.072155 0.496541 0.518251 0.021576
C14   C     C_R   0.927204 0.496566 0.530278 0.021589
C15   C     C_R   0.035972 0.428646 0.510395 -0.039660
C16   C     C_R   0.962951 0.428551 0.518079 -0.040864
C17   C     C_R   0.450524 0.720000 0.437300 0.035407
C18   C     C_R   0.549166 0.721402 0.562362 0.035114
C19   C     C_R   0.448017 0.797530 0.436160 -0.093672
C20   C     C_R   0.551032 0.799019 0.562277 -0.094041
C21   C     C_R   0.499306 0.838640 0.499035 -0.004024
C22   C     C_R   0.496796 0.499496 0.262405 0.838276
C23   C     C_R   0.497343 0.500365 0.737619 0.836939
C24   C     C_R   0.496462 0.961851 0.610138 -0.165357
C25   C     C_R   0.501482 0.960661 0.387428 -0.164808
C26   C     C_R   0.497035 0.039240 0.610166 -0.180327
C27   C     C_R   0.501520 0.038079 0.387327 -0.182772
C28   C     C_R   0.499514 0.078649 0.498743 0.115586
C29   C     C_R   0.498920 0.921540 0.498820 0.107726
C30   C     C_R   0.463206 0.201374 0.410510 -0.280685
C31   C     C_R   0.536844 0.201807 0.587530 -0.282288
C32   C     C_R   0.463756 0.278756 0.412984 0.107762
C33   C     C_R   0.536334 0.279171 0.586253 0.081436
C34   C     C_R   0.499924 0.161467 0.498829 0.104006
C35   C     C_R   0.397848 0.590508 0.132212 -0.138527
C36   C     C_R   0.398447 0.591467 0.875708 -0.129822
C37   C     C_R   0.351633 0.634987 0.070000 -0.163360
C38   C     C_R   0.351939 0.635467 0.942051 -0.142198
C39   C     C_R   0.447479 0.547280 0.936764 0.035647
C40   C     C_R   0.447028 0.546694 0.067119 0.050683
C41   C     C_R   0.491865 0.498036 0.128627 -0.284571
C42   C     C_R   0.494666 0.501121 0.871438 -0.290246
C43   C     C_R   0.531930 0.446210 0.061820 0.340518
C44   C     C_R   0.537142 0.451341 0.934221 0.353062
C45   C     C_R   0.747029 0.465506 0.418042 -0.203264
C46   C     C_R   0.257564 0.455871 0.589124 -0.190357
C47   C     C_R   0.818334 0.466892 0.424723 -0.143267
C48   C     C_R   0.186005 0.457145 0.594548 -0.147592
Cu1   Cu    Cu3+1 0.500000 0.573360 0.500000 0.917629
Cu2   Cu    Cu3+1 0.500000 0.426640 0.500000 0.957093
H1    H     H_    0.411654 0.688395 0.389630 0.123174
H2    H     H_    0.588194 0.690853 0.610681 0.129271
H3    H     H_    0.493849 0.933267 0.697352 0.137633
H4    H     H_    0.504010 0.931142 0.300269 0.137933
H5    H     H_    0.494441 0.068276 0.697723 0.132874
H6    H     H_    0.504348 0.066209 0.299760 0.131988
H7    H     H_    0.433272 0.173087 0.341170 0.132435
H8    H     H_    0.566715 0.173862 0.656520 0.136489
H9    H     H_    0.434867 0.308766 0.345212 0.137111
H10   H     H_    0.565129 0.309454 0.654519 0.166305
H11   H     H_    0.392241 0.588929 0.231229 0.133459
H12   H     H_    0.393607 0.591301 0.776694 0.151964
H13   H     H_    0.314255 0.667775 0.121371 0.137715
H14   H     H_    0.314925 0.668839 0.893852 0.130288
H15   H     H_    0.723271 0.437928 0.341419 0.126205
H16   H     H_    0.285481 0.421442 0.652485 0.143410
H17   H     H_    0.848189 0.441046 0.351159 0.134820
H18   H     H_    0.159758 0.424169 0.663517 0.139906
H19   H     H_    0.707367 0.569634 0.670828 0.122605
H20   H     H_    0.284619 0.580510 0.361300 0.127943
H21   H     H_    0.937606 0.614920 0.545620 0.148251
H22   H     H_    0.062729 0.614366 0.543941 0.147115
N1    N     N_R   0.500000 0.683620 0.500000 -0.182684
N2    N     N_R   0.500000 0.316380 0.500000 -0.187473
O1    O     O_R   0.400190 0.561980 0.499980 -0.603812
O2    O     O_R   0.599810 0.561980 0.500020 -0.586088
O3    O     O_R   0.400190 0.438070 0.500040 -0.584179
O4    O     O_R   0.599810 0.438070 0.499960 -0.586076
O5    O     O_R   0.500000 0.561970 0.319650 -0.594188
O6    O     O_R   0.500000 0.561970 0.680350 -0.603074
O7    O     O_R   0.500010 0.438060 0.319710 -0.543792
O8    O     O_R   0.499990 0.438060 0.680290 -0.543714
O9    O     O_3   0.555204 0.382752 0.117995 -0.535217
C49   C     C_3   0.624377 0.390987 0.153451 0.107188
H23   H     H_    0.631896 0.442273 0.208619 0.100117
H24   H     H_    0.659177 0.391659 0.071669 0.154504
C50   C     C_3   0.644125 0.324698 0.230614 -0.762955
H25   H     H_    0.631601 0.272882 0.180475 0.248729
H26   H     H_    0.700313 0.325146 0.248563 0.182018
H27   H     H_    0.615372 0.325765 0.319883 0.265067
O10   O     O_3   0.580705 0.403075 0.871101 -0.552132
C51   C     C_3   0.641621 0.441066 0.836119 0.067257
H28   H     H_    0.663336 0.473865 0.913805 0.099444
H29   H     H_    0.631292 0.479159 0.759342 0.136708
C52   C     C_3   0.695972 0.385809 0.792524 -0.791318
H30   H     H_    0.678847 0.357327 0.707327 0.244897
H31   H     H_    0.745250 0.414747 0.772224 0.207303
H32   H     H_    0.705031 0.344300 0.865146 0.236585
C53   C     C_R   0.389779 0.832935 0.372242 0.099405
C54   C     C_R   0.375912 0.814407 0.248894 -0.181664
C55   C     C_R   0.319420 0.845308 0.189716 -0.138775
C56   C     C_R   0.276307 0.894824 0.253073 -0.122916
C57   C     C_R   0.289515 0.913364 0.375830 -0.141545
C58   C     C_R   0.345793 0.882343 0.435559 -0.114475
H33   H     H_    0.408888 0.776101 0.198621 0.132506
H34   H     H_    0.308997 0.830721 0.094800 0.124885
H35   H     H_    0.232524 0.918618 0.207190 0.115615
H36   H     H_    0.255844 0.951400 0.425017 0.120941
H37   H     H_    0.354551 0.896150 0.531409 0.124597
C59   C     C_R   0.608973 0.836309 0.625243 0.100220
C60   C     C_R   0.622791 0.820774 0.749252 -0.175780
C61   C     C_R   0.678259 0.854626 0.808124 -0.137523
C62   C     C_R   0.720446 0.903999 0.743735 -0.118775
C63   C     C_R   0.707406 0.919387 0.620199 -0.140356
C64   C     C_R   0.652147 0.885465 0.560821 -0.112128
H38   H     H_    0.590430 0.782750 0.800412 0.123483
H39   H     H_    0.688555 0.842550 0.903683 0.123824
H40   H     H_    0.763365 0.930149 0.789451 0.116871
H41   H     H_    0.740346 0.957333 0.570222 0.120899
H42   H     H_    0.643371 0.897074 0.464523 0.124764
C65   C     C_R   0.840952 0.575213 0.725142 0.090729
C66   C     C_R   0.883467 0.535956 0.805284 -0.131799
C67   C     C_R   0.910710 0.570475 0.909401 -0.135405
C68   C     C_R   0.895740 0.644407 0.934720 -0.117398
C69   C     C_R   0.853143 0.683839 0.856092 -0.135197
C70   C     C_R   0.825624 0.649432 0.751938 -0.167672
H43   H     H_    0.895228 0.478618 0.787982 0.110714
H44   H     H_    0.943154 0.539623 0.970650 0.113508
H45   H     H_    0.916944 0.671033 0.015432 0.117330
H46   H     H_    0.841345 0.741055 0.875898 0.124699
H47   H     H_    0.792765 0.680754 0.691778 0.133883
C71   C     C_R   0.148779 0.593291 0.336038 0.095407
C72   C     C_R   0.098979 0.564013 0.256389 -0.122580
C73   C     C_R   0.066911 0.609139 0.170579 -0.132356
C74   C     C_R   0.084638 0.683569 0.162445 -0.117300
C75   C     C_R   0.134573 0.713079 0.240194 -0.137866
C76   C     C_R   0.166574 0.668268 0.326554 -0.170189
H48   H     H_    0.085113 0.506363 0.260042 0.112405
H49   H     H_    0.028516 0.586286 0.109986 0.115547
H50   H     H_    0.059808 0.718296 0.095673 0.116894
H51   H     H_    0.148505 0.770699 0.233617 0.128906
H52   H     H_    0.204988 0.692141 0.386453 0.131994
C77   C     C_R   0.074068 0.357987 0.494220 0.105642
C78   C     C_R   0.071186 0.304360 0.586926 -0.141069
C79   C     C_R   0.107301 0.238157 0.572260 -0.133370
C80   C     C_R   0.146597 0.225045 0.465269 -0.111853
C81   C     C_R   0.149745 0.278080 0.372667 -0.129722
C82   C     C_R   0.113588 0.344295 0.386820 -0.139406
H53   H     H_    0.041319 0.314116 0.670658 0.120114
H54   H     H_    0.104955 0.197082 0.643986 0.121995
H55   H     H_    0.174620 0.173805 0.454134 0.118165
H56   H     H_    0.180190 0.267862 0.289837 0.123718
H57   H     H_    0.116366 0.384701 0.314194 0.112489
C83   C     C_R   0.924080 0.357833 0.510042 0.109542
C84   C     C_R   0.927690 0.314587 0.401932 -0.143173
C85   C     C_R   0.889514 0.249456 0.392819 -0.136715
C86   C     C_R   0.847323 0.227083 0.491158 -0.112089
C87   C     C_R   0.843418 0.269690 0.598946 -0.133244
C88   C     C_R   0.881706 0.334704 0.608622 -0.137931
H58   H     H_    0.959325 0.331893 0.324286 0.118806
H59   H     H_    0.892337 0.216539 0.309209 0.121503
H60   H     H_    0.817588 0.176790 0.483776 0.118395
H61   H     H_    0.810628 0.252404 0.675009 0.124684
H62   H     H_    0.878102 0.366912 0.692667 0.107104

loop_
_geom_bond_atom_site_label_1
_geom_bond_atom_site_label_2
_ccdc_geom_bond_type
C76   H52   S    
C9    C45   A    
C55   C56   A    
C23   O8    A    
C1    O3    A    
C52   H30   S    
C49   C50   S    
C50   H25   S    
C26   H5    S    
C17   H1    S    
C63   C64   A    
C67   H44   S    
C52   H32   S    
C18   H2    S    
C67   C68   A    
C54   H33   S    
C37   C38   A    
C23   C42   S    
O9    C49   S    
C31   H8    S    
C85   C86   A    
C35   C37   A    
C24   C26   A    
C22   O5    A    
C80   C81   A    
Cu2   N2    S    
C32   N2    A    
C58   H37   S    
C8    C10   A    
C11   C14   A    
C11   H21   S    
C22   C41   S    
C77   C78   A    
C30   H7    S    
C5    C65   S    
C4    C13   S    
C43   O9    S    
C66   H43   S    
C24   C29   A    
C54   C55   A    
C57   C58   A    
C59   C60   A    
C69   H46   S    
C86   C87   A    
C81   C82   A    
C71   C72   A    
C10   C46   A    
Cu1   O1    S    
C60   H38   S    
C23   O6    A    
C18   C20   A    
C63   H41   S    
C62   H40   S    
C53   C58   A    
C12   H22   S    
C28   C34   S    
C72   H48   S    
C17   N1    A    
C41   C43   A    
C74   H50   S    
C42   C44   A    
C36   H12   S    
Cu2   O4    S    
C47   H17   S    
C61   C62   A    
C37   H13   S    
C79   C80   A    
C39   C42   A    
C38   H14   S    
C45   C47   A    
C25   C29   A    
C77   C82   A    
C46   C48   A    
C31   C34   A    
C30   C34   A    
C1    O1    A    
C22   O7    A    
C74   C75   A    
C49   H23   S    
C4    C6    A    
C15   C77   S    
O10   C51   S    
C5    C7    A    
C19   C53   S    
C27   H6    S    
C78   C79   A    
C6    C8    A    
C24   H3    S    
C16   C83   S    
C21   C29   S    
C51   C52   S    
Cu1   O5    S    
C43   C44   A    
C78   H53   S    
C2    O4    A    
C72   C73   A    
C53   C54   A    
C69   C70   A    
C31   C33   A    
C83   C84   A    
Cu1   O2    S    
C56   H35   S    
C35   H11   S    
C48   H18   S    
C44   O10   S    
C65   C66   A    
C57   H36   S    
C3    C14   S    
C25   H4    S    
C20   C59   S    
C87   H61   S    
C6    C71   S    
C40   C41   A    
C85   H59   S    
Cu1   Cu2   S    
C33   H10   S    
C13   C15   A    
C45   H15   S    
C87   C88   A    
Cu1   N1    S    
C25   C27   A    
C82   H57   S    
Cu2   O3    S    
C73   H49   S    
C2    O2    A    
Cu2   O8    S    
C62   C63   A    
C4    C48   A    
C55   H34   S    
C7    C9    A    
C60   C61   A    
C19   C21   A    
C84   H58   S    
C8    H20   S    
C36   C39   A    
C1    C10   S    
C79   H54   S    
C49   H24   S    
C75   C76   A    
C3    C5    A    
C7    H19   S    
C11   C12   A    
C52   H31   S    
C46   H16   S    
C73   C74   A    
C18   N1    A    
C26   C28   A    
Cu1   O6    S    
C36   C38   A    
C81   H56   S    
C71   C76   A    
C65   C70   A    
C30   C32   A    
C51   H29   S    
C61   H39   S    
C70   H47   S    
C86   H60   S    
C3    C47   A    
C51   H28   S    
C17   C19   A    
C75   H51   S    
C68   H45   S    
C35   C40   A    
C14   C16   A    
C56   C57   A    
C80   H55   S    
C39   C40   A    
C33   N2    A    
C83   C88   A    
C12   C13   A    
C20   C21   A    
C64   H42   S    
C50   H27   S    
C84   C85   A    
C50   H26   S    
C88   H62   S    
C32   H9    S    
C66   C67   A    
C2    C9    S    
C59   C64   A    
C15   C16   A    
Cu2   O7    S    
C68   C69   A    
C27   C28   A    
