data_mof_unit_3569.cif
_audit_creation_date              2013-03-05T15:42:47-0500
_audit_creation_method            fapswitch 2.2
_symmetry_space_group_name_H-M    P1
_symmetry_Int_Tables_number       1
_space_group_crystal_system       triclinic
_cell_length_a                    9.771994
_cell_length_b                    10.952029
_cell_length_c                    13.277108
_cell_angle_alpha                 90.542041
_cell_angle_beta                  71.866093
_cell_angle_gamma                 89.931158
_cell_volume                      1350.30823916

loop_
_atom_site_label
_atom_site_type_symbol
_atom_site_description
_atom_site_fract_x
_atom_site_fract_y
_atom_site_fract_z
_atom_type_partial_charge
O1    O     O_R   0.382960 0.678040 0.499980 -0.564168
O2    O     O_R   0.617100 0.678080 0.500020 -0.526772
C1    C     C_R   0.499080 0.734234 0.503289 0.762689
O3    O     O_R   0.325800 0.499940 0.650950 -0.529290
O4    O     O_R   0.559930 0.499980 0.650990 -0.549222
C2    C     C_R   0.421505 0.499870 0.700894 0.943630
Cu1   Cu    Cu3+1 0.361370 0.499980 0.499980 1.167714
Cu2   Cu    Cu3+1 0.638630 0.500020 0.500020 1.125096
O5    O     O_R   0.382900 0.321920 0.499980 -0.550557
O6    O     O_R   0.617040 0.321960 0.500020 -0.527002
O7    O     O_R   0.440070 0.500020 0.349010 -0.532344
O8    O     O_R   0.674200 0.500060 0.349050 -0.579089
C3    C     C_R   0.502737 0.265686 0.493823 0.789348
C4    C     C_R   0.578528 0.496577 0.298993 0.796660
C5    C     C_R   0.754663 0.348275 0.032012 0.384433
C6    C     C_R   0.624848 0.475793 0.182884 -0.298835
C7    C     C_R   0.250793 0.575935 0.871030 0.292514
C8    C     C_R   0.202913 0.581666 0.982862 0.187719
C9    C     C_R   0.286519 0.527879 0.040259 0.298368
C10   C     C_R   0.424021 0.477625 0.984335 -0.072493
C11   C     C_R   0.451098 0.445006 0.876946 -0.095526
C12   C     C_R   0.532458 0.453806 0.032731 -0.000540
C13   C     C_R   0.647362 0.371768 0.982670 -0.182507
C14   C     C_R   0.651866 0.315685 0.885023 0.394612
C15   C     C_R   0.551072 0.350472 0.833600 0.373622
C16   C     C_R   0.535042 0.517200 0.125517 0.434934
C17   C     C_R   0.740548 0.396726 0.132813 0.289367
C18   C     C_R   0.371013 0.502691 0.818178 -0.114269
C19   C     C_2   0.611744 0.064983 0.495391 0.303413
C20   C     C_2   0.512083 0.134209 0.471532 0.273717
C21   C     C_2   0.614842 0.932422 0.473952 0.321469
C22   C     C_2   0.495706 0.866177 0.519256 0.301779
C23   C     C_2   0.058279 0.588528 0.537782 0.419857
N1    N     N_2   0.152660 0.501340 0.501130 -0.095930
C24   C     C_2   0.898549 0.570994 0.559679 0.501236
N2    N     N_2   0.846520 0.501370 0.501160 -0.085840
O9    O     O_3   0.843949 0.367091 0.179141 -0.645289
H1    H     H_    0.876364 0.444845 0.202716 0.381041
O10   O     O_3   0.422929 0.080351 0.420527 -0.671351
H2    H     H_    0.367044 0.144406 0.398373 0.378481
O11   O     O_3   0.738802 0.877494 0.408623 -0.675716
H3    H     H_    0.811811 0.941909 0.381199 0.370042
O12   O     O_3   0.374956 0.922242 0.587876 -0.664101
H4    H     H_    0.307628 0.858212 0.625684 0.381355
N3    N     N_R   0.104416 0.708473 0.554391 0.114158
O13   O     O_R   0.070498 0.752416 0.650390 -0.279661
O14   O     O_R   0.140815 0.783366 0.475036 -0.261932
N4    N     N_R   0.098035 0.383072 0.518239 0.246034
O15   O     O_R   0.137950 0.302488 0.442021 -0.244362
O16   O     O_R   0.033366 0.346285 0.614282 -0.311482
N5    N     N_R   0.802375 0.636101 0.647213 0.117848
O17   O     O_R   0.770091 0.749238 0.635660 -0.299092
O18   O     O_R   0.776975 0.593291 0.742291 -0.319717
O19   O     O_3   0.940171 0.466032 0.408075 -0.574283
H5    H     H_    0.885831 0.409020 0.376954 0.400343
O20   O     O_3   0.754623 0.227414 0.840753 -0.636923
H6    H     H_    0.780619 0.231394 0.762510 0.378620
N6    N     N_R   0.882726 0.280025 0.979216 0.215682
O21   O     O_R   0.914189 0.182187 0.022439 -0.226595
O22   O     O_R   0.978852 0.326585 0.897646 -0.250406
O23   O     O_3   0.455921 0.623862 0.155114 -0.645611
H7    H     H_    0.491409 0.670352 0.206333 0.348750
O24   O     O_3   0.181844 0.639838 0.811337 -0.645366
H8    H     H_    0.120152 0.704522 0.855401 0.396307
N7    N     N_R   0.222394 0.504529 0.151848 0.175898
O25   O     O_R   0.240102 0.398725 0.189978 -0.292802
O26   O     O_R   0.145773 0.587331 0.215780 -0.225109
N8    N     N_R   0.067855 0.639048 0.037493 0.141833
O27   O     O_R   0.066328 0.742235 0.087182 -0.240333
O28   O     O_R   0.950992 0.602520 0.019408 -0.325786
O29   O     O_3   0.538664 0.285636 0.747010 -0.707379
H9    H     H_    0.568036 0.199790 0.751492 0.362441
O30   O     O_3   0.708517 0.115700 0.540740 -0.693420
H10   H     H_    0.767783 0.048940 0.555796 0.370090

loop_
_geom_bond_atom_site_label_1
_geom_bond_atom_site_label_2
_geom_bond_distance
_ccdc_geom_bond_type
O4    Cu2   1.910416 S    
N5    O18   1.300539 A    
C13   C14   1.417528 A    
O6    C3    1.300827 A    
C14   C15   1.415656 A    
C9    N7    1.443189 S    
C19   C20   1.348486 D    
C15   O29   1.382819 S    
C2    C18   1.479877 S    
C14   O20   1.381275 S    
C23   N3    1.426675 S    
O11   H3    0.991794 S    
N1    N4    1.395003 S    
C5    C17   1.401164 A    
C21   C22   1.348307 D    
C16   O23   1.384504 S    
Cu2   O8    1.924822 S    
O23   H7    0.991273 S    
C6    C17   1.410316 A    
N4    O16   1.302482 A    
O2    C1    1.294924 A    
C24   N5    1.430105 S    
O29   H9    0.990409 S    
C19   C21   1.475264 S    
O7    C4    1.308879 A    
N3    O13   1.300418 A    
C7    O24   1.383359 S    
Cu1   O7    1.910418 S    
N5    O17   1.300445 A    
O9    H1    0.990350 S    
C12   C16   1.415462 A    
C17   O9    1.376432 S    
O3    Cu1   1.924822 S    
O4    C2    1.308012 A    
C19   O30   1.383730 S    
C5    C13   1.423011 A    
N4    O15   1.300640 A    
C23   C24   1.508985 S    
C11   C18   1.417275 A    
O8    C4    1.305217 A    
C20   O10   1.387961 S    
C7    C8    1.411818 A    
N3    O14   1.301209 A    
O12   H4    0.989337 S    
C6    C16   1.406276 A    
C1    C22   1.457361 S    
C5    N6    1.434552 S    
C4    C6    1.480524 S    
O3    C2    1.304006 A    
N2    O19   1.341932 S    
O20   H6    0.991079 S    
N6    O22   1.301403 A    
O24   H8    0.989515 S    
O30   H10   0.991860 S    
C3    C20   1.464289 S    
Cu1   Cu2   2.709549 S    
C23   N1    1.307267 D    
C10   C11   1.409201 A    
Cu2   O6    1.961750 S    
N7    O25   1.301586 A    
Cu2   N2    2.036332 S    
Cu1   N1    2.034848 S    
O10   H2    0.989889 S    
Cu1   O5    1.961184 S    
N8    O28   1.300694 A    
C11   C15   1.412042 A    
O19   H5    0.987460 S    
C8    C9    1.410712 A    
O5    C3    1.301944 A    
C21   O11   1.384168 S    
N7    O26   1.300659 A    
N6    O21   1.301046 A    
O1    Cu1   1.961750 S    
C7    C18   1.410645 A    
C8    N8    1.434009 S    
C22   O12   1.384886 S    
C12   C13   1.425321 A    
O2    Cu2   1.961182 S    
C9    C10   1.424486 A    
C10   C12   1.424832 A    
N8    O27   1.300896 A    
O1    C1    1.304027 A    
C24   N2    1.295860 D    
