data_mof_unit_3730.cif
_audit_creation_date              2012-12-10T17:31:17-0500
_audit_creation_method            fapswitch 2.2
_symmetry_space_group_name_H-M    P1
_symmetry_Int_Tables_number       1
_space_group_crystal_system       triclinic
_cell_length_a                    18.898495
_cell_length_b                    18.472197
_cell_length_c                    12.340295
_cell_angle_alpha                 90.017382
_cell_angle_beta                  129.057418
_cell_angle_gamma                 89.972101
_cell_volume                      3345.19208263

loop_
_atom_site_label
_atom_site_type_symbol
_atom_type_description
_atom_site_fract_x
_atom_site_fract_y
_atom_site_fract_z
_atom_type_partial_charge
C1    C     C_R   0.609808 0.896314 0.649543 0.791462
C2    C     C_R   0.609648 0.103771 0.649385 0.791614
C3    C     C_R   0.109817 0.396320 0.649553 0.791433
C4    C     C_R   0.109642 0.603773 0.649379 0.791612
C5    C     C_R   0.234915 0.783006 0.025428 0.075847
C6    C     C_R   0.235281 0.217176 0.025637 0.075811
C7    C     C_R   0.734919 0.283003 0.025429 0.075844
C8    C     C_R   0.735284 0.717193 0.025670 0.075815
C9    C     C_R   0.664599 0.265061 0.031639 0.150753
C10   C     C_R   0.664072 0.734222 0.030337 0.150367
C11   C     C_R   0.164613 0.765041 0.031671 0.150746
C12   C     C_R   0.164015 0.234143 0.030206 0.150352
C13   C     C_R   0.587610 0.228461 0.921260 -0.232529
C14   C     C_R   0.586987 0.770532 0.919397 -0.231919
C15   C     C_R   0.087621 0.728440 0.921295 -0.232501
C16   C     C_R   0.086923 0.270433 0.919227 -0.231889
C17   C     C_R   0.583945 0.202750 0.812475 -0.198530
C18   C     C_R   0.583906 0.796761 0.811455 -0.198140
C19   C     C_R   0.083942 0.702748 0.812483 -0.198522
C20   C     C_R   0.083886 0.296706 0.811349 -0.198144
C21   C     C_R   0.307645 0.824802 0.133589 -0.264539
C22   C     C_R   0.308397 0.175971 0.134691 -0.264306
C23   C     C_R   0.807671 0.324768 0.133632 -0.264514
C24   C     C_R   0.808381 0.675957 0.134677 -0.264331
C25   C     C_R   0.247215 0.822378 0.258436 -0.016516
C26   C     C_R   0.245875 0.176458 0.256533 -0.016770
C27   C     C_R   0.747178 0.322414 0.258386 -0.016517
C28   C     C_R   0.745958 0.676535 0.256664 -0.016762
C29   C     C_R   0.667046 0.167833 0.725500 -0.111014
C30   C     C_R   0.667693 0.832529 0.726161 -0.110762
C31   C     C_R   0.167037 0.667839 0.725489 -0.111016
C32   C     C_R   0.167731 0.332553 0.726199 -0.110734
C33   C     C_R   0.686036 0.000221 0.288320 -0.289535
C34   C     C_R   0.186035 0.500216 0.288320 -0.289529
C35   C     C_R   0.343042 0.999663 0.627452 0.128132
C36   C     C_R   0.843041 0.499690 0.627450 0.128133
C37   C     C_R   0.307574 0.999428 0.699150 0.122177
C38   C     C_R   0.807570 0.499479 0.699144 0.122144
C39   C     C_R   0.384854 0.100110 0.343752 0.794665
C40   C     C_R   0.384903 0.899880 0.343783 0.795000
C41   C     C_R   0.884859 0.600113 0.343759 0.794675
C42   C     C_R   0.884903 0.399879 0.343784 0.794996
C43   C     C_R   0.368220 0.999635 0.845491 -0.278671
C44   C     C_R   0.868217 0.499672 0.845487 -0.278695
C45   C     C_R   0.463292 0.999931 0.921617 -0.030944
C46   C     C_R   0.963291 0.499942 0.921616 -0.030938
C47   C     C_R   0.495174 0.000053 0.842859 0.242536
C48   C     C_R   0.995173 0.500052 0.842858 0.242557
C49   C     C_R   0.527605 0.000016 0.072563 -0.035368
C50   C     C_R   0.027604 0.500021 0.072562 -0.035366
C51   C     C_R   0.622539 0.000167 0.141196 0.112805
C52   C     C_R   0.122538 0.500165 0.141196 0.112811
C53   C     C_R   0.652468 0.000229 0.061917 -0.081565
C54   C     C_R   0.152467 0.500224 0.061917 -0.081572
C55   C     C_R   0.589788 0.000146 0.916851 -0.201769
C56   C     C_R   0.089788 0.500141 0.916851 -0.201765
C57   C     C_R   0.502119 0.999949 0.159560 0.020106
C58   C     C_R   0.002118 0.499953 0.159560 0.020113
C59   C     C_R   0.656383 0.000128 0.366494 0.066424
C60   C     C_R   0.156383 0.500124 0.366494 0.066436
C61   C     C_R   0.672024 0.283554 0.148446 -0.228252
C62   C     C_R   0.670721 0.715145 0.146220 -0.228188
C63   C     C_R   0.172058 0.783513 0.148506 -0.228248
C64   C     C_R   0.170621 0.215036 0.146040 -0.228187
C65   C     C_R   0.313059 0.847169 0.247011 -0.104403
C66   C     C_R   0.312864 0.152740 0.246819 -0.104663
C67   C     C_R   0.813056 0.347169 0.247012 -0.104426
C68   C     C_R   0.812886 0.652759 0.246855 -0.104653
C69   C     C_R   0.734716 0.185603 0.714912 -0.172001
C70   C     C_R   0.736012 0.815352 0.716686 -0.171658
C71   C     C_R   0.234705 0.685609 0.714900 -0.171987
C72   C     C_R   0.236103 0.315430 0.716816 -0.171638
C73   C     C_R   0.297542 0.739665 0.797583 -0.125688
C74   C     C_R   0.299394 0.261719 0.800172 -0.125774
C75   C     C_R   0.797538 0.239673 0.797572 -0.125675
C76   C     C_R   0.799277 0.761621 0.800009 -0.125763
C77   C     C_R   0.297729 0.773691 0.898202 -0.192271
C78   C     C_R   0.299269 0.227423 0.900263 -0.191340
C79   C     C_R   0.797718 0.273708 0.898179 -0.192277
C80   C     C_R   0.799185 0.727357 0.900157 -0.191404
C81   C     C_R   0.731575 0.256268 0.914038 0.088011
C82   C     C_R   0.732391 0.744246 0.914913 0.087960
C83   C     C_R   0.231572 0.756267 0.914040 0.088017
C84   C     C_R   0.232424 0.244259 0.914931 0.087959
C85   C     C_R   0.659999 0.208473 0.816121 0.082088
C86   C     C_R   0.660491 0.791662 0.816330 0.081728
C87   C     C_R   0.159991 0.708475 0.816119 0.082068
C88   C     C_R   0.160508 0.291656 0.816314 0.081717
Cu1   Cu    Cu3+1 0.526340 1.000000 0.421010 0.934266
Cu2   Cu    Cu3+1 0.026340 0.500000 0.421010 0.934269
Cu3   Cu    Cu3+1 0.473640 1.000000 0.578990 0.930685
Cu4   Cu    Cu3+1 0.973640 0.500000 0.578990 0.930690
H1    H     H_    0.758777 0.000332 0.343997 0.152432
H2    H     H_    0.258777 0.500323 0.343997 0.152429
H3    H     H_    0.431782 0.999883 0.116409 0.121415
H4    H     H_    0.931782 0.499887 0.116408 0.121413
H5    H     H_    0.298315 0.999525 0.514841 0.149007
H6    H     H_    0.798313 0.499562 0.514838 0.148998
H7    H     H_    0.338851 0.999464 0.897235 0.134483
H8    H     H_    0.838848 0.499520 0.897231 0.134481
H9    H     H_    0.618586 0.000093 0.865508 0.213592
H10   H     H_    0.118585 0.500089 0.865507 0.213589
H11   H     H_    0.530392 0.218844 0.919739 0.142386
H12   H     H_    0.529229 0.779547 0.916791 0.142586
H13   H     H_    0.030410 0.718813 0.919792 0.142406
H14   H     H_    0.029130 0.279404 0.916550 0.142569
H15   H     H_    0.619837 0.266513 0.154979 0.139430
H16   H     H_    0.617794 0.731470 0.151571 0.139626
H17   H     H_    0.119890 0.766455 0.155070 0.139436
H18   H     H_    0.117648 0.231314 0.151316 0.139630
H19   H     H_    0.361817 0.840475 0.132324 0.160029
H20   H     H_    0.363664 0.161476 0.135254 0.160036
H21   H     H_    0.861894 0.340380 0.132445 0.160035
H22   H     H_    0.863600 0.661412 0.135158 0.160038
H23   H     H_    0.740222 0.156850 0.643990 0.157198
H24   H     H_    0.741672 0.844326 0.646147 0.156814
H25   H     H_    0.240204 0.656860 0.643967 0.157210
H26   H     H_    0.241786 0.344433 0.646326 0.156781
H27   H     H_    0.350150 0.813694 0.960481 0.125941
H28   H     H_    0.351911 0.187600 0.962966 0.125861
H29   H     H_    0.850108 0.313736 0.960421 0.125963
H30   H     H_    0.851809 0.687518 0.962831 0.125864
H31   H     H_    0.348758 0.753437 0.787284 0.146408
H32   H     H_    0.351136 0.248417 0.790762 0.145092
H33   H     H_    0.848745 0.253454 0.787257 0.146373
H34   H     H_    0.850978 0.748275 0.790527 0.145186
H35   H     H_    0.520278 0.178922 0.725762 0.185415
H36   H     H_    0.520253 0.820458 0.724336 0.185308
H37   H     H_    0.020272 0.678923 0.725765 0.185416
H38   H     H_    0.020239 0.320403 0.724209 0.185259
H39   H     H_    0.705481 0.000177 0.479276 0.122747
H40   H     H_    0.205481 0.500170 0.479276 0.122737
N1    N     N_R   0.566260 1.000000 0.302220 -0.177644
N2    N     N_R   0.066260 0.500000 0.302220 -0.177642
N3    N     N_R   0.434410 0.000000 0.697680 -0.231849
N4    N     N_R   0.934410 0.500000 0.697680 -0.231840
O1    O     O_R   0.608610 0.924520 0.551740 -0.578740
O2    O     O_R   0.608610 0.075480 0.551740 -0.579064
O3    O     O_R   0.108610 0.424520 0.551740 -0.578735
O4    O     O_R   0.108610 0.575480 0.551740 -0.579071
O5    O     O_R   0.564110 0.924510 0.685150 -0.603232
O6    O     O_R   0.564110 0.075490 0.685150 -0.603584
O7    O     O_R   0.064110 0.424510 0.685150 -0.603213
O8    O     O_R   0.064110 0.575490 0.685150 -0.603586
O9    O     O_R   0.435880 0.075470 0.314850 -0.586082
O10   O     O_R   0.435880 0.924530 0.314850 -0.586135
O11   O     O_R   0.935880 0.575470 0.314850 -0.586092
O12   O     O_R   0.935880 0.424530 0.314850 -0.586118
O13   O     O_R   0.391380 0.075460 0.448260 -0.583900
O14   O     O_R   0.391380 0.924540 0.448260 -0.584082
O15   O     O_R   0.891380 0.575460 0.448260 -0.583914
O16   O     O_R   0.891380 0.424540 0.448260 -0.584076
C89   C     C_1   0.256328 0.832574 0.382733 0.240120
N5    N     N_1   0.263960 0.839706 0.482821 -0.314910
C90   C     C_1   0.253857 0.165484 0.379672 0.240866
N6    N     N_1   0.260555 0.157761 0.478847 -0.313785
C91   C     C_1   0.756254 0.332633 0.382644 0.240142
N7    N     N_1   0.763848 0.339781 0.482697 -0.314890
C92   C     C_1   0.753989 0.665586 0.379851 0.240838
N8    N     N_1   0.760722 0.657881 0.479060 -0.313843
C93   C     C_1   0.748359 0.000355 0.126590 0.236436
N9    N     N_1   0.824930 0.000457 0.178020 -0.292228
C94   C     C_1   0.248359 0.500347 0.126590 0.236435
N10   N     N_1   0.324930 0.500447 0.178021 -0.292232
C95   C     C_3   0.206262 0.998918 0.626621 -0.398668
C96   C     C_3   0.142168 0.998240 0.467038 -0.814584
H41   H     H_    0.151942 0.047348 0.426220 0.260691
H42   H     H_    0.153219 0.949107 0.427821 0.260501
H43   H     H_    0.070489 0.997732 0.426707 0.258154
H44   H     H_    0.191034 0.950377 0.662014 0.215205
H45   H     H_    0.190088 0.047533 0.660575 0.215379
C97   C     C_3   0.706255 0.499016 0.626609 -0.398623
C98   C     C_3   0.642156 0.498383 0.467021 -0.814519
H46   H     H_    0.651976 0.547488 0.426251 0.260657
H47   H     H_    0.653155 0.449245 0.427747 0.260485
H48   H     H_    0.570470 0.497919 0.426679 0.258138
H49   H     H_    0.690989 0.450479 0.661959 0.215194
H50   H     H_    0.690120 0.547633 0.660615 0.215365

loop_
_geom_bond_atom_site_label_1
_geom_bond_atom_site_label_2
_ccdc_geom_bond_type
C97   H49   S    
C19   H37   S    
C83   C87   A    
C4    O4    A    
C24   H22   S    
C95   C96   S    
C76   H34   S    
C13   H11   S    
C14   C18   A    
C78   H28   S    
C94   N10   T    
C57   H3    S    
C42   O12   A    
C60   H40   S    
Cu3   N3    S    
C93   N9    T    
C32   C72   A    
C80   H30   S    
C98   H46   S    
C58   N2    A    
Cu1   O9    S    
C79   H29   S    
C40   O14   A    
C59   H39   S    
C18   C86   A    
C2    C29   S    
C17   C85   A    
C28   C68   A    
C43   H7    S    
C55   H9    S    
C5    C11   A    
C19   C87   A    
C6    C12   A    
Cu2   N2    S    
C62   H16   S    
C77   C83   A    
C6    C22   A    
C49   C57   A    
C48   C56   A    
C25   C63   A    
C45   C47   A    
C23   C67   A    
Cu4   O7    S    
C9    C13   A    
C22   C66   A    
C58   H4    S    
C27   C61   A    
C6    C84   A    
C18   H36   S    
C11   C15   A    
C91   N7    T    
C12   C16   A    
C52   C54   A    
C49   C51   A    
Cu4   O16   S    
C50   C52   A    
C54   C94   S    
C30   C86   A    
C42   O16   A    
C29   C85   A    
C16   H14   S    
Cu3   O6    S    
C21   C65   A    
C31   C71   A    
C33   C59   A    
C34   C60   A    
C57   N1    A    
C26   C90   S    
C10   C62   A    
C61   H15   S    
C64   H18   S    
C36   N4    A    
C30   C70   A    
C44   C46   A    
Cu2   O3    S    
C41   C68   S    
C46   C48   A    
C53   C55   A    
Cu1   O10   S    
C54   C56   A    
C31   C87   A    
C71   H25   S    
C25   C89   S    
C2    O2    A    
C34   H2    S    
C96   H42   S    
Cu1   N1    S    
C72   C74   A    
C10   C14   A    
C35   N3    A    
Cu3   O13   S    
C17   H35   S    
C37   C95   S    
C70   H24   S    
C82   C86   A    
C59   N1    A    
C28   C92   S    
C14   H12   S    
C75   H33   S    
C26   C66   A    
C63   H17   S    
C15   C19   A    
C38   C44   A    
Cu2   O11   S    
C23   H21   S    
C21   H19   S    
Cu2   Cu4   S    
C92   N8    T    
C41   O11   A    
C45   C49   A    
C16   C20   A    
C39   O9    A    
Cu4   O15   S    
C50   C58   A    
C3    O7    A    
Cu4   N4    S    
C33   C51   A    
C43   C45   A    
C98   H47   S    
C95   H45   S    
C80   C82   A    
C7    C81   A    
Cu1   O1    S    
C40   C65   S    
C70   C76   A    
C96   H41   S    
C2    O6    A    
C39   C66   S    
C9    C61   A    
C37   C43   A    
C3    O3    A    
Cu2   O12   S    
C72   H26   S    
C60   N2    A    
C1    O1    A    
C97   C98   S    
C35   C37   A    
C47   C55   A    
C98   H48   S    
C97   H50   S    
C95   H44   S    
C7    C9    A    
C12   C64   A    
C46   C50   A    
C69   H23   S    
C47   N3    A    
C34   C52   A    
C48   N4    A    
C76   C80   A    
C20   H38   S    
C77   H27   S    
C33   H1    S    
C4    O8    A    
Cu3   O14   S    
Cu2   O4    S    
C5    C83   A    
C38   C97   S    
C41   O15   A    
C26   C64   A    
C27   C91   S    
C39   O13   A    
C79   C81   A    
C40   O10   A    
C15   H13   S    
C36   C38   A    
C56   H10   S    
C73   H31   S    
C44   H8    S    
C53   C93   S    
C1    O5    A    
C42   C67   S    
C84   C88   A    
C7    C23   A    
C20   C88   A    
Cu1   Cu3   S    
C1    C30   S    
C8    C24   A    
C69   C75   A    
C3    C32   S    
Cu4   O8    S    
C4    C31   S    
C27   C67   A    
C24   C68   A    
C13   C17   A    
C78   C84   A    
C8    C82   A    
C5    C21   A    
C96   H43   S    
C8    C10   A    
Cu1   O2    S    
C74   C78   A    
C71   C73   A    
C90   N6    T    
C25   C65   A    
C73   C77   A    
C29   C69   A    
C36   H6    S    
C51   C53   A    
C89   N5    T    
C35   H5    S    
C11   C63   A    
C75   C79   A    
C81   C85   A    
C22   H20   S    
C28   C62   A    
Cu3   O5    S    
C74   H32   S    
C32   C88   A    
