data_mof_unit_4669.cif
_audit_creation_date              2012-12-10T17:15:54-0500
_audit_creation_method            fapswitch 2.2
_symmetry_space_group_name_H-M    P1
_symmetry_Int_Tables_number       1
_space_group_crystal_system       triclinic
_cell_length_a                    10.149059
_cell_length_b                    10.633004
_cell_length_c                    10.755012
_cell_angle_alpha                 90.274111
_cell_angle_beta                  95.910473
_cell_angle_gamma                 81.235935
_cell_volume                      1140.90758634

loop_
_atom_site_label
_atom_site_type_symbol
_atom_type_description
_atom_site_fract_x
_atom_site_fract_y
_atom_site_fract_z
_atom_type_partial_charge
C1    C     C_R   0.443347 0.513311 0.267071 0.945773
C2    C     C_2   0.490190 0.555489 0.934658 -0.181050
C3    C     C_2   0.080104 0.473627 0.499167 0.532023
C4    C     C_R   0.501196 0.260458 0.504877 0.874220
C5    C     C_2   0.937406 0.472507 0.531128 -0.302093
C6    C     C_R   0.556957 0.495515 0.733623 0.834311
C7    C     C_R   0.501427 0.739191 0.504457 0.850689
C8    C     C_R   0.691857 0.103778 0.683515 -0.184060
C9    C     C_R   0.784432 0.024945 0.764667 -0.138242
C10   C     C_R   0.784792 0.894077 0.764217 -0.144813
C11   C     C_R   0.692548 0.841543 0.682661 -0.193364
C12   C     C_R   0.599340 0.051834 0.598162 0.096663
C13   C     C_R   0.599711 0.919858 0.597733 0.104022
C14   C     C_3   0.107284 0.634000 0.651124 -0.347065
C15   C     C_3   0.180031 0.748256 0.673840 -0.742542
C16   C     C_3   0.734701 0.466023 0.925123 -0.415856
C17   C     C_3   0.749647 0.339116 0.995101 -0.841568
C18   C     C_R   0.503218 0.127889 0.514847 -0.109482
C19   C     C_R   0.406096 0.077511 0.437860 -0.198825
C20   C     C_R   0.406480 0.949116 0.437442 -0.223633
C21   C     C_R   0.503953 0.871120 0.514028 -0.098158
C22   C     C_2   0.410488 0.534697 0.134302 -0.381721
C23   C     C_2   0.506445 0.563720 0.068691 -0.153354
C24   C     C_2   0.591196 0.507484 0.867793 0.000033
H1    H     H_    0.332071 0.137619 0.375479 0.172068
H2    H     H_    0.388274 0.581355 0.890878 0.165459
H3    H     H_    0.602645 0.580221 0.114517 0.191465
H4    H     H_    0.074078 0.324069 0.396130 0.305185
H5    H     H_    0.285181 0.718886 0.713164 0.267573
H6    H     H_    0.174215 0.804420 0.586162 0.263618
H7    H     H_    0.130106 0.811033 0.743522 0.204709
H8    H     H_    0.000622 0.676191 0.626437 0.178816
H9    H     H_    0.116294 0.577847 0.739351 0.169458
H10   H     H_    0.690822 0.347635 0.076936 0.276581
H11   H     H_    0.715168 0.265225 0.931794 0.251646
H12   H     H_    0.312852 0.520319 0.089792 0.157575
H13   H     H_    0.856702 0.308198 0.029129 0.239952
H14   H     H_    0.804497 0.454067 0.851436 0.210467
H15   H     H_    0.768499 0.540396 0.988164 0.199425
H16   H     H_    0.911177 0.497377 0.624274 0.151851
H17   H     H_    0.867066 0.433631 0.358857 0.180978
H18   H     H_    0.692498 0.205141 0.690018 0.155561
H19   H     H_    0.855043 0.065697 0.829164 0.136081
H20   H     H_    0.855681 0.833165 0.828295 0.129817
H21   H     H_    0.693790 0.739932 0.688584 0.144027
H22   H     H_    0.332590 0.909950 0.374891 0.155737
N1    N     N_2   0.157290 0.551390 0.551110 -0.050568
N2    N     N_2   0.842740 0.448550 0.448960 -0.188801
O1    O     O_R   0.568950 0.489660 0.307530 -0.616691
O2    O     O_R   0.348880 0.522640 0.340350 -0.560283
O3    O     O_R   0.610060 0.300270 0.483590 -0.611038
O4    O     O_R   0.389990 0.333260 0.516410 -0.558244
O5    O     O_R   0.651120 0.477360 0.659650 -0.629113
O6    O     O_R   0.431050 0.510340 0.692470 -0.621786
O7    O     O_R   0.610010 0.666740 0.483590 -0.610713
O8    O     O_R   0.389940 0.699730 0.516410 -0.619953
O9    O     O_3   0.132104 0.390666 0.411184 -0.744087
Zn1   Zn    Zn3+2 0.646940 0.477980 0.478090 0.931467
Zn2   Zn    Zn3+2 0.353060 0.522020 0.521910 0.989855

loop_
_geom_bond_atom_site_label_1
_geom_bond_atom_site_label_2
_ccdc_geom_bond_type
O5    Zn1   S    
N2    Zn1   S    
C14   N1    S    
O4    Zn2   S    
C23   H3    S    
C15   H5    S    
C22   H12   S    
C9    C10   A    
C19   C20   A    
C14   C15   S    
O8    Zn2   S    
C7    O7    A    
C8    C12   A    
C6    C24   S    
C4    O3    A    
C14   H9    S    
C13   C21   A    
C1    C22   S    
C16   C24   S    
O3    Zn1   S    
C17   H13   S    
H4    O9    S    
C20   C21   A    
C15   H7    S    
C11   C13   A    
C16   H14   S    
C17   H10   S    
C7    O8    A    
C4    O4    A    
O2    Zn2   S    
C3    O9    S    
C3    N1    D    
C10   H20   S    
H17   N2    S    
C8    H18   S    
C6    O6    A    
O6    Zn2   S    
C2    C24   D    
C19   H1    S    
C5    N2    D    
C9    H19   S    
C11   H21   S    
C10   C11   A    
C16   H15   S    
N1    Zn2   S    
C17   H11   S    
C12   C13   A    
C15   H6    S    
C2    H2    S    
C18   C19   A    
C1    O2    A    
O7    Zn1   S    
C12   C18   A    
C2    C23   S    
C22   C23   D    
C8    C9    A    
C6    O5    A    
C5    H16   S    
C7    C21   S    
C1    O1    A    
C4    C18   S    
C20   H22   S    
O1    Zn1   S    
C14   H8    S    
C16   C17   S    
C3    C5    S    
