data_mof_unit_126.cif
_audit_creation_date              2012-12-11T16:49:07-0500
_audit_creation_method            fapswitch 2.2
_symmetry_space_group_name_H-M    P1
_symmetry_Int_Tables_number       1
_space_group_crystal_system       triclinic
_cell_length_a                    6.92187
_cell_length_b                    25.947311
_cell_length_c                    28.935993
_cell_angle_alpha                 89.738873
_cell_angle_beta                  89.802659
_cell_angle_gamma                 89.868789
_cell_volume                      5196.91934579

loop_
_atom_site_label
_atom_site_type_symbol
_atom_type_description
_atom_site_fract_x
_atom_site_fract_y
_atom_site_fract_z
_atom_type_partial_charge
O1    O     O_R   0.601010 0.796750 0.202520 -0.540692
O2    O     O_R   0.398990 0.203250 0.797480 -0.551121
O3    O     O_R   0.271260 0.802890 0.297300 -0.514136
O4    O     O_R   0.728740 0.197110 0.702700 -0.512380
O5    O     O_R   0.100940 0.703200 0.297630 -0.542181
O6    O     O_R   0.899060 0.296800 0.702370 -0.541331
C1    C     C_R   0.439651 0.816305 0.312646 0.744851
C2    C     C_R   0.560325 0.183597 0.687450 0.730117
O7    O     O_R   0.271300 0.802890 0.202860 -0.527086
O8    O     O_R   0.728700 0.197110 0.797140 -0.521611
O9    O     O_R   0.100980 0.703210 0.202520 -0.543728
O10   O     O_R   0.899020 0.296790 0.797480 -0.544019
C3    C     C_R   0.440130 0.814231 0.186065 0.684916
C4    C     C_R   0.559239 0.183348 0.812047 0.674075
O11   O     O_R   0.600970 0.796740 0.297640 -0.532850
O12   O     O_R   0.399030 0.203260 0.702360 -0.539074
O13   O     O_3   0.434500 0.717270 0.250080 -0.383082
O14   O     O_3   0.565500 0.282730 0.749920 -0.377818
V1    V     V_3+5 0.159650 0.756040 0.250080 1.486605
V2    V     V_3+5 0.840350 0.243960 0.749920 1.486323
O15   O     O_R   0.771260 0.697060 0.202850 -0.551420
O16   O     O_R   0.228740 0.302940 0.797150 -0.544360
C5    C     C_R   0.940531 0.684647 0.186737 0.683916
C6    C     C_R   0.059412 0.315540 0.813122 0.680238
O17   O     O_R   0.771230 0.697050 0.297300 -0.546088
O18   O     O_R   0.228770 0.302950 0.702700 -0.544884
C7    C     C_R   0.940185 0.684317 0.313425 0.681313
C8    C     C_R   0.059815 0.315682 0.686574 0.684375
V3    V     V_3+5 0.659640 0.743910 0.250080 1.430058
V4    V     V_3+5 0.340360 0.256090 0.749920 1.418393
O19   O     O_3   0.934660 0.782680 0.250080 -0.338727
O20   O     O_3   0.065340 0.217320 0.749920 -0.344519
C9    C     C_R   0.131274 0.630470 0.369994 -0.157358
C10   C     C_R   0.868725 0.369530 0.630006 -0.156753
H1    H     H_    0.264108 0.646518 0.356356 0.117700
H2    H     H_    0.735892 0.353481 0.643643 0.118060
C11   C     C_R   0.142889 0.594622 0.406286 -0.132978
C12   C     C_R   0.857111 0.405378 0.593715 -0.132629
H3    H     H_    0.284160 0.584237 0.419339 0.132129
H4    H     H_    0.715839 0.415764 0.580662 0.132049
C13   C     C_R   0.974939 0.572667 0.425505 0.018976
C14   C     C_R   0.025060 0.427335 0.574496 0.018907
C15   C     C_R   0.794852 0.587576 0.407179 -0.129283
C16   C     C_R   0.205147 0.412425 0.592822 -0.128888
H5    H     H_    0.662252 0.571573 0.420974 0.137839
H6    H     H_    0.337747 0.428428 0.579027 0.137974
C17   C     C_R   0.783189 0.623477 0.370820 -0.160775
C18   C     C_R   0.216811 0.376522 0.629179 -0.159800
H7    H     H_    0.642049 0.634046 0.357792 0.116499
H8    H     H_    0.357951 0.365953 0.642207 0.117011
C19   C     C_R   0.951311 0.645519 0.351711 -0.051889
C20   C     C_R   0.048689 0.354480 0.648288 -0.052494
N1    N     N_R   0.826091 0.513504 0.483249 -0.275664
N2    N     N_R   0.173908 0.486498 0.516753 -0.275496
N3    N     N_R   0.837912 0.479655 0.518004 -0.280848
N4    N     N_R   0.162087 0.520347 0.481998 -0.280803
C21   C     C_R   0.012077 0.465337 0.535601 0.513334
C22   C     C_R   0.987922 0.534665 0.464400 0.513116
C23   C     C_R   0.130825 0.634144 0.128027 -0.143396
C24   C     C_R   0.869016 0.366599 0.871455 -0.160133
H9    H     H_    0.262727 0.652147 0.139767 0.115265
H10   H     H_    0.737185 0.348406 0.859910 0.118619
C25   C     C_R   0.142129 0.598722 0.091769 -0.133460
C26   C     C_R   0.857681 0.402367 0.907446 -0.142208
H11   H     H_    0.281980 0.590935 0.076420 0.101789
H12   H     H_    0.717902 0.410209 0.922810 0.099767
C27   C     C_R   0.974993 0.574486 0.074966 0.094462
C28   C     C_R   0.024769 0.426820 0.924017 0.095177
C29   C     C_R   0.796002 0.586838 0.095423 -0.132265
C30   C     C_R   0.203650 0.414463 0.903514 -0.138559
H13   H     H_    0.664558 0.568462 0.083887 0.097618
H14   H     H_    0.335006 0.433039 0.914854 0.100570
C31   C     C_R   0.784560 0.622427 0.131621 -0.153800
C32   C     C_R   0.215115 0.378555 0.867572 -0.159954
H15   H     H_    0.644326 0.630888 0.146489 0.114762
H16   H     H_    0.355279 0.370106 0.852660 0.119741
C33   C     C_R   0.951930 0.646496 0.148490 -0.044624
C34   C     C_R   0.047892 0.354115 0.851039 -0.053381
C35   C     C_R   0.842999 0.534521 0.002271 -0.143052
C36   C     C_R   0.156980 0.466924 0.996597 -0.149432
H17   H     H_    0.721591 0.560879 0.003215 0.115942
H18   H     H_    0.278366 0.440557 0.995658 0.109188
C37   C     C_R   0.855217 0.499132 0.965961 -0.148343
C38   C     C_R   0.144737 0.502298 0.032911 -0.149940
H19   H     H_    0.742730 0.499271 0.940055 0.111949
H20   H     H_    0.257170 0.502118 0.058830 0.108013
C39   C     C_R   0.012363 0.464805 0.962602 0.080876
C40   C     C_R   0.987576 0.536621 0.036283 0.081419
C41   C     C_R   0.389663 0.143857 0.620546 -0.154922
C42   C     C_R   0.610479 0.855668 0.379726 -0.153026
H21   H     H_    0.273631 0.171482 0.625071 0.149033
H22   H     H_    0.726590 0.828104 0.375028 0.149741
C43   C     C_R   0.376514 0.108567 0.584291 -0.117575
C44   C     C_R   0.623737 0.890744 0.416152 -0.115844
H23   H     H_    0.251500 0.110165 0.561935 0.117980
H24   H     H_    0.748920 0.889051 0.438448 0.119574
C45   C     C_R   0.524585 0.072549 0.576316 0.038093
C46   C     C_R   0.475604 0.926681 0.424351 0.037522
C47   C     C_R   0.684984 0.072326 0.605947 -0.157646
C48   C     C_R   0.314969 0.927011 0.394795 -0.158978
H25   H     H_    0.798563 0.044028 0.601284 0.142498
H26   H     H_    0.201290 0.955244 0.399631 0.141242
C49   C     C_R   0.699352 0.107370 0.642537 0.258369
C50   C     C_R   0.300463 0.892175 0.358052 0.256695
C51   C     C_R   0.551122 0.144328 0.650011 -0.116257
C52   C     C_R   0.448863 0.855340 0.350299 -0.113763
C53   C     C_R   0.677207 0.022020 0.511465 -0.151977
C54   C     C_R   0.323215 0.977024 0.489351 -0.151677
H27   H     H_    0.815392 0.039575 0.518872 0.106938
H28   H     H_    0.185013 0.959479 0.481946 0.108003
C55   C     C_R   0.665638 0.986888 0.474993 -0.136544
C56   C     C_R   0.334779 0.012162 0.525816 -0.135129
H29   H     H_    0.795150 0.978407 0.455327 0.113823
H30   H     H_    0.205253 0.020663 0.545471 0.114701
C57   C     C_R   0.488447 0.963926 0.463407 0.101094
C58   C     C_R   0.511934 0.035152 0.537379 0.101613
C59   C     C_R   0.404063 0.104226 0.848763 -0.046113
C60   C     C_R   0.570766 0.841229 0.107595 -0.015546
C61   C     C_R   0.393628 0.069426 0.886225 -0.110869
C62   C     C_R   0.581354 0.878375 0.072015 -0.106913
H31   H     H_    0.283656 0.039771 0.886583 0.153317
H32   H     H_    0.672757 0.871409 0.042205 0.154117
C63   C     C_R   0.523896 0.072161 0.923224 0.045811
C64   C     C_R   0.474664 0.924394 0.074203 0.041029
C65   C     C_R   0.667048 0.110331 0.922479 -0.123196
C66   C     C_R   0.355763 0.933216 0.112747 -0.126456
H33   H     H_    0.770771 0.112898 0.950307 0.113068
H34   H     H_    0.270497 0.968163 0.115053 0.119780
C67   C     C_R   0.679444 0.145211 0.885604 -0.120320
C68   C     C_R   0.343223 0.896700 0.148355 -0.127150
H35   H     H_    0.790484 0.174559 0.886289 0.113838
H36   H     H_    0.250833 0.904654 0.177783 0.144915
C69   C     C_R   0.547746 0.143276 0.848776 -0.113949
C70   C     C_R   0.451237 0.850828 0.146635 -0.125251
C71   C     C_R   0.486627 0.981739 0.953207 -0.134304
C72   C     C_R   0.509166 0.015366 0.044690 -0.142513
H37   H     H_    0.478502 0.967883 0.918022 0.127545
H38   H     H_    0.519258 0.029027 0.079905 0.116793
C73   C     C_R   0.474711 0.946169 0.989570 -0.139232
C74   C     C_R   0.523552 0.050935 0.008236 -0.148971
H39   H     H_    0.455064 0.905781 0.981606 0.125285
H40   H     H_    0.541505 0.091401 0.016106 0.112002
C75   C     C_R   0.485599 0.962546 0.035726 0.084017
C76   C     C_R   0.511706 0.034511 0.962086 0.082993
Br1   Br    Br    0.920663 0.099847 0.682035 -0.528287
Br2   Br    Br    0.078621 0.899816 0.318769 -0.561928
C77   C     C_2   0.269973 0.097437 0.809227 0.430838
H41   H     H_    0.298933 0.115613 0.776129 0.079394
O21   O     O_2   0.125689 0.070708 0.812962 -0.507731
C78   C     C_2   0.677999 0.791862 0.102210 0.372724
H42   H     H_    0.646463 0.759059 0.124265 0.040569
O22   O     O_2   0.802270 0.786943 0.072479 -0.527507

loop_
_geom_bond_atom_site_label_1
_geom_bond_atom_site_label_2
_ccdc_geom_bond_type
C47   C49   A    
C25   H11   S    
O13   V3    S    
C3    C70   S    
C37   C39   A    
C77   H41   S    
O4    C2    A    
V1    O19   S    
C2    C51   S    
C23   C33   A    
C56   H30   S    
C17   H7    S    
C71   C73   A    
C24   C34   A    
C27   C40   S    
C32   H16   S    
C26   C28   A    
C54   C57   A    
C29   C31   A    
C77   O21   D    
C74   H40   S    
C13   C22   S    
C12   C14   A    
C36   C39   A    
O3    C1    A    
C59   C61   A    
C63   C65   A    
C44   C46   A    
O12   V4    S    
C48   C50   A    
C24   H10   S    
C29   H13   S    
O7    C3    A    
C43   H23   S    
O13   V1    S    
O5    C7    A    
C73   C75   A    
C72   C74   A    
O7    V1    S    
O6    C8    A    
C16   H6    S    
C35   C37   A    
C63   C76   S    
C30   C32   A    
C64   C75   S    
C42   C44   A    
O14   V4    S    
C41   H21   S    
C10   H2    S    
C60   C70   A    
C36   C38   A    
C53   C55   A    
C28   C30   A    
O16   C6    A    
C61   H31   S    
C59   C69   A    
C2    O12   A    
C11   C13   A    
C13   C15   A    
C68   C70   A    
C14   C16   A    
C14   C21   S    
O1    V3    S    
C35   C40   A    
C45   C47   A    
C62   H32   S    
C24   C26   A    
O11   V3    S    
N2    N4    A    
N1    N3    A    
O17   V3    S    
C25   C27   A    
C23   H9    S    
V4    O20   S    
C50   Br2   S    
C42   C52   A    
C36   H18   S    
O8    C4    A    
O8    V2    S    
C35   H17   S    
C17   C19   A    
C1    O11   A    
O15   V3    S    
C9    C11   A    
C9    C19   A    
C54   C56   A    
C27   C29   A    
C26   H12   S    
C68   H36   S    
C42   H22   S    
O9    V1    S    
O3    V1    S    
O10   V2    S    
C48   H26   S    
C1    C52   S    
C55   H29   S    
C5    C33   S    
C45   C58   S    
C44   H24   S    
C18   H8    S    
C15   H5    S    
C67   C69   A    
C6    C34   S    
C71   C76   A    
C47   H25   S    
O18   V4    S    
C46   C48   A    
O15   C5    A    
C8    C20   S    
C49   C51   A    
C78   O22   D    
C23   C25   A    
O17   C7    A    
C31   H15   S    
C43   C45   A    
C56   C58   A    
C49   Br1   S    
C72   H38   S    
C64   C66   A    
V2    O20   S    
C71   H37   S    
C66   H34   S    
O16   V4    S    
C37   H19   S    
C10   C12   A    
C10   C20   A    
C74   C76   A    
C38   H20   S    
C30   H14   S    
N1    C22   A    
C54   H28   S    
C50   C52   A    
O5    V1    S    
C4    C69   S    
C61   C63   A    
C72   C75   A    
O6    V2    S    
O10   C6    A    
O18   C8    A    
C59   C77   S    
O2    V4    S    
N3    C21   A    
C60   C78   S    
C11   H3    S    
C16   C18   A    
C12   H4    S    
C7    C19   S    
C73   H39   S    
C46   C57   S    
C53   H27   S    
C38   C40   A    
O9    C5    A    
C9    H1    S    
N4    C22   A    
O14   V2    S    
C41   C43   A    
O2    C4    A    
C60   C62   A    
C53   C58   A    
O4    V2    S    
C65   C67   A    
C18   C20   A    
O1    C3    A    
C31   C33   A    
V3    O19   S    
C32   C34   A    
C41   C51   A    
C65   H33   S    
C28   C39   S    
C66   C68   A    
C78   H42   S    
C55   C57   A    
C15   C17   A    
C62   C64   A    
C67   H35   S    
N2    C21   A    
