data_mof_unit_3121.cif
_audit_creation_date              2012-12-11T14:50:45-0500
_audit_creation_method            fapswitch 2.2
_symmetry_space_group_name_H-M    P1
_symmetry_Int_Tables_number       1
_space_group_crystal_system       triclinic
_cell_length_a                    10.883121
_cell_length_b                    10.912418
_cell_length_c                    18.826754
_cell_angle_alpha                 90.320035
_cell_angle_beta                  89.820997
_cell_angle_gamma                 60.225174
_cell_volume                      1940.63866141

loop_
_atom_site_label
_atom_site_type_symbol
_atom_type_description
_atom_site_fract_x
_atom_site_fract_y
_atom_site_fract_z
_atom_type_partial_charge
C1    C     C_R   0.239302 0.645483 0.610474 0.541409
C2    C     C_R   0.551953 0.228526 0.796428 -0.143277
C3    C     C_R   0.536288 0.240302 0.723971 -0.137705
C4    C     C_R   0.655073 0.622267 0.600755 0.545554
C5    C     C_R   0.654089 0.196271 0.679211 0.013203
C6    C     C_R   0.195512 0.552831 0.722384 -0.149355
C7    C     C_R   0.184222 0.558222 0.796155 -0.153635
C8    C     C_R   0.176761 0.673274 0.833605 0.022468
C9    C     C_R   0.191197 0.776848 0.796948 -0.148315
C10   C     C_R   0.200011 0.772571 0.723891 -0.149556
C11   C     C_R   0.201645 0.660869 0.685704 0.020640
C12   C     C_3   0.657590 0.562700 0.800218 -0.242859
C13   C     C_R   0.730272 0.526098 0.271738 -0.122759
C14   C     C_R   0.728635 0.538624 0.198977 -0.129677
C15   C     C_R   0.650579 0.671321 0.167754 0.029534
C16   C     C_R   0.626000 0.232389 0.604333 0.535829
C17   C     C_R   0.561398 0.789263 0.210185 -0.128612
C18   C     C_R   0.558747 0.775335 0.283792 -0.132495
C19   C     C_R   0.647571 0.644228 0.315030 0.034820
C20   C     C_R   0.542625 0.159650 0.287472 -0.136249
C21   C     C_R   0.542401 0.154976 0.214684 -0.138033
C22   C     C_R   0.651012 0.158065 0.176314 0.038829
C23   C     C_3   0.701607 0.675697 0.811559 0.035443
C24   C     C_R   0.756676 0.172211 0.211555 -0.145206
C25   C     C_R   0.755867 0.178723 0.284861 -0.146688
C26   C     C_R   0.646697 0.176101 0.322950 0.037509
C27   C     C_R   0.088221 0.803511 0.304997 -0.135851
C28   C     C_R   0.219006 0.649627 0.402437 0.551170
C29   C     C_R   0.069341 0.815642 0.232908 -0.121527
C30   C     C_R   0.107114 0.695264 0.190638 0.038825
C31   C     C_R   0.151696 0.564382 0.221832 -0.138525
C32   C     C_R   0.172858 0.551632 0.294521 -0.127171
C33   C     C_R   0.148958 0.670251 0.335274 0.031863
C34   C     C_3   0.674196 0.644961 0.676189 0.061299
C35   C     C_R   0.701830 0.103603 0.896606 0.539941
C36   C     C_R   0.724610 0.689004 0.887658 0.543423
C37   C     C_R   0.118174 0.706556 0.905420 0.542814
C38   C     C_R   0.674327 0.107988 0.103938 0.546606
C39   C     C_R   0.693873 0.689896 0.097109 0.547264
C40   C     C_R   0.640254 0.619997 0.390636 0.546967
C41   C     C_R   0.082595 0.715338 0.115482 0.552517
C42   C     C_R   0.617965 0.227780 0.395122 0.545929
C43   C     C_3   0.586244 0.817935 0.779334 -0.238534
C44   C     C_3   0.580156 0.802549 0.698244 -0.267593
C45   C     C_3   0.832542 0.596699 0.693350 -0.031806
C46   C     C_3   0.842293 0.633223 0.771159 -0.201440
C47   C     C_3   0.626409 0.556181 0.721162 -0.204187
C48   C     C_R   0.789404 0.141693 0.708671 -0.138480
C49   C     C_R   0.806289 0.122965 0.782169 -0.134833
C50   C     C_R   0.687161 0.162914 0.825999 0.015430
Cr1   Cr    Cr6+3 0.392930 0.397900 0.502230 1.029985
Cr2   Cr    Cr6+3 0.398240 0.708600 0.501260 1.020520
Cr3   Cr    Cr6+3 0.708800 0.393470 0.496460 1.041759
Cr4   Cr    Cr6+3 0.937620 0.938540 0.007640 1.012562
Cr5   Cr    Cr6+3 0.625150 0.937450 0.994520 1.011664
Cr6   Cr    Cr6+3 0.937990 0.625080 0.001190 1.015573
H1    H     H_    0.610107 0.904122 0.790885 0.153497
H2    H     H_    0.187017 0.866593 0.824165 0.134629
H3    H     H_    0.481078 0.848811 0.803347 0.132273
H4    H     H_    0.208739 0.856044 0.697652 0.142600
H5    H     H_    0.796518 0.422639 0.293969 0.131912
H6    H     H_    0.797211 0.445669 0.167542 0.126076
H7    H     H_    0.500478 0.893003 0.187119 0.126878
H8    H     H_    0.490545 0.866758 0.316193 0.119877
H9    H     H_    0.456726 0.157468 0.315612 0.127044
H10   H     H_    0.460593 0.142203 0.188873 0.124429
H11   H     H_    0.842670 0.172741 0.182676 0.115148
H12   H     H_    0.680729 0.444229 0.703318 0.173117
H13   H     H_    0.837432 0.190588 0.311479 0.115810
H14   H     H_    0.066273 0.896298 0.335997 0.127241
H15   H     H_    0.467839 0.843408 0.682943 0.149161
H16   H     H_    0.027671 0.919601 0.210224 0.138708
H17   H     H_    0.175456 0.472109 0.189990 0.120870
H18   H     H_    0.218647 0.447409 0.317539 0.136130
H19   H     H_    0.617991 0.867954 0.670873 0.119941
H20   H     H_    0.865500 0.721774 0.773504 0.111067
H21   H     H_    0.869624 0.654095 0.658532 0.125148
H22   H     H_    0.744038 0.457692 0.817505 0.157199
H23   H     H_    0.932496 0.541856 0.796875 0.173504
H24   H     H_    0.561698 0.588485 0.832464 0.114289
H25   H     H_    0.510983 0.597304 0.714211 0.124912
H26   H     H_    0.881154 0.111089 0.675002 0.150700
H27   H     H_    0.912002 0.070564 0.804045 0.139926
H28   H     H_    0.458361 0.260972 0.829036 0.134381
H29   H     H_    0.430574 0.285401 0.703032 0.147338
H30   H     H_    0.200200 0.464330 0.694029 0.160198
H31   H     H_    0.174463 0.476343 0.823434 0.132724
I1    I     I_    0.983028 0.371723 0.678087 -0.480330
O1    O     O_R   0.507430 0.255570 0.581420 -0.521569
O2    O     O_R   0.837200 0.593290 0.915250 -0.526342
O3    O     O_R   0.065330 0.635370 0.931590 -0.508252
O4    O     O_R   0.280190 0.527390 0.578910 -0.500059
O5    O     O_R   0.068300 0.828790 0.091860 -0.528674
O6    O     O_R   0.798730 0.057480 0.079370 -0.511127
O7    O     O_R   0.584680 0.080480 0.076790 -0.527509
O8    O     O_R   0.626790 0.809640 0.067050 -0.504047
O9    O     O_R   0.816010 0.596460 0.076500 -0.520906
O10   O     O_R   0.045680 0.638310 0.081070 -0.502487
O11   O     O_3   0.833590 0.833690 0.001120 -0.247963
O12   O     O_R   0.524460 0.695920 0.424060 -0.500894
O13   O     O_R   0.260310 0.739740 0.584580 -0.527305
O14   O     O_R   0.532250 0.695150 0.573830 -0.515833
O15   O     O_R   0.744930 0.503430 0.576380 -0.475108
O16   O     O_R   0.699250 0.276390 0.571950 -0.493096
O17   O     O_R   0.499020 0.256400 0.419850 -0.526857
O18   O     O_R   0.272400 0.528160 0.429140 -0.505340
O19   O     O_R   0.251910 0.740570 0.423020 -0.518562
O20   O     O_R   0.736530 0.504260 0.414810 -0.522978
O21   O     O_R   0.691460 0.277160 0.422180 -0.509314
O22   O     O_3   0.499990 0.499990 0.499980 -0.255775
O23   O     O_R   0.089490 0.825610 0.930610 -0.524298
O24   O     O_R   0.818370 0.054540 0.929880 -0.503999
O25   O     O_R   0.605870 0.077310 0.915530 -0.527342
O26   O     O_R   0.646440 0.806700 0.917570 -0.507734

loop_
_geom_bond_atom_site_label_1
_geom_bond_atom_site_label_2
_ccdc_geom_bond_type
Cr3   O22   S    
C21   H10   S    
C3    H29   S    
C2    H28   S    
C1    C11   S    
Cr6   O10   S    
C36   O26   A    
C46   H20   S    
C7    C8    A    
C45   C46   S    
C27   C33   A    
C12   C23   S    
Cr2   O14   S    
C42   O21   A    
C18   C19   A    
C32   H18   S    
C30   C31   A    
C31   H17   S    
C27   C29   A    
Cr3   O16   S    
Cr3   O21   S    
C22   C38   S    
C4    O15   A    
C23   C43   S    
C44   H15   S    
C9    H2    S    
Cr4   O5    S    
C2    C50   A    
C24   H11   S    
C16   O16   A    
Cr6   O3    S    
C41   O5    A    
Cr2   O19   S    
C28   O18   A    
C8    C9    A    
C5    C16   S    
C12   H22   S    
C38   O7    A    
C30   C41   S    
C9    C10   A    
C43   H3    S    
C40   O20   A    
C29   H16   S    
Cr6   O2    S    
C16   O1    A    
C23   C46   S    
C21   C22   A    
C13   H5    S    
Cr6   O9    S    
C12   C47   S    
C5    C48   A    
C4    C34   S    
Cr2   O13   S    
Cr4   O6    S    
C37   O3    A    
C20   H9    S    
C45   I1    S    
C34   C44   S    
C24   C25   A    
Cr5   O7    S    
C10   C11   A    
C6    C11   A    
C13   C19   A    
Cr5   O25   S    
C25   C26   A    
Cr2   O12   S    
C4    O14   A    
C44   H19   S    
C10   H4    S    
C43   C44   S    
C29   C30   A    
Cr1   O4    S    
C31   C32   A    
Cr2   O22   S    
Cr1   O17   S    
C38   O6    A    
C35   C50   S    
C17   C18   A    
Cr4   O24   S    
C34   C45   S    
C15   C39   S    
C27   H14   S    
C48   C49   A    
C28   C33   S    
C23   C36   S    
Cr1   O22   S    
C22   C24   A    
Cr4   O11   S    
C25   H13   S    
C8    C37   S    
C1    O13   A    
C47   H12   S    
C26   C42   S    
C36   O2    A    
C15   C17   A    
C14   C15   A    
Cr5   O8    S    
C3    C5    A    
C40   O12   A    
C6    C7    A    
Cr5   O26   S    
C1    O4    A    
C6    H30   S    
C32   C33   A    
C49   H27   S    
C2    C3    A    
C17   H7    S    
Cr3   O20   S    
C18   H8    S    
C46   H23   S    
C20   C26   A    
Cr3   O15   S    
Cr1   O18   S    
C12   H24   S    
C48   H26   S    
Cr4   O23   S    
C35   O25   A    
C47   H25   S    
C42   O17   A    
C39   O8    A    
C37   O23   A    
C39   O9    A    
C19   C40   S    
C43   H1    S    
C7    H31   S    
C20   C21   A    
C49   C50   A    
Cr5   O11   S    
C41   O10   A    
C45   H21   S    
C34   C47   S    
C28   O19   A    
Cr6   O11   S    
C13   C14   A    
Cr1   O1    S    
C35   O24   A    
C14   H6    S    
