data_mof_unit_3737.cif
_audit_creation_date              2012-12-10T18:06:47-0500
_audit_creation_method            fapswitch 2.2
_symmetry_space_group_name_H-M    P1
_symmetry_Int_Tables_number       1
_space_group_crystal_system       triclinic
_cell_length_a                    12.599839
_cell_length_b                    12.943932
_cell_length_c                    15.491616
_cell_angle_alpha                 83.463008
_cell_angle_beta                  98.859432
_cell_angle_gamma                 96.974076
_cell_volume                      2466.24823567

loop_
_atom_site_label
_atom_site_type_symbol
_atom_type_description
_atom_site_fract_x
_atom_site_fract_y
_atom_site_fract_z
_atom_type_partial_charge
C1    C     C_R   0.446421 0.307189 0.516545 0.877347
C2    C     C_R   0.684314 0.500901 0.935489 -0.062818
C3    C     C_R   0.584109 0.539345 0.899035 -0.036560
C4    C     C_R   0.437744 0.519984 0.336038 0.926609
C5    C     C_R   0.751256 0.470669 0.878991 0.496076
C6    C     C_R   0.712024 0.466096 0.789877 -0.332348
C7    C     C_R   0.547906 0.532707 0.809826 -0.234802
C8    C     C_R   0.741665 0.937623 0.527758 0.540028
C9    C     C_R   0.596975 0.801728 0.492227 -0.155395
C10   C     C_R   0.312016 0.151542 0.542043 -0.289334
C11   C     C_R   0.287461 0.042794 0.551611 0.531243
C12   C     C_R   0.469532 0.578734 0.099478 -0.000367
C13   C     C_R   0.366468 0.979197 0.541539 -0.325366
C14   C     C_R   0.472351 0.023769 0.532882 0.031964
C15   C     C_R   0.501351 0.127587 0.550232 0.048363
C16   C     C_R   0.556864 0.692311 0.490185 0.882930
C17   C     C_R   0.551988 0.967099 0.513139 -0.122050
C18   C     C_R   0.663130 0.001731 0.538933 -0.082558
C19   C     C_R   0.691732 0.096881 0.577032 0.462130
C20   C     C_R   0.610133 0.160155 0.580397 -0.296847
C21   C     C_R   0.524591 0.876215 0.468970 0.459400
C22   C     C_R   0.707595 0.833262 0.513331 -0.420392
C23   C     C_R   0.365399 0.603638 0.061161 0.045294
C24   C     C_R   0.419525 0.194756 0.538933 -0.183622
C25   C     C_R   0.140043 0.638117 0.627232 -0.317728
C26   C     C_R   0.756501 0.380395 0.393869 0.648389
C27   C     C_R   0.853467 0.358879 0.369621 -0.403964
C28   C     C_R   0.565557 0.489408 0.663621 0.869245
C29   C     C_R   0.950503 0.402557 0.411617 -0.278690
C30   C     C_R   0.952678 0.472745 0.475344 0.019631
C31   C     C_R   0.853569 0.495044 0.496405 0.129142
C32   C     C_R   0.049095 0.521497 0.518664 -0.004667
C33   C     C_R   0.044999 0.590545 0.583016 0.204779
C34   C     C_R   0.544776 0.558445 0.045521 0.037349
C35   C     C_R   0.946204 0.611478 0.602277 -0.310637
C36   C     C_R   0.851670 0.564814 0.558827 -0.209132
C37   C     C_R   0.150383 0.504315 0.500857 -0.035605
C38   C     C_R   0.237775 0.617540 0.606599 -0.006008
C39   C     C_R   0.409118 0.552803 0.242223 -0.307482
C40   C     C_R   0.609352 0.494619 0.756023 -0.107858
C41   C     C_R   0.284011 0.602831 0.113554 -0.329961
C42   C     C_R   0.302614 0.568675 0.203496 0.426585
C43   C     C_R   0.493583 0.574028 0.190910 0.348431
C44   C     C_3   0.932882 0.512806 0.887418 0.133728
C45   C     C_R   0.517481 0.574299 0.953372 0.092436
C46   C     C_3   0.041725 0.479995 0.931237 -0.816281
C47   C     C_3   0.844428 0.214875 0.589228 0.149319
C48   C     C_3   0.960389 0.229955 0.634733 -0.787712
C49   C     C_3   0.892726 0.964954 0.457960 0.102042
C50   C     C_3   0.958769 0.066563 0.430765 -0.793143
C51   C     C_3   0.379538 0.899368 0.354865 0.028863
C52   C     C_3   0.307232 0.797654 0.371457 -0.764460
C53   C     C_3   0.187207 0.946744 0.648164 0.065603
C54   C     C_3   0.072880 0.908823 0.665905 -0.774371
C55   C     C_3   0.651678 0.234839 0.339123 0.074769
C56   C     C_R   0.421470 0.620567 0.918456 -0.202446
C57   C     C_3   0.534551 0.191882 0.313682 -0.797394
C58   C     C_3   0.781713 0.339598 0.093406 0.155582
C59   C     C_3   0.886376 0.289352 0.120756 -0.835797
C60   C     C_3   0.129053 0.501761 0.227944 0.093460
C61   C     C_3   0.030287 0.559246 0.226864 -0.787109
C62   C     C_3   0.616222 0.704935 0.242003 0.144288
C63   C     C_3   0.732307 0.731012 0.284028 -0.795387
C64   C     C_R   0.344872 0.631005 0.971341 -0.187399
C65   C     C_R   0.640829 0.513131 0.080590 -0.305258
C66   C     C_R   0.711437 0.487602 0.027285 0.429160
H1    H     H_    0.766977 0.778150 0.518818 0.181142
H2    H     H_    0.205167 0.624932 0.084235 0.165477
H3    H     H_    0.401936 0.647617 0.850049 0.128337
H4    H     H_    0.661370 0.490721 0.149625 0.234976
H5    H     H_    0.269074 0.659749 0.941664 0.133569
H6    H     H_    0.923466 0.589944 0.909296 0.135363
H7    H     H_    0.932826 0.521191 0.815062 0.126925
H8    H     H_    0.053197 0.402567 0.911786 0.255113
H9    H     H_    0.107313 0.538363 0.910650 0.194910
H10   H     H_    0.046057 0.474977 0.003697 0.259562
H11   H     H_    0.803128 0.281542 0.601976 0.123663
H12   H     H_    0.248038 0.201360 0.538586 0.172630
H13   H     H_    0.845901 0.215874 0.517699 0.138765
H14   H     H_    0.005448 0.165466 0.623297 0.263687
H15   H     H_    0.001334 0.305192 0.608679 0.206381
H16   H     H_    0.961419 0.230957 0.706448 0.252123
H17   H     H_    0.830465 0.946922 0.400552 0.115559
H18   H     H_    0.946075 0.901018 0.471039 0.174397
H19   H     H_    0.017790 0.092492 0.486880 0.296483
H20   H     H_    0.003081 0.055000 0.376548 0.208408
H21   H     H_    0.904357 0.128352 0.407443 0.213752
H22   H     H_    0.367025 0.921164 0.282883 0.170622
H23   H     H_    0.345431 0.895799 0.541423 0.144628
H24   H     H_    0.354522 0.965879 0.382461 0.161274
H25   H     H_    0.222931 0.807674 0.341000 0.216227
H26   H     H_    0.335815 0.733984 0.341740 0.284456
H27   H     H_    0.307259 0.775339 0.442552 0.246789
H28   H     H_    0.224960 0.999369 0.699232 0.142398
H29   H     H_    0.232839 0.877219 0.654304 0.133647
H30   H     H_    0.033341 0.854418 0.617327 0.256771
H31   H     H_    0.075126 0.866824 0.732678 0.185598
H32   H     H_    0.025194 0.976286 0.661843 0.296386
H33   H     H_    0.630253 0.231490 0.612282 0.164696
H34   H     H_    0.312767 0.653270 0.639875 0.123539
H35   H     H_    0.468578 0.551811 0.781264 0.166008
H36   H     H_    0.138703 0.689920 0.677167 0.139935
H37   H     H_    0.685296 0.188525 0.399991 0.125214
H38   H     H_    0.695492 0.224169 0.284411 0.121645
H39   H     H_    0.500113 0.234247 0.251190 0.238803
H40   H     H_    0.529956 0.107435 0.304872 0.224140
H41   H     H_    0.485938 0.201322 0.365514 0.256996
H42   H     H_    0.761026 0.437529 0.747920 0.175960
H43   H     H_    0.733080 0.297094 0.039332 0.145303
H44   H     H_    0.736752 0.330161 0.150663 0.119220
H45   H     H_    0.941872 0.664403 0.650781 0.150065
H46   H     H_    0.936424 0.327726 0.175956 0.232506
H47   H     H_    0.867906 0.205144 0.142294 0.196761
H48   H     H_    0.932795 0.296733 0.064570 0.283523
H49   H     H_    0.124529 0.431332 0.275791 0.140319
H50   H     H_    0.126299 0.473262 0.162330 0.124636
H51   H     H_    0.031045 0.627493 0.176481 0.245487
H52   H     H_    0.955305 0.506388 0.211198 0.251881
H53   H     H_    0.030552 0.587106 0.292132 0.259683
H54   H     H_    0.561574 0.725345 0.286135 0.156214
H55   H     H_    0.603138 0.753363 0.177797 0.133319
H56   H     H_    0.162543 0.454077 0.453360 0.135574
H57   H     H_    0.788899 0.713952 0.240431 0.248655
H58   H     H_    0.746558 0.815197 0.294773 0.194820
H59   H     H_    0.748240 0.683691 0.348180 0.270768
H60   H     H_    0.021886 0.379822 0.392154 0.160126
H61   H     H_    0.855231 0.309030 0.318618 0.152361
H62   H     H_    0.778228 0.585113 0.575205 0.215742
N1    N     N_R   0.239390 0.551900 0.544730 -0.100483
N2    N     N_R   0.759950 0.448600 0.455730 -0.170077
O1    O     O_R   0.374950 0.371210 0.521360 -0.615431
O2    O     O_3   0.794461 0.118245 0.622755 -0.570208
O3    O     O_3   0.850051 0.975368 0.535771 -0.586481
O4    O     O_3   0.490245 0.886878 0.378805 -0.643937
O5    O     O_3   0.184011 0.000192 0.563116 -0.624099
O6    O     O_3   0.656425 0.342021 0.351536 -0.564747
O7    O     O_3   0.805910 0.446730 0.066102 -0.577393
O8    O     O_3   0.222934 0.567908 0.256194 -0.594869
O9    O     O_3   0.598966 0.597368 0.230214 -0.596696
O10   O     O_R   0.542050 0.338030 0.492790 -0.582655
O11   O     O_R   0.368720 0.526070 0.390200 -0.581385
O12   O     O_R   0.535820 0.492890 0.361630 -0.498733
O13   O     O_R   0.457950 0.661970 0.507210 -0.627792
O14   O     O_R   0.625050 0.628790 0.478640 -0.638776
O15   O     O_R   0.464180 0.507110 0.638370 -0.620191
O16   O     O_R   0.631280 0.473930 0.609800 -0.654990
O17   O     O_3   0.850510 0.435876 0.911620 -0.577985
Zn1   Zn    Zn3+2 0.388420 0.522150 0.519080 0.936018
Zn2   Zn    Zn3+2 0.611580 0.477850 0.480920 0.963750

loop_
_geom_bond_atom_site_label_1
_geom_bond_atom_site_label_2
_ccdc_geom_bond_type
C57   H39   S    
C5    O17   S    
C53   H29   S    
C58   H43   S    
C41   C42   A    
C35   C36   A    
C53   O5    S    
C47   H13   S    
C9    C21   A    
C46   H10   S    
C63   H58   S    
C10   H12   S    
C53   C54   S    
C66   O7    S    
C12   C23   A    
C26   C27   A    
C29   C30   A    
O12   Zn2   S    
C16   O14   A    
C9    C16   S    
C31   N2    A    
C3    C7    A    
C31   C36   A    
C51   H24   S    
C4    O12   A    
C30   C31   A    
C51   O4    S    
C9    C22   A    
C61   H53   S    
C28   C40   S    
C65   H4    S    
C55   H37   S    
C44   O17   S    
C48   H15   S    
C18   C19   A    
C64   H5    S    
N1    Zn1   S    
C50   H19   S    
C27   H61   S    
C19   C20   A    
C45   C56   A    
C48   H16   S    
C52   H25   S    
C8    C22   A    
C7    C40   A    
C56   C64   A    
C54   H31   S    
C43   O9    S    
C62   O9    S    
C41   H2    S    
C54   H30   S    
C26   N2    A    
C57   H40   S    
C53   H28   S    
C13   C14   A    
C14   C17   A    
C36   H62   S    
C34   C65   A    
C46   H9    S    
C44   C46   S    
C59   H46   S    
C39   C42   A    
C15   C20   A    
C22   H1    S    
C61   H51   S    
C51   C52   S    
C38   N1    A    
O1    Zn1   S    
C16   O13   A    
C26   O6    S    
C38   H34   S    
C4    O11   A    
C39   C43   A    
C10   C24   A    
C58   C59   S    
C55   H38   S    
C3    C45   A    
C8    C18   A    
C60   C61   S    
C62   C63   S    
C11   O5    S    
C25   C38   A    
O16   Zn2   S    
C47   C48   S    
C4    C39   S    
C59   H47   S    
N2    Zn2   S    
C17   C18   A    
C28   O15   A    
C52   H27   S    
C34   C45   A    
C32   C37   A    
C63   H59   S    
C1    O10   A    
C50   H21   S    
C58   O7    S    
C23   C64   A    
C57   H41   S    
C49   C50   S    
C55   C57   S    
C6    C40   A    
C52   H26   S    
C2    C5    A    
C47   H11   S    
C12   C34   A    
C21   O4    S    
C46   H8    S    
O15   Zn1   S    
C35   H45   S    
C49   H18   S    
C19   O2    S    
C49   O3    S    
C15   C24   A    
O14   Zn2   S    
C13   H23   S    
C61   H52   S    
C58   H44   S    
C62   H54   S    
C1    O1    A    
C23   C41   A    
C51   H22   S    
C63   H57   S    
C2    C66   A    
C12   C43   A    
C28   O16   A    
O11   Zn1   S    
C47   O2    S    
C32   C33   A    
C49   H17   S    
C2    C3    A    
C8    O3    S    
C30   C32   A    
C11   C13   A    
C48   H14   S    
C5    C6    A    
C20   H33   S    
C27   C29   A    
C59   H48   S    
C33   C35   A    
C37   N1    A    
C44   H6    S    
C65   C66   A    
C44   H7    S    
C25   H36   S    
C17   C21   A    
O13   Zn1   S    
C60   H50   S    
C10   C11   A    
C50   H20   S    
C37   H56   S    
C1    C24   S    
C56   H3    S    
C7    H35   S    
C60   O8    S    
C6    H42   S    
C14   C15   A    
C54   H32   S    
C60   H49   S    
C42   O8    S    
C29   H60   S    
O10   Zn2   S    
C62   H55   S    
C55   O6    S    
C25   C33   A    
