data_mof_unit_3621.cif
_audit_creation_date              2012-12-11T14:27:10-0500
_audit_creation_method            fapswitch 2.2
_symmetry_space_group_name_H-M    P1
_symmetry_Int_Tables_number       1
_space_group_crystal_system       triclinic
_cell_length_a                    15.023246
_cell_length_b                    14.911625
_cell_length_c                    14.934397
_cell_angle_alpha                 109.670454
_cell_angle_beta                  109.365511
_cell_angle_gamma                 109.535793
_cell_volume                      2570.40747773

loop_
_atom_site_label
_atom_site_type_symbol
_atom_type_description
_atom_site_fract_x
_atom_site_fract_y
_atom_site_fract_z
_atom_type_partial_charge
C1    C     C_R   0.006629 0.805087 0.100552 -0.078679
C2    C     C_R   0.709448 0.128453 0.707427 0.022073
C3    C     C_R   0.982540 0.498054 0.671631 -0.106581
C4    C     C_R   0.673239 0.500595 0.948130 0.004579
C5    C     C_R   0.993427 0.592173 0.297067 -0.174652
C6    C     C_R   0.201693 0.409373 0.893347 0.472976
C7    C     C_R   0.313650 0.770195 0.222503 -0.121733
C8    C     C_R   0.961770 0.234901 0.049372 0.506391
C9    C     C_R   0.056561 0.238887 0.960892 -0.100385
C10   C     C_R   0.221417 0.768975 0.314503 -0.126515
C11   C     C_R   0.900480 0.410140 0.205056 0.038230
C12   C     C_R   0.797153 0.194203 0.705473 0.015931
C13   C     C_R   0.293714 0.591221 0.987080 -0.208417
C14   C     C_R   0.927183 0.502188 0.296248 0.135983
C15   C     C_R   0.290829 0.501031 0.915779 -0.018702
C16   C     C_R   0.324663 0.810169 0.325981 -0.060298
C17   C     C_R   0.031866 0.201275 0.027331 -0.044556
C18   C     C_3   0.467512 0.388390 0.841567 -0.608462
C19   C     C_3   0.362427 0.391111 0.824784 0.269307
C20   C     C_3   0.572390 0.534353 0.044210 0.397068
C21   C     C_3   0.556295 0.586239 0.894203 0.223322
C22   C     C_3   0.570559 0.502877 0.932204 0.008537
C23   C     C_R   0.046813 0.590561 0.776179 0.465296
C24   C     C_3   0.390539 0.502956 0.915849 0.073151
C25   C     C_3   0.461451 0.518564 0.029136 -0.644277
C26   C     C_3   0.456668 0.595907 0.897801 0.316799
C27   C     C_2   0.444596 0.875586 0.516033 -0.229232
C28   C     C_2   0.427052 0.889734 0.428568 0.505513
C29   C     C_2   0.540505 0.959615 0.624072 -0.060865
C30   C     C_2   0.637429 0.010421 0.632469 -0.087379
C31   C     C_2   0.847962 0.437428 0.486431 0.400696
C32   C     C_2   0.952493 0.495706 0.568126 -0.324449
C33   C     C_2   0.826954 0.422701 0.376912 0.388938
C34   C     C_R   0.686689 0.408959 0.932211 0.539984
C35   C     C_2   0.887067 0.509912 0.373543 -0.232213
C36   C     C_2   0.158329 0.133608 0.076974 0.651972
C37   C     C_2   0.061475 0.127452 0.055038 -0.208406
C38   C     C_2   0.169185 0.040475 0.080947 -0.394092
C39   C     C_2   0.125972 0.992230 0.129170 0.480483
C40   C     C_R   0.956834 0.407241 0.685645 0.551965
C41   C     C_R   0.776689 0.592072 0.025787 -0.149352
C42   C     C_R   0.708737 0.193074 0.797460 -0.061289
C43   C     C_R   0.099355 0.805651 0.012097 -0.032911
C44   C     C_R   0.075605 0.871612 0.079122 -0.086145
H1    H     H_    0.983334 0.831859 0.161385 0.087914
H2    H     H_    0.377427 0.788986 0.201719 0.109816
H3    H     H_    0.104216 0.223298 0.923501 0.200795
H4    H     H_    0.831122 0.163947 0.657023 0.160957
H5    H     H_    0.402383 0.581570 0.816491 0.155121
H6    H     H_    0.019181 0.538623 0.557655 0.119225
H7    H     H_    0.188984 0.998805 0.022166 0.114106
H8    H     H_    0.664509 0.162510 0.834566 0.160203
H9    H     H_    0.016106 0.676473 0.347687 0.112250
N1    N     N_R   0.993980 0.704500 0.053430 -0.047910
N2    N     N_R   0.154170 0.443650 0.946570 -0.069264
N3    N     N_R   0.207180 0.704490 0.150760 -0.038489
N4    N     N_R   0.948740 0.295490 0.002840 -0.091059
N5    N     N_R   0.006020 0.295500 0.946570 -0.085720
N6    N     N_R   0.149890 0.704480 0.207030 -0.037202
N7    N     N_R   0.946310 0.443620 0.150760 -0.069296
N8    N     N_R   0.209610 0.556360 0.002840 -0.074858
N9    N     N_R   0.850110 0.295520 0.792970 -0.057891
N10   N     N_R   0.053690 0.556380 0.849240 -0.113935
N11   N     N_R   0.790390 0.443640 0.997160 -0.077317
N12   N     N_R   0.998260 0.443670 0.792970 -0.120432
N13   N     N_R   0.845830 0.556350 0.053430 -0.078033
N14   N     N_R   0.792820 0.295510 0.849240 -0.064297
N15   N     N_R   0.051260 0.704510 0.997160 -0.038537
N16   N     N_R   0.001740 0.556330 0.207030 -0.051855
Ni1   Ni    Ni4+2 0.997880 0.629240 0.129060 0.203286
Ni2   Ni    Ni4+2 0.002120 0.370760 0.870940 0.259230
Ni3   Ni    Ni4+2 0.129260 0.629260 0.000000 0.232397
Ni4   Ni    Ni4+2 0.870740 0.370740 0.000000 0.260241
O1    O     O_3   0.142297 0.306918 0.800806 -0.785602
H10   H     H_    0.144809 0.317790 0.739714 0.349066
O2    O     O_3   0.909572 0.208851 0.104652 -0.775889
H11   H     H_    0.936286 0.167327 0.134686 0.333044
H12   H     H_    0.200731 0.788008 0.378673 0.101111
H13   H     H_    0.836472 0.327141 0.169209 0.211557
H14   H     H_    0.347171 0.676950 0.018299 0.188332
H15   H     H_    0.464428 0.324771 0.864761 0.217432
H16   H     H_    0.468149 0.362110 0.762755 0.206189
O3    O     O_3   0.305308 0.375776 0.719797 -0.773428
H17   H     H_    0.271639 0.296595 0.666220 0.335885
H18   H     H_    0.312739 0.321791 0.831528 0.136520
O4    O     O_3   0.604499 0.476546 0.093642 -0.715208
H19   H     H_    0.548878 0.397224 0.045932 0.341897
H20   H     H_    0.417540 0.445267 0.034158 0.214754
O5    O     O_3   0.651200 0.689709 0.950155 -0.714166
H21   H     H_    0.672445 0.726536 0.028613 0.318082
H22   H     H_    0.536101 0.550180 0.806817 0.140234
O6    O     O_3   0.488731 0.702822 0.974949 -0.735489
H23   H     H_    0.530962 0.716587 0.049683 0.306866
H24   H     H_    0.633717 0.622890 0.103106 0.086143
H25   H     H_    0.474520 0.590166 0.098817 0.188835
H26   H     H_    0.381744 0.807810 0.510934 0.111366
O7    O     O_3   0.099786 0.698961 0.803886 -0.767232
H27   H     H_    0.081209 0.701436 0.734954 0.321789
O8    O     O_3   0.502599 0.981010 0.436679 -0.744522
H28   H     H_    0.471905 0.980614 0.366570 0.320287
H29   H     H_    0.525018 0.993432 0.690084 0.126676
H30   H     H_    0.651753 0.972261 0.566610 0.166286
O9    O     O_3   0.764882 0.384733 0.502839 -0.723293
H31   H     H_    0.694523 0.351929 0.435732 0.325585
O10   O     O_3   0.761178 0.319309 0.284220 -0.749240
H32   H     H_    0.735079 0.264676 0.306446 0.328224
H33   H     H_    0.927946 0.591810 0.444330 0.089979
O11   O     O_3   0.238667 0.216442 0.080228 -0.765576
H34   H     H_    0.301450 0.203794 0.094152 0.321869
H35   H     H_    0.997706 0.060888 0.050329 0.134669
O12   O     O_3   0.608505 0.299989 0.869090 -0.796854
H36   H     H_    0.571236 0.286361 0.793462 0.304615
O13   O     O_3   0.114909 0.054286 0.213220 -0.747580
H37   H     H_    0.093387 0.011276 0.247751 0.315083
O14   O     O_3   0.910536 0.298995 0.607774 -0.752714
H38   H     H_    0.898190 0.295024 0.536874 0.337920
H39   H     H_    0.799563 0.677532 0.065563 0.147789
H40   H     H_    0.165559 0.834877 0.996507 0.149655

loop_
_geom_bond_atom_site_label_1
_geom_bond_atom_site_label_2
_ccdc_geom_bond_type
C16   C28   S    
C21   C26   S    
N10   N12   A    
C36   O11   S    
C3    C23   A    
O12   H36   S    
C6    N2    A    
C12   H4    S    
C2    C12   A    
O7    H27   S    
C10   H12   S    
C21   O5    S    
O11   H34   S    
N9    N14   A    
O3    H17   S    
C5    H9    S    
C36   C37   D    
C24   C26   S    
C9    N5    A    
C38   C39   D    
C11   C14   A    
N5    Ni2   S    
C40   O14   S    
N1    N15   A    
C4    C41   A    
C26   O6    S    
O14   H38   S    
N7    Ni4   S    
C8    O2    S    
C18   H15   S    
C12   N9    A    
C27   C29   S    
C18   C19   S    
N4    Ni4   S    
C5    N16   A    
C33   C35   D    
C6    C15   A    
C31   C32   D    
C43   N15   A    
C39   O13   S    
C20   O4    S    
N11   Ni4   S    
C31   C33   S    
N14   Ni4   S    
C23   N10   A    
C13   H14   S    
C21   C22   S    
C34   O12   S    
C27   H26   S    
C3    C32   S    
C7    N3    A    
C19   O3    S    
C6    O1    S    
C4    C34   A    
O1    H10   S    
C7    H2    S    
C33   O10   S    
C24   C25   S    
C26   H5    S    
C14   C35   S    
O4    H19   S    
C38   H7    S    
C43   H40   S    
N3    Ni3   S    
N12   Ni2   S    
C25   H20   S    
C31   O9    S    
C43   C44   A    
C29   C30   D    
C8    N4    A    
C4    C22   S    
C1    C44   A    
O8    H28   S    
N1    Ni1   S    
N15   Ni3   S    
C30   H30   S    
C34   N11   A    
C5    C14   A    
C29   H29   S    
C17   C37   S    
O2    H11   S    
C32   H6    S    
C37   H35   S    
C39   C44   S    
C11   H13   S    
C1    N1    A    
N8    Ni3   S    
C9    C17   A    
C15   C24   S    
C23   O7    S    
C20   C22   S    
C3    C40   A    
C9    H3    S    
C40   N12   A    
C13   C15   A    
C42   N14   A    
C11   N7    A    
O9    H31   S    
C28   O8    S    
O13   H37   S    
C21   H22   S    
C20   H24   S    
C7    C16   A    
C18   C22   S    
C19   H18   S    
C25   H25   S    
C41   N13   A    
O10   H32   S    
C8    C17   A    
N3    N6    A    
C2    C30   S    
C36   C38   S    
C19   C24   S    
N11   N13   A    
C10   C16   A    
C1    H1    S    
N4    N5    A    
N13   Ni1   S    
N7    N16   A    
C2    C42   A    
N2    N8    A    
O6    H23   S    
C18   H16   S    
N9    Ni2   S    
C10   N6    A    
N16   Ni1   S    
C35   H33   S    
N6    Ni1   S    
C13   N8    A    
N10   Ni3   S    
C20   C25   S    
C27   C28   D    
C41   H39   S    
O5    H21   S    
N2    Ni2   S    
C42   H8    S    
