data_mof_unit_3511.cif
_audit_creation_date              2012-12-10T18:55:15-0500
_audit_creation_method            fapswitch 2.2
_symmetry_space_group_name_H-M    P1
_symmetry_Int_Tables_number       1
_space_group_crystal_system       triclinic
_cell_length_a                    10.843559
_cell_length_b                    9.804318
_cell_length_c                    27.72024
_cell_angle_alpha                 89.998098
_cell_angle_beta                  90.071482
_cell_angle_gamma                 90.000689
_cell_volume                      2947.03900299

loop_
_atom_site_label
_atom_site_type_symbol
_atom_type_description
_atom_site_fract_x
_atom_site_fract_y
_atom_site_fract_z
_atom_type_partial_charge
C1    C     C_R   0.259748 0.499886 0.500452 0.975806
C2    C     C_R   0.740252 0.499888 0.499554 0.975797
C3    C     C_R   0.500952 0.493979 0.101636 -0.140541
C4    C     C_R   0.498984 0.493954 0.898369 -0.140563
C5    C     C_R   0.390122 0.475728 0.127247 -0.093752
C6    C     C_R   0.609759 0.475291 0.872759 -0.093677
C7    C     C_R   0.280222 0.452703 0.102219 -0.169255
C8    C     C_R   0.719587 0.451863 0.897788 -0.169247
C9    C     C_R   0.612253 0.515219 0.127017 -0.153836
C10   C     C_R   0.387751 0.515596 0.872985 -0.153776
C11   C     C_R   0.500340 0.499900 0.353292 -0.032760
C12   C     C_R   0.499649 0.499886 0.646708 -0.032778
C13   C     C_R   0.386543 0.498680 0.974794 -0.003285
C14   C     C_R   0.613406 0.498266 0.025210 -0.003365
C15   C     C_R   0.613308 0.481133 0.974513 -0.041028
C16   C     C_R   0.386588 0.481562 0.025493 -0.041042
C17   C     C_R   0.499614 0.491092 0.949361 0.011484
C18   C     C_R   0.500312 0.491106 0.050644 0.011489
C19   C     C_R   0.277928 0.528163 0.948777 -0.199547
C20   C     C_R   0.722112 0.527356 0.051225 -0.199495
C21   C     C_R   0.278004 0.535808 0.898777 0.679368
C22   C     C_R   0.722060 0.535017 0.101224 0.679369
C23   C     C_R   0.500099 0.500001 0.405954 0.851731
C24   C     C_R   0.499900 0.499997 0.594046 0.851729
C25   C     C_R   0.277864 0.454128 0.052157 0.603182
C26   C     C_R   0.721947 0.453288 0.947851 0.603205
C27   C     C_R   0.063323 0.374723 0.497646 0.323454
C28   C     C_R   0.937078 0.623887 0.496480 0.320787
C29   C     C_R   0.936672 0.374726 0.502386 0.323431
C30   C     C_R   0.062928 0.623883 0.503547 0.320788
C31   C     C_R   0.872650 0.499401 0.499250 -0.420489
C32   C     C_R   0.127350 0.499397 0.500771 -0.420488
C33   C     C_R   0.534953 0.072023 0.540143 -0.064070
C34   C     C_R   0.463742 0.928014 0.460023 -0.100597
C35   C     C_R   0.465049 0.072029 0.459857 -0.064116
C36   C     C_R   0.536260 0.928007 0.539977 -0.100582
C37   C     C_R   0.392271 0.478152 0.177627 0.556759
C38   C     C_R   0.607621 0.477723 0.822378 0.556777
C39   C     C_R   0.609626 0.517501 0.177607 0.561219
C40   C     C_R   0.390385 0.517853 0.822395 0.561216
C41   C     C_R   0.513233 0.622515 0.277738 -0.096235
C42   C     C_R   0.511728 0.376460 0.722100 -0.094557
C43   C     C_R   0.512879 0.623009 0.327858 -0.218780
C44   C     C_R   0.511827 0.376530 0.672010 -0.217905
C45   C     C_R   0.488122 0.376548 0.327991 -0.217849
C46   C     C_R   0.487137 0.622989 0.672141 -0.218814
C47   C     C_R   0.488204 0.376489 0.277900 -0.094640
C48   C     C_R   0.486774 0.622487 0.722261 -0.096178
C49   C     C_R   0.500774 0.499341 0.252836 0.296318
C50   C     C_R   0.499190 0.499308 0.747165 0.296185
H1    H     H_    0.478128 0.280376 0.346809 0.152106
H2    H     H_    0.477260 0.719321 0.653398 0.154693
H3    H     H_    0.563733 0.126440 0.572148 0.125790
H4    H     H_    0.434153 0.873607 0.428125 0.138892
H5    H     H_    0.436269 0.126451 0.427852 0.125799
H6    H     H_    0.565851 0.873596 0.571874 0.138886
H7    H     H_    0.478732 0.281229 0.258470 0.142445
H8    H     H_    0.477147 0.717500 0.741816 0.143493
H9    H     H_    0.195119 0.432116 0.121328 0.237452
H10   H     H_    0.804627 0.430955 0.878681 0.237298
H11   H     H_    0.521799 0.280362 0.653192 0.152126
H12   H     H_    0.522786 0.719338 0.346601 0.154680
H13   H     H_    0.521166 0.281195 0.741530 0.142527
H14   H     H_    0.522886 0.717530 0.258182 0.143407
H15   H     H_    0.192231 0.552442 0.966490 0.246765
H16   H     H_    0.807882 0.551311 0.033510 0.246934
N1    N     N_R   0.500835 0.498816 0.201471 -0.369225
N2    N     N_R   0.499121 0.498775 0.798531 -0.369197
N3    N     N_R   0.500000 0.857200 0.500000 -0.076291
N4    N     N_R   0.500000 0.142800 0.500000 -0.065609
O1    O     O_R   0.316770 0.614620 0.500000 -0.570851
O2    O     O_R   0.683230 0.385380 0.500000 -0.577785
O3    O     O_R   0.683230 0.614620 0.500000 -0.570861
O4    O     O_R   0.316770 0.385380 0.500000 -0.577797
O5    O     O_R   0.500030 0.614650 0.428760 -0.638847
O6    O     O_R   0.499970 0.385350 0.571240 -0.638643
O7    O     O_R   0.499970 0.614650 0.571240 -0.638848
O8    O     O_R   0.500030 0.385350 0.428760 -0.638639
O9    O     O_2   0.286817 0.460794 0.202737 -0.533332
O10   O     O_2   0.713028 0.459996 0.797272 -0.533439
O11   O     O_2   0.285570 0.537461 0.797028 -0.462207
O12   O     O_2   0.714496 0.536749 0.202974 -0.462157
Zn1   Zn    Zn3+2 0.500000 0.653120 0.500000 0.968539
Zn2   Zn    Zn3+2 0.500000 0.346880 0.500000 0.976206
F1    F     F_    0.169852 0.563906 0.876093 -0.586506
F2    F     F_    0.830298 0.562718 0.123906 -0.586454
F3    F     F_    0.170564 0.416617 0.030723 -0.626385
F4    F     F_    0.829130 0.415378 0.969287 -0.626395
O13   O     O_3   0.123231 0.250298 0.494506 -0.567529
C51   C     C_3   0.121305 0.205497 0.445984 0.149969
H17   H     H_    0.199057 0.252986 0.425959 0.138077
H18   H     H_    0.033391 0.230103 0.426853 0.145054
C52   C     C_3   0.136429 0.051451 0.444871 -0.789568
H19   H     H_    0.056443 0.002439 0.462550 0.280763
H20   H     H_    0.142692 0.015206 0.407009 0.197637
H21   H     H_    0.220602 0.020973 0.464670 0.270500
O14   O     O_3   0.877923 0.747140 0.488847 -0.568268
C53   C     C_3   0.878747 0.773657 0.438697 0.144819
H22   H     H_    0.837057 0.687582 0.418003 0.129951
H23   H     H_    0.974621 0.790843 0.425697 0.152803
C54   C     C_3   0.803149 0.900824 0.428169 -0.805425
H24   H     H_    0.805415 0.923345 0.388927 0.207562
H25   H     H_    0.706310 0.883804 0.439181 0.264690
H26   H     H_    0.840471 0.989796 0.448099 0.276312
O15   O     O_3   0.876759 0.250305 0.505541 -0.567548
C55   C     C_3   0.878662 0.205553 0.554070 0.150024
H27   H     H_    0.800883 0.253035 0.574079 0.138079
H28   H     H_    0.966555 0.230210 0.573208 0.145024
C56   C     C_3   0.863580 0.051502 0.555206 -0.789622
H29   H     H_    0.943596 0.002500 0.537545 0.280722
H30   H     H_    0.857294 0.015296 0.593072 0.197656
H31   H     H_    0.779431 0.020972 0.535400 0.270485
O16   O     O_3   0.122087 0.747128 0.511191 -0.568280
C57   C     C_3   0.121273 0.773598 0.561342 0.144836
H32   H     H_    0.162945 0.687493 0.582029 0.129944
H33   H     H_    0.025404 0.790796 0.574345 0.152817
C58   C     C_3   0.196901 0.900735 0.571883 -0.805457
H34   H     H_    0.159591 0.989738 0.551964 0.276282
H35   H     H_    0.194649 0.923212 0.611128 0.207586
H36   H     H_    0.293733 0.883703 0.560865 0.264691

loop_
_geom_bond_atom_site_label_1
_geom_bond_atom_site_label_2
_ccdc_geom_bond_type
C28   O14   S    
C54   H24   S    
C5    C37   A    
C27   C29   A    
C8    C26   A    
C14   C18   A    
C25   F3    S    
O6    Zn2   S    
O14   C53   S    
C47   C49   A    
C37   O9    S    
C52   H19   S    
C38   O10   S    
N3    Zn1   S    
C1    O4    A    
C20   H16   S    
C19   C21   A    
C56   H30   S    
C9    C22   A    
C55   H27   S    
O7    Zn1   S    
C46   H2    S    
C9    C39   A    
C33   C36   A    
C3    C18   A    
C10   C40   A    
C34   C35   A    
C41   C49   A    
C35   N4    A    
C6    C38   A    
C11   C43   A    
N4    Zn2   S    
C30   O16   S    
C48   C50   A    
C54   H25   S    
C41   C43   A    
C29   O15   S    
C42   C44   A    
C2    O2    A    
C7    H9    S    
C57   H32   S    
O1    Zn1   S    
C45   C47   A    
C10   C21   A    
C33   H3    S    
C46   C48   A    
C13   C19   A    
C35   H5    S    
C14   C20   A    
C4    C6    A    
C58   H36   S    
O4    Zn2   S    
C5    C7    A    
C24   O6    A    
C15   C26   A    
C6    C8    A    
C21   F1    S    
C56   H31   S    
C2    C31   S    
C3    C9    A    
C47   H7    S    
C51   H18   S    
C16   C18   A    
C1    O1    A    
C34   N3    A    
O2    Zn2   S    
C2    O3    A    
C33   N4    A    
C42   C50   A    
C4    C17   A    
C12   C46   A    
C20   C22   A    
C34   H4    S    
C52   H21   S    
C53   H23   S    
C11   C45   A    
C1    C32   S    
C4    C10   A    
C23   O5    A    
C36   N3    A    
C51   C52   S    
O16   C57   S    
C16   C25   A    
C15   C17   A    
C49   N1    S    
C27   C32   A    
C39   N1    A    
C40   O11   S    
C28   C31   A    
C39   O12   S    
C38   N2    A    
C3    C5    A    
C57   H33   S    
C48   H8    S    
C44   H11   S    
C54   H26   S    
C53   C54   S    
O15   C55   S    
C12   C24   S    
C19   H15   S    
C7    C25   A    
C13   C17   A    
C58   H35   S    
C28   C30   A    
C29   C31   A    
C56   H29   S    
C8    H10   S    
C30   C32   A    
O5    Zn1   S    
C51   H17   S    
C52   H20   S    
C55   H28   S    
C37   N1    A    
C11   C23   S    
C36   H6    S    
C27   O13   S    
C22   F2    S    
C23   O8    A    
C57   C58   S    
O8    Zn2   S    
C24   O7    A    
C26   F4    S    
C53   H22   S    
C40   N2    A    
C13   C16   A    
C45   H1    S    
C14   C15   A    
C12   C44   A    
C41   H14   S    
O13   C51   S    
C58   H34   S    
C50   N2    S    
C42   H13   S    
O3    Zn1   S    
C43   H12   S    
C55   C56   S    
