data_mof_unit_4707.cif
_audit_creation_date              2012-12-10T17:16:35-0500
_audit_creation_method            fapswitch 2.2
_symmetry_space_group_name_H-M    P1
_symmetry_Int_Tables_number       1
_space_group_crystal_system       triclinic
_cell_length_a                    10.115463
_cell_length_b                    10.533511
_cell_length_c                    10.710892
_cell_angle_alpha                 90.504865
_cell_angle_beta                  94.805013
_cell_angle_gamma                 81.062566
_cell_volume                      1123.43092678

loop_
_atom_site_label
_atom_site_type_symbol
_atom_type_description
_atom_site_fract_x
_atom_site_fract_y
_atom_site_fract_z
_atom_type_partial_charge
C1    C     C_R   0.444086 0.502031 0.266870 0.894869
C2    C     C_R   0.490956 0.734719 0.467533 0.896643
C3    C     C_R   0.674446 0.104710 0.317455 -0.129673
C4    C     C_R   0.228027 0.911873 0.432329 -0.120402
C5    C     C_R   0.771309 0.026946 0.254043 -0.152283
C6    C     C_R   0.119950 0.985936 0.483922 -0.139838
C7    C     C_R   0.774208 0.894815 0.250791 -0.160929
C8    C     C_R   0.141475 0.092766 0.555285 -0.171325
C9    C     C_R   0.677288 0.840431 0.307242 -0.139176
C10   C     C_R   0.266796 0.133640 0.562092 -0.161592
C11   C     C_R   0.579988 0.917548 0.374038 0.093708
C12   C     C_R   0.555299 0.484834 0.733250 0.957640
C13   C     C_R   0.370877 0.071590 0.491033 0.090513
C14   C     C_R   0.581523 0.050858 0.385466 0.071765
C15   C     C_R   0.356523 0.949928 0.444956 0.078429
C16   C     C_R   0.474200 0.866782 0.421784 -0.263700
C17   C     C_R   0.487124 0.124033 0.461914 -0.234297
C18   C     C_3   0.923174 0.482925 0.262871 0.160398
C19   C     C_3   0.857691 0.474074 0.130267 -0.373458
C20   C     C_3   0.927250 0.544070 0.036976 -1.002155
C21   C     C_3   0.155237 0.716840 0.685832 0.201419
C22   C     C_3   0.107672 0.669091 0.806139 -0.419131
C23   C     C_2   0.410924 0.487346 0.134636 -0.369936
C24   C     C_3   0.170039 0.733079 0.920303 -0.981314
C25   C     C_2   0.584390 0.453173 0.864905 -0.389235
C26   C     C_2   0.503734 0.425351 0.065790 -0.164913
C27   C     C_2   0.482799 0.436440 0.931823 -0.151486
C28   C     C_2   0.080488 0.468650 0.512421 -0.012440
C29   C     C_2   0.932172 0.488086 0.528499 0.014532
C30   C     C_R   0.497840 0.257809 0.493019 0.870295
H1    H     H_    0.060970 0.144540 0.604888 0.145567
H2    H     H_    0.600592 0.379311 0.107750 0.177475
H3    H     H_    0.686632 0.443016 0.906879 0.158219
H4    H     H_    0.312659 0.529968 0.093027 0.155729
H5    H     H_    0.897095 0.541904 0.609327 0.137331
H6    H     H_    0.124937 0.381389 0.467919 0.137426
H7    H     H_    0.033947 0.461284 0.259805 0.147901
H8    H     H_    0.897722 0.584165 0.295310 0.122225
H9    H     H_    0.862688 0.371685 0.102212 0.228152
H10   H     H_    0.751197 0.519939 0.128359 0.227818
H11   H     H_    0.921142 0.647055 0.062473 0.265752
H12   H     H_    0.847771 0.835092 0.199307 0.132278
H13   H     H_    0.878027 0.537856 0.941153 0.265729
H14   H     H_    0.034228 0.499694 0.036057 0.270533
H15   H     H_    0.128752 0.823006 0.682793 0.142274
H16   H     H_    0.265358 0.695764 0.689100 0.201974
H17   H     H_    0.996468 0.692384 0.803417 0.235563
H18   H     H_    0.136925 0.563149 0.814063 0.217042
H19   H     H_    0.281324 0.709905 0.925286 0.271485
H20   H     H_    0.135249 0.698471 0.007335 0.267273
H21   H     H_    0.140000 0.839030 0.914930 0.268332
H22   H     H_    0.670743 0.206505 0.305009 0.188219
H23   H     H_    0.211549 0.824461 0.383512 0.165939
H24   H     H_    0.842192 0.069949 0.204279 0.149105
H25   H     H_    0.022025 0.955804 0.475467 0.169137
H26   H     H_    0.674694 0.739308 0.291484 0.151645
H27   H     H_    0.279282 0.211787 0.625369 0.159514
H28   H     H_    0.379846 0.446611 0.890124 0.187530
N1    N     N_2   0.157300 0.551390 0.551120 0.049427
N2    N     N_2   0.842700 0.448610 0.448880 0.069876
O1    O     O_R   0.568940 0.489660 0.307530 -0.613702
O2    O     O_3   0.089596 0.667866 0.578954 -0.600064
O3    O     O_R   0.431060 0.510340 0.692470 -0.636091
O4    O     O_R   0.348880 0.522640 0.340350 -0.628977
O5    O     O_R   0.651120 0.477360 0.659650 -0.621016
O6    O     O_R   0.610030 0.300280 0.483580 -0.601863
O7    O     O_R   0.389970 0.699720 0.516420 -0.627685
O8    O     O_R   0.389970 0.333270 0.516400 -0.640670
O9    O     O_R   0.610030 0.666730 0.483600 -0.617340
O10   O     O_3   0.883564 0.390464 0.342277 -0.570172
Zn1   Zn    Zn3+2 0.646940 0.477980 0.478080 0.968614
Zn2   Zn    Zn3+2 0.353060 0.522020 0.521920 0.929571

loop_
_geom_bond_atom_site_label_1
_geom_bond_atom_site_label_2
_ccdc_geom_bond_type
C18   O10   S    
C22   H18   S    
C3    H22   S    
C7    H12   S    
C26   H2    S    
C10   H27   S    
C13   C17   A    
C4    H23   S    
C25   C27   D    
C2    O9    A    
C2    C16   S    
C12   O5    A    
C12   C25   S    
C19   C20   S    
C29   N2    D    
N2    O10   S    
N1    Zn2   S    
O8    Zn2   S    
C23   H4    S    
O1    Zn1   S    
C4    C15   A    
O4    Zn2   S    
C22   H17   S    
C26   C27   S    
C5    C7    A    
C9    H26   S    
O5    Zn1   S    
C21   C22   S    
C17   C30   S    
C9    C11   A    
C14   C17   A    
C21   O2    S    
C30   O6    A    
C3    C14   A    
C19   H9    S    
C24   H21   S    
C6    H25   S    
C20   H11   S    
C8    C10   A    
C28   C29   S    
C20   H14   S    
C18   H7    S    
C1    C23   S    
C21   H15   S    
C13   C15   A    
C24   H20   S    
C11   C14   A    
C22   C24   S    
C23   C26   D    
C19   H10   S    
C15   C16   A    
C1    O4    A    
C7    C9    A    
C5    H24   S    
O7    Zn2   S    
C20   H13   S    
O3    Zn2   S    
C28   H6    S    
C4    C6    A    
C21   H16   S    
C11   C16   A    
C28   N1    D    
C24   H19   S    
O9    Zn1   S    
C12   O3    A    
C29   H5    S    
C18   C19   S    
N1    O2    S    
C6    C8    A    
N2    Zn1   S    
C3    C5    A    
C18   H8    S    
C8    H1    S    
C10   C13   A    
C30   O8    A    
O6    Zn1   S    
C25   H3    S    
C2    O7    A    
C27   H28   S    
C1    O1    A    
