data_mof_unit_1423.cif
_audit_creation_date              2013-03-05T16:05:09-0500
_audit_creation_method            fapswitch 2.2
_symmetry_space_group_name_H-M    P1
_symmetry_Int_Tables_number       1
_space_group_crystal_system       triclinic
_cell_length_a                    10.838597
_cell_length_b                    9.516282
_cell_length_c                    10.746731
_cell_angle_alpha                 90.124861
_cell_angle_beta                  90.417031
_cell_angle_gamma                 90.113802
_cell_volume                      1108.41742464

loop_
_atom_site_label
_atom_site_type_symbol
_atom_site_description
_atom_site_fract_x
_atom_site_fract_y
_atom_site_fract_z
_atom_type_partial_charge
O1    O     O_R   0.319660 0.618740 0.499990 -0.536224
O2    O     O_R   0.319660 0.381260 0.499990 -0.542064
C1    C     C_R   0.261947 0.499741 0.500673 0.893933
O3    O     O_R   0.499990 0.618790 0.317690 -0.598638
O4    O     O_R   0.499990 0.381210 0.317690 -0.592527
C2    C     C_R   0.501077 0.500192 0.259887 0.773817
Cu1   Cu    Cu3+1 0.500020 0.640660 0.500000 0.996741
Cu2   Cu    Cu3+1 0.500020 0.359340 0.500000 0.985709
O5    O     O_R   0.680370 0.618830 0.500010 -0.585988
O6    O     O_R   0.680370 0.381170 0.500010 -0.591312
O7    O     O_R   0.500030 0.618780 0.682310 -0.577256
O8    O     O_R   0.500030 0.381220 0.682310 -0.598272
C3    C     C_R   0.737534 0.500118 0.500643 0.835230
C4    C     C_R   0.501572 0.500306 0.740147 0.782509
C5    C     C_3   0.377670 0.440543 0.069936 -0.196219
C6    C     C_3   0.609768 0.407405 0.071793 -0.166044
H1    H     H_    0.366146 0.330886 0.103810 0.166564
H2    H     H_    0.593217 0.296710 0.100648 0.137861
C7    C     C_3   0.380009 0.437575 0.925835 -0.400676
C8    C     C_3   0.612021 0.412341 0.927667 -0.411645
H3    H     H_    0.370767 0.326834 0.893355 0.176868
H4    H     H_    0.606123 0.303065 0.890839 0.165626
H5    H     H_    0.300706 0.496225 0.884816 0.200016
H6    H     H_    0.700045 0.457709 0.892608 0.166837
H7    H     H_    0.445962 0.724299 0.106263 0.179593
H8    H     H_    0.609005 0.698098 0.104094 0.187508
H9    H     H_    0.437062 0.718829 0.896245 0.211584
H10   H     H_    0.602170 0.702287 0.893040 0.165937
C9    C     C_3   0.519566 0.653467 0.071128 -0.375375
C10   C     C_3   0.502191 0.501120 0.121604 0.039999
C11   C     C_3   0.502455 0.500930 0.877846 0.108314
C12   C     C_3   0.515994 0.653319 0.928650 -0.364931
C13   C     C_R   0.061136 0.384671 0.449579 0.335890
C14   C     C_R   0.062941 0.612341 0.557926 0.317848
C15   C     C_R   0.933361 0.385396 0.452457 -0.194534
C16   C     C_R   0.934835 0.613345 0.553218 -0.223380
H11   H     H_    0.882783 0.298436 0.411123 0.191956
H12   H     H_    0.885103 0.699931 0.595062 0.183192
C17   C     C_R   0.870643 0.500024 0.501728 -0.147030
C18   C     C_R   0.127454 0.498938 0.502654 -0.278632
C19   C     C_R   0.433741 0.073950 0.413170 0.030052
C20   C     C_R   0.433403 0.925174 0.413384 0.027143
H13   H     H_    0.381069 0.129470 0.343253 0.173498
H14   H     H_    0.379803 0.868833 0.344093 0.133266
N1    N     N_R   0.500030 0.852070 0.500030 -0.165571
N2    N     N_R   0.500030 0.147930 0.500030 -0.174801
C21   C     C_R   0.566824 0.925931 0.586589 0.006584
C22   C     C_R   0.566747 0.074781 0.586647 -0.008683
H15   H     H_    0.620596 0.870142 0.655725 0.115208
H16   H     H_    0.620460 0.131125 0.655841 0.122862
C23   C     C_1   0.269919 0.521324 0.114090 0.324236
N3    N     N_1   0.185764 0.584653 0.148694 -0.233946
C24   C     C_1   0.731192 0.448657 0.124038 0.235807
N4    N     N_1   0.826202 0.481036 0.164841 -0.250333
N5    N     N_R   0.120997 0.269468 0.388559 0.134306
O9    O     O_R   0.191391 0.293172 0.293424 -0.405010
O10   O     O_R   0.086433 0.141154 0.411688 -0.327578
N6    N     N_R   0.125041 0.723195 0.624557 0.141917
O11   O     O_R   0.203328 0.692819 0.712820 -0.384552
O12   O     O_R   0.087354 0.852303 0.613109 -0.317189

loop_
_geom_bond_atom_site_label_1
_geom_bond_atom_site_label_2
_geom_bond_distance
_ccdc_geom_bond_type
C7    H3    1.113521 S    
C13   N5    1.434834 S    
O4    Cu2   1.970709 S    
Cu1   O7    1.970719 S    
N5    O9    1.299993 A    
O6    C3    1.289316 A    
C9    C10   1.560583 S    
C5    C23   1.479888 S    
C19   C20   1.415797 A    
C15   C17   1.392139 A    
C11   C12   1.554733 S    
Cu2   O8    1.969816 S    
C4    C11   1.479778 S    
C19   N2    1.366956 A    
C7    C11   1.548847 S    
C22   H16   1.081710 S    
O2    C1    1.290511 A    
N6    O11   1.301435 A    
Cu1   Cu2   2.677120 S    
C21   H15   1.081761 S    
C14   N6    1.437191 S    
O1    Cu1   1.965535 S    
C24   N4    1.157256 T    
C5    C7    1.549205 S    
C19   H13   1.079962 S    
C16   C17   1.393563 A    
C20   H14   1.081764 S    
H8    C9    1.112806 S    
O3    Cu1   1.969807 S    
C14   C18   1.418665 A    
Cu1   N1    2.011836 S    
C16   H12   1.084144 S    
C6    C8    1.550069 S    
C2    C10   1.486276 S    
O8    C4    1.291354 A    
C1    C18   1.458041 S    
C9    C12   1.531378 S    
C14   C16   1.389092 A    
N5    O10   1.301540 A    
H7    C9    1.113000 S    
O4    C2    1.292735 A    
C13   C15   1.385505 A    
O7    C4    1.288676 A    
Cu2   N2    2.011839 S    
C3    C17   1.442677 S    
C13   C18   1.418683 A    
N6    O12   1.301323 A    
C23   N3    1.157416 T    
N2    C22   1.367108 A    
Cu1   O5    1.966158 S    
H10   C12   1.113660 S    
C5    C10   1.564199 S    
Cu2   O6    1.965338 S    
O3    C2    1.287204 A    
N1    C21   1.367043 A    
C21   C22   1.416494 A    
C5    H1    1.113045 S    
O5    C3    1.289535 A    
C7    H5    1.114488 S    
C15   H11   1.084297 S    
H9    C12   1.113796 S    
C6    C24   1.479054 S    
C6    C10   1.566063 S    
C8    C11   1.550582 S    
C6    H2    1.113319 S    
O2    Cu2   1.966358 S    
C8    H6    1.114838 S    
C8    H4    1.113419 S    
O1    C1    1.292677 A    
C20   N1    1.366582 A    
