data_mof_unit_924.cif
_audit_creation_date              2012-12-11T15:28:42-0500
_audit_creation_method            fapswitch 2.2
_symmetry_space_group_name_H-M    P1
_symmetry_Int_Tables_number       1
_space_group_crystal_system       triclinic
_cell_length_a                    6.9527
_cell_length_b                    19.565405
_cell_length_c                    23.465145
_cell_angle_alpha                 96.261704
_cell_angle_beta                  91.200889
_cell_angle_gamma                 88.619388
_cell_volume                      3171.51567098

loop_
_atom_site_label
_atom_site_type_symbol
_atom_type_description
_atom_site_fract_x
_atom_site_fract_y
_atom_site_fract_z
_atom_type_partial_charge
O1    O     O_R   0.617180 0.809390 0.808140 -0.535783
O2    O     O_R   0.382820 0.190610 0.191860 -0.534992
O3    O     O_R   0.293300 0.672410 0.795490 -0.515879
O4    O     O_R   0.706700 0.327590 0.204510 -0.515095
O5    O     O_R   0.117220 0.690610 0.691850 -0.520281
O6    O     O_R   0.882780 0.309390 0.308150 -0.524352
C1    C     C_R   0.464758 0.648022 0.805346 0.861539
C2    C     C_R   0.535250 0.352096 0.194784 0.864638
O7    O     O_R   0.287840 0.807750 0.814460 -0.524868
O8    O     O_R   0.712160 0.192250 0.185540 -0.524778
O9    O     O_R   0.111720 0.826910 0.710960 -0.517835
O10   O     O_R   0.888280 0.173090 0.289040 -0.541657
C3    C     C_R   0.456522 0.830758 0.833180 0.717664
C4    C     C_R   0.543475 0.169255 0.166810 0.718015
O11   O     O_R   0.622680 0.673080 0.789040 -0.529531
O12   O     O_R   0.377320 0.326920 0.210960 -0.529230
O13   O     O_3   0.448820 0.756130 0.716020 -0.349924
O14   O     O_3   0.551180 0.243870 0.283980 -0.363322
V1    V     V_3+5 0.176220 0.748860 0.756300 1.564897
V2    V     V_3+5 0.823780 0.251140 0.243700 1.541391
O15   O     O_R   0.781670 0.827580 0.704500 -0.541798
O16   O     O_R   0.218330 0.172420 0.295500 -0.534980
C5    C     C_R   0.947219 0.852133 0.694112 0.748087
C6    C     C_R   0.052188 0.148288 0.305996 0.768979
O17   O     O_R   0.787130 0.692240 0.685530 -0.518442
O18   O     O_R   0.212870 0.307760 0.314470 -0.514075
C7    C     C_R   0.956130 0.669201 0.666806 0.749075
C8    C     C_R   0.043872 0.330779 0.333206 0.776777
V3    V     V_3+5 0.675510 0.751130 0.743690 1.540734
V4    V     V_3+5 0.324490 0.248870 0.256310 1.536103
O19   O     O_3   0.952780 0.743870 0.783980 -0.362899
O20   O     O_3   0.047220 0.256130 0.216020 -0.361849
C9    C     C_1   0.966696 0.617123 0.614777 -0.138207
C10   C     C_1   0.033317 0.382809 0.385263 -0.115597
C11   C     C_1   0.978249 0.573596 0.571965 0.050625
C12   C     C_1   0.021774 0.426308 0.428092 0.060600
C13   C     C_1   0.993449 0.521800 0.521357 0.039395
C14   C     C_1   0.006580 0.478089 0.478710 0.041866
C15   C     C_R   0.936911 0.914710 0.663185 -0.115002
C16   C     C_R   0.052263 0.086881 0.337715 -0.112813
C17   C     C_R   0.758235 0.021402 0.653174 0.012724
C18   C     C_R   0.116798 0.964094 0.335346 0.021916
C19   C     C_R   0.803870 0.965739 0.683470 -0.247602
C20   C     C_R   0.092224 0.023127 0.307273 -0.282402
C21   C     C_R   0.028053 0.919581 0.610428 0.276784
C22   C     C_R   0.030778 0.091863 0.397795 0.297972
C23   C     C_R   0.964299 0.971217 0.574464 0.006417
C24   C     C_R   0.028940 0.030744 0.426582 0.003038
C25   C     C_R   0.837399 0.024632 0.598490 0.048546
C26   C     C_R   0.085275 0.967351 0.395097 0.043563
C27   C     C_R   0.012497 0.970626 0.514880 0.082795
C28   C     C_R   0.971947 0.029678 0.485078 0.074413
C29   C     C_R   0.849771 0.081255 0.511471 -0.100139
C30   C     C_R   0.070605 0.909697 0.481776 -0.104486
C31   C     C_R   0.782365 0.078379 0.566210 -0.170782
C32   C     C_R   0.103063 0.907845 0.423429 -0.194886
H1    H     H_    0.681515 0.118453 0.582376 0.156254
H2    H     H_    0.139172 0.858382 0.400412 0.150105
H3    H     H_    0.114461 0.019972 0.261418 0.126109
H4    H     H_    0.733051 0.961893 0.723757 0.131151
H5    H     H_    0.787022 0.121016 0.488127 0.190423
H6    H     H_    0.072168 0.860705 0.498731 0.187515
C33   C     C_R   0.482872 0.586365 0.836265 -0.194308
C34   C     C_R   0.517035 0.413906 0.164036 -0.194807
C35   C     C_R   0.540371 0.463696 0.833163 -0.173630
C36   C     C_R   0.458551 0.536583 0.167336 -0.175888
C37   C     C_R   0.533893 0.523118 0.805639 0.326459
C38   C     C_R   0.465606 0.477066 0.194763 0.327026
C39   C     C_R   0.450186 0.590260 0.895903 0.254748
C40   C     C_R   0.549577 0.410208 0.104415 0.254612
C41   C     C_R   0.488716 0.531251 0.926023 0.024125
C42   C     C_R   0.510368 0.469257 0.074413 0.024272
C43   C     C_R   0.514705 0.466999 0.892389 0.018851
C44   C     C_R   0.484014 0.533434 0.108107 0.020508
C45   C     C_R   0.497450 0.532007 0.987443 0.079130
C46   C     C_R   0.501266 0.468556 0.013023 0.078517
C47   C     C_R   0.485115 0.407056 0.976349 -0.092890
C48   C     C_R   0.513117 0.593504 0.024173 -0.093168
C49   C     C_R   0.505627 0.405916 0.917626 -0.152233
C50   C     C_R   0.492490 0.594570 0.082907 -0.156541
H7    H     H_    0.506891 0.356715 0.891412 0.130763
H8    H     H_    0.490810 0.643749 0.109160 0.124180
H9    H     H_    0.566280 0.414554 0.808080 0.159730
H10   H     H_    0.432284 0.585661 0.192486 0.156398
H11   H     H_    0.452796 0.358997 0.991968 0.188454
H12   H     H_    0.545215 0.641612 0.008623 0.188050
C51   C     C_1   0.467257 0.882804 0.885235 -0.177202
C52   C     C_1   0.532743 0.117207 0.114754 -0.176419
C53   C     C_1   0.478681 0.926323 0.928062 0.015164
C54   C     C_1   0.521320 0.073684 0.071929 0.014614
C55   C     C_1   0.493578 0.978133 0.978675 0.011514
C56   C     C_1   0.506424 0.021868 0.021319 0.011422
Cl1   Cl    Cl    0.049359 0.175040 0.435688 -0.684498
Cl2   Cl    Cl    0.237081 0.867616 0.595996 -0.696672
C57   C     C_R   0.611971 0.071806 0.677851 0.084016
C58   C     C_R   0.419544 0.052344 0.680737 -0.111118
C59   C     C_R   0.280580 0.099639 0.703842 -0.121831
C60   C     C_R   0.332977 0.166479 0.724438 -0.080008
C61   C     C_R   0.524571 0.186050 0.722056 -0.088079
C62   C     C_R   0.664071 0.138871 0.698922 -0.145932
H13   H     H_    0.377354 0.000733 0.664870 0.162725
H14   H     H_    0.132472 0.084426 0.705816 0.118194
H15   H     H_    0.225201 0.203061 0.742313 0.114619
H16   H     H_    0.564948 0.237787 0.738124 0.123679
H17   H     H_    0.811993 0.154539 0.697209 0.114966
C63   C     C_R   0.177469 0.899797 0.300653 0.096521
C64   C     C_R   0.047929 0.865206 0.261552 -0.140630
C65   C     C_R   0.106330 0.804817 0.228368 -0.105592
C66   C     C_R   0.294348 0.778973 0.233787 -0.068685
C67   C     C_R   0.424319 0.813481 0.272411 -0.114389
C68   C     C_R   0.366332 0.873767 0.305790 -0.137290
H18   H     H_    0.902014 0.884837 0.257014 0.112446
H19   H     H_    0.005920 0.778099 0.198415 0.119120
H20   H     H_    0.339376 0.732284 0.208007 0.106758
H21   H     H_    0.570026 0.793574 0.276437 0.119746
H22   H     H_    0.468205 0.900231 0.335486 0.123464
Cl3   Cl    Cl    0.676009 0.336149 0.073001 -0.682001
Cl4   Cl    Cl    0.324414 0.664547 0.927155 -0.685201
Cl5   Cl    Cl    0.425165 0.484409 0.269131 -0.655228
Cl6   Cl    Cl    0.574386 0.515549 0.731265 -0.647174

loop_
_geom_bond_atom_site_label_1
_geom_bond_atom_site_label_2
_ccdc_geom_bond_type
C36   C38   A    
O13   V3    S    
C64   H18   S    
C57   C58   A    
O4    C2    A    
V1    O19   S    
C59   C60   A    
C23   C25   A    
C7    C9    S    
C16   C22   A    
O9    V1    S    
C62   H17   S    
C34   C38   A    
C11   C13   S    
O3    C1    A    
C38   Cl5   S    
C9    C11   T    
C48   C50   A    
C35   H9    S    
C63   C64   A    
C20   H3    S    
O12   V4    S    
C60   H15   S    
C36   C44   A    
C39   Cl4   S    
C35   C43   A    
C65   C66   A    
C21   C23   A    
C39   C41   A    
O7    C3    A    
C67   C68   A    
C6    C16   S    
O5    C7    A    
C29   H5    S    
O7    V1    S    
O6    C8    A    
C33   C39   A    
O8    V2    S    
C35   C37   A    
C64   C65   A    
O3    V1    S    
C68   H22   S    
O14   V4    S    
C34   C40   A    
C53   C55   S    
C37   Cl6   S    
C10   C12   T    
C59   H14   S    
C42   C46   A    
C15   C21   A    
C48   H12   S    
C24   C26   A    
C61   H16   S    
C8    C10   S    
C2    O12   A    
C44   C50   A    
C58   H13   S    
C17   C19   A    
O10   V2    S    
C18   C20   A    
C21   Cl2   S    
C17   C25   A    
O11   V3    S    
C22   C24   A    
C63   C68   A    
C29   C31   A    
O17   V3    S    
C33   C37   A    
C27   C28   A    
V4    O20   S    
C46   C47   A    
C42   C44   A    
O8    C4    A    
C55   C56   T    
C49   H7    S    
C57   C62   A    
C15   C19   A    
C1    O11   A    
C30   H6    S    
C25   C31   A    
O15   V3    S    
C26   C32   A    
C36   H10   S    
C65   H19   S    
C45   C46   A    
C13   C14   T    
C54   C56   S    
C61   C62   A    
C16   C20   A    
C58   C59   A    
C3    C51   S    
O1    V3    S    
C43   C49   A    
C47   C49   A    
C18   C63   S    
C1    C33   S    
C19   H4    S    
C18   C26   A    
C66   H20   S    
C50   H8    S    
C2    C34   S    
O18   V4    S    
C31   H1    S    
O16   C6    A    
O1    C3    A    
C12   C14   S    
C28   C29   A    
C41   C43   A    
V2    O20   S    
O16   V4    S    
C52   C54   T    
C23   C27   A    
C30   C32   A    
O5    V1    S    
O17   C7    A    
O6    V2    S    
O10   C6    A    
O18   C8    A    
O2    V4    S    
C27   C30   A    
O15   C5    A    
C4    C52   S    
V3    O19   S    
C66   C67   A    
C41   C45   A    
C17   C57   S    
C22   Cl1   S    
C5    C15   S    
O9    C5    A    
O13   V1    S    
C32   H2    S    
O14   V2    S    
O2    C4    A    
C45   C48   A    
C47   H11   S    
O4    V2    S    
C24   C28   A    
C60   C61   A    
C51   C53   T    
C40   C42   A    
C40   Cl3   S    
C67   H21   S    
