data_mof_unit_430.cif
_audit_creation_date              2012-12-11T14:13:07-0500
_audit_creation_method            fapswitch 2.2
_symmetry_space_group_name_H-M    P1
_symmetry_Int_Tables_number       1
_space_group_crystal_system       triclinic
_cell_length_a                    11.706291
_cell_length_b                    18.437456
_cell_length_c                    10.067193
_cell_angle_alpha                 89.985175
_cell_angle_beta                  110.349483
_cell_angle_gamma                 89.911813
_cell_volume                      2037.23214739

loop_
_atom_site_label
_atom_site_type_symbol
_atom_type_description
_atom_site_fract_x
_atom_site_fract_y
_atom_site_fract_z
_atom_type_partial_charge
C1    C     C_R   0.082703 0.642986 0.142811 0.575790
C2    C     C_R   0.861160 0.359972 0.839592 0.589679
C3    C     C_R   0.860133 0.140413 0.840355 0.627355
C4    C     C_R   0.073454 0.854865 0.138523 0.562245
C5    C     C_R   0.385466 0.453010 0.488246 0.007961
C6    C     C_R   0.573558 0.525949 0.429278 0.052345
C7    C     C_R   0.606425 0.957992 0.506649 -0.006057
C8    C     C_R   0.403744 0.035856 0.519326 0.036314
C9    C     C_2   0.370102 0.938958 0.985439 -0.069821
C10   C     C_2   0.591900 0.078315 0.090356 -0.107808
C11   C     C_2   0.629876 0.437791 0.016941 -0.065507
C12   C     C_2   0.405959 0.577315 0.916121 -0.093511
C13   C     C_2   0.461954 0.976123 0.074512 -0.130402
C14   C     C_2   0.480090 0.051260 0.041453 -0.138011
C15   C     C_2   0.523877 0.469837 0.953842 -0.091890
C16   C     C_2   0.509507 0.544535 0.986198 -0.132611
C17   C     C_2   0.015268 0.927469 0.101175 0.067420
C18   C     C_2   0.862246 0.061195 0.858757 0.033772
C19   C     C_2   0.863648 0.439517 0.848870 -0.050751
C20   C     C_2   0.051513 0.566299 0.118354 0.090573
C21   C     C_2   0.968579 0.948001 0.961650 0.042004
C22   C     C_2   0.969695 0.025144 0.918574 0.033282
C23   C     C_2   0.965069 0.476392 0.923457 -0.006051
C24   C     C_2   0.960090 0.547572 0.998104 -0.004878
C25   C     C_R   0.467796 0.644131 0.435396 0.557968
C26   C     C_R   0.523808 0.348044 0.548695 0.562398
C27   C     C_R   0.528441 0.147560 0.555240 0.556167
C28   C     C_R   0.471845 0.851615 0.445602 0.532730
C29   C     C_R   0.376120 0.645730 0.963453 0.574218
C30   C     C_R   0.646226 0.361985 0.994005 0.552947
C31   C     C_R   0.623063 0.146103 0.038367 0.574889
C32   C     C_R   0.353542 0.862311 0.006502 0.558473
C33   C     C_R   0.479866 0.414010 0.463081 -0.012316
C34   C     C_R   0.488261 0.566367 0.475238 0.056204
C35   C     C_R   0.506316 0.921275 0.521791 -0.013553
C36   C     C_R   0.501250 0.073421 0.495192 0.009195
C37   C     C_R   0.281641 0.416978 0.496864 -0.042145
C38   C     C_R   0.677472 0.557829 0.409910 -0.047394
C39   C     C_R   0.711139 0.919384 0.509584 -0.064214
C40   C     C_R   0.297723 0.072096 0.521945 -0.036129
C41   C     C_R   0.195820 0.453375 0.540234 0.099843
C42   C     C_R   0.760055 0.517639 0.368198 0.031886
C43   C     C_R   0.795942 0.950023 0.458394 0.090231
C44   C     C_R   0.217578 0.039186 0.579354 0.089477
C45   C     C_R   0.213617 0.526700 0.574654 -0.115758
C46   C     C_R   0.740368 0.443687 0.343542 -0.143964
C47   C     C_R   0.786337 0.023568 0.423600 -0.101692
C48   C     C_R   0.237503 0.966769 0.622950 -0.073064
C49   C     C_R   0.314811 0.562913 0.565204 -0.118368
C50   C     C_R   0.639377 0.410957 0.359226 -0.116621
C51   C     C_R   0.688799 0.064468 0.432354 -0.128168
C52   C     C_R   0.334077 0.927978 0.607211 -0.082324
C53   C     C_R   0.397362 0.528260 0.511170 0.047701
C54   C     C_R   0.561289 0.450260 0.412548 0.005677
C55   C     C_R   0.598184 0.032782 0.477059 0.015391
C56   C     C_R   0.415149 0.961224 0.550165 0.040261
Cr1   Cr    Cr6+3 0.187610 0.750000 0.979860 1.112331
Cr2   Cr    Cr6+3 0.812390 0.250000 0.020140 1.101071
Cr3   Cr    Cr6+3 0.245810 0.750000 0.341640 1.051362
Cr4   Cr    Cr6+3 0.754190 0.250000 0.658360 1.043942
Cr5   Cr    Cr6+3 0.485760 0.750000 0.219910 1.081865
Cr6   Cr    Cr6+3 0.514240 0.250000 0.780090 1.052913
H1    H     H_    0.150975 0.556107 0.612757 0.185516
H2    H     H_    0.804727 0.410850 0.314720 0.195747
H3    H     H_    0.850608 0.048834 0.382889 0.182765
H4    H     H_    0.176916 0.939441 0.666781 0.203154
H5    H     H_    0.266327 0.360433 0.466547 0.173100
H6    H     H_    0.707558 0.611505 0.448426 0.221432
H7    H     H_    0.723538 0.863467 0.545128 0.192398
H8    H     H_    0.277286 0.126378 0.479024 0.167554
H9    H     H_    0.329080 0.617546 0.606152 0.136905
H10   H     H_    0.625468 0.353657 0.335446 0.141946
H11   H     H_    0.680966 0.119603 0.393654 0.138805
H12   H     H_    0.346758 0.872191 0.643089 0.138600
H13   H     H_    0.405735 0.081451 0.965960 0.165428
H14   H     H_    0.529054 0.949635 0.164848 0.161980
H15   H     H_    0.579356 0.570735 0.074014 0.181428
H16   H     H_    0.446676 0.440605 0.881030 0.169000
H17   H     H_    0.666194 0.045303 0.157097 0.135677
H18   H     H_    0.303893 0.966513 0.897157 0.139453
H19   H     H_    0.335288 0.548566 0.835381 0.147463
H20   H     H_    0.707935 0.468951 0.081390 0.151669
O1    O     O_R   0.267710 0.668200 0.902110 -0.493005
O2    O     O_R   0.732290 0.331800 0.097890 -0.541138
O3    O     O_R   0.732290 0.168200 0.097890 -0.513140
O4    O     O_R   0.267710 0.831800 0.902110 -0.517011
O5    O     O_R   0.099480 0.674460 0.038850 -0.452182
O6    O     O_R   0.900520 0.325540 0.961150 -0.441227
O7    O     O_R   0.900520 0.174460 0.961150 -0.456875
O8    O     O_R   0.099480 0.825540 0.038850 -0.496299
O9    O     O_R   0.116720 0.669210 0.267660 -0.533403
O10   O     O_R   0.883280 0.330790 0.732340 -0.479635
O11   O     O_R   0.883280 0.169210 0.732340 -0.455963
O12   O     O_R   0.116720 0.830790 0.267660 -0.475681
O13   O     O_R   0.366710 0.675440 0.427590 -0.505707
O14   O     O_R   0.633290 0.324560 0.572410 -0.518370
O15   O     O_R   0.633290 0.175440 0.572410 -0.525221
O16   O     O_R   0.366710 0.824560 0.427590 -0.495987
O17   O     O_R   0.534870 0.669390 0.371760 -0.519714
O18   O     O_R   0.465130 0.330610 0.628240 -0.516278
O19   O     O_R   0.465130 0.169390 0.628240 -0.497680
O20   O     O_R   0.534870 0.830610 0.371760 -0.514019
O21   O     O_R   0.453080 0.674480 0.075160 -0.494311
O22   O     O_R   0.546920 0.325520 0.924840 -0.500558
O23   O     O_R   0.546920 0.174480 0.924840 -0.469690
O24   O     O_R   0.453080 0.825520 0.075160 -0.496053
O25   O     O_3   0.306390 0.750000 0.180470 -0.287274
O26   O     O_3   0.693610 0.250000 0.819530 -0.332804
C57   C     C_2   0.088306 0.415213 0.550917 0.632924
O27   O     O_2   0.070546 0.351225 0.518268 -0.494291
O28   O     O_R   0.005905 0.453053 0.597290 -0.698230
H21   H     H_    0.931999 0.423243 0.591032 0.347930
C58   C     C_2   0.870185 0.552869 0.358399 0.600908
O29   O     O_2   0.938407 0.518951 0.313192 -0.509243
O30   O     O_R   0.897655 0.624522 0.403612 -0.692142
H22   H     H_    0.979084 0.640942 0.400649 0.352054
C59   C     C_2   0.887534 0.902945 0.431526 0.587118
O31   O     O_2   0.984220 0.928156 0.433943 -0.482716
O32   O     O_R   0.864251 0.828886 0.405835 -0.696642
H23   H     H_    0.934383 0.802199 0.390393 0.354253
C60   C     C_2   0.111985 0.080054 0.589728 0.580256
O33   O     O_2   0.039629 0.050327 0.634785 -0.481178
O34   O     O_R   0.094543 0.152769 0.547705 -0.696230
H24   H     H_    0.018441 0.174391 0.558089 0.373895
C61   C     C_2   0.092583 0.060532 0.952715 0.605762
O35   O     O_2   0.183134 0.029915 0.032197 -0.555625
O36   O     O_R   0.106596 0.127671 0.895747 -0.619809
H25   H     H_    0.194548 0.144304 0.927949 0.332461
C62   C     C_2   0.928829 0.894169 0.845166 0.598434
O37   O     O_2   0.853513 0.847965 0.843698 -0.469987
O38   O     O_R   0.987568 0.892097 0.746326 -0.682227
H26   H     H_    0.969445 0.845605 0.689277 0.346955
C63   C     C_2   0.858354 0.600686 0.945437 0.593462
O39   O     O_2   0.862870 0.649121 0.864290 -0.449320
O40   O     O_R   0.762414 0.598240 0.997086 -0.704537
H27   H     H_    0.701106 0.638587 0.956989 0.348052
C64   C     C_2   0.084174 0.451197 0.915688 0.624739
O41   O     O_2   0.154326 0.495954 0.897744 -0.526860
O42   O     O_R   0.116391 0.377791 0.927970 -0.619965
H28   H     H_    0.199248 0.368908 0.919939 0.333619
C65   C     C_2   0.742254 0.029443 0.852956 0.512332
O43   O     O_2   0.648900 0.063062 0.793462 -0.536658
O44   O     O_R   0.734032 0.965023 0.922422 -0.678566
H29   H     H_    0.646955 0.951345 0.909616 0.347630
C66   C     C_2   0.048332 0.983883 0.211390 0.620046
O45   O     O_2   0.148520 0.981662 0.303432 -0.485831
O46   O     O_R   0.969213 0.041688 0.205129 -0.696842
H30   H     H_    0.006593 0.079311 0.281103 0.348095
C67   C     C_2   0.150546 0.514864 0.188939 0.581050
O47   O     O_2   0.126473 0.454305 0.220829 -0.488324
O48   O     O_R   0.269222 0.532445 0.198809 -0.696302
H31   H     H_    0.323474 0.488183 0.213787 0.327839
C68   C     C_2   0.753779 0.478515 0.761510 0.531235
O49   O     O_2   0.653119 0.456465 0.750237 -0.512845
O50   O     O_R   0.763940 0.540201 0.687520 -0.666301
H32   H     H_    0.848746 0.547530 0.684133 0.333954

loop_
_geom_bond_atom_site_label_1
_geom_bond_atom_site_label_2
_ccdc_geom_bond_type
C24   C63   S    
C1    O5    A    
C44   C48   A    
C31   O3    A    
C5    C37   A    
C12   C29   S    
C19   C23   D    
O28   H21   S    
C7    C55   A    
C6    C34   A    
C8    C56   A    
C59   O32   S    
C66   O45   D    
C67   O47   D    
O40   H27   S    
Cr6   O23   S    
Cr1   O4    S    
C10   H17   S    
C62   O38   S    
C64   O42   S    
C50   C54   A    
C40   H8    S    
C5    C53   A    
Cr5   O21   S    
C38   C42   A    
C52   H12   S    
C65   O44   S    
C42   C46   A    
C15   H16   S    
Cr6   O26   S    
O44   H29   S    
C44   C60   S    
C20   C67   S    
C29   O21   A    
C3    C18   S    
C16   H15   S    
C8    C36   A    
C9    C13   D    
C50   H10   S    
C26   C33   S    
C57   O28   S    
C11   C15   D    
C10   C31   S    
C25   O17   A    
C12   C16   D    
C11   C30   S    
C5    C33   A    
C23   C24   S    
C6    C38   A    
C2    O6    A    
Cr3   O12   S    
C68   O50   S    
C40   C44   A    
Cr6   O22   S    
Cr4   O26   S    
C25   C34   S    
Cr6   O19   S    
Cr4   O11   S    
C2    C19   S    
C1    O9    A    
C41   C57   S    
C13   C14   S    
C37   C41   A    
C31   O23   A    
Cr5   O17   S    
Cr3   O13   S    
C6    C54   A    
C66   O46   S    
C4    O8    A    
Cr4   O10   S    
C11   H20   S    
C26   O14   A    
Cr1   O8    S    
O46   H30   S    
C20   C24   D    
O34   H24   S    
C28   C35   S    
Cr4   O15   S    
C10   C14   D    
C22   C61   S    
C39   C43   A    
C51   C55   A    
C27   O19   A    
Cr3   O25   S    
Cr1   O5    S    
C46   H2    S    
C9    H18   S    
C17   C66   S    
Cr2   O2    S    
C42   C58   S    
C13   H14   S    
C45   C49   A    
O48   H31   S    
C32   O4    A    
Cr1   O1    S    
C39   H7    S    
C3    O11   A    
Cr3   O9    S    
O32   H23   S    
C2    O10   A    
Cr5   O24   S    
C21   C62   S    
C60   O33   D    
C43   C59   S    
C4    O12   A    
C4    C17   S    
Cr4   O14   S    
Cr1   O25   S    
C38   H6    S    
C25   O13   A    
C65   O43   D    
C63   O39   D    
C19   C68   S    
Cr6   O18   S    
C9    C32   S    
O38   H26   S    
Cr2   O3    S    
C63   O40   S    
C58   O29   D    
C28   O16   A    
C33   C54   A    
C27   O15   A    
C1    C20   S    
C7    C39   A    
C35   C56   A    
C18   C22   D    
C7    C35   A    
C23   C64   S    
C18   C65   S    
C51   H11   S    
Cr2   O6    S    
C47   C51   A    
O42   H28   S    
C29   O1    A    
C27   C36   S    
C64   O41   D    
C46   C50   A    
C59   O31   D    
C3    O7    A    
C14   H13   S    
C67   O48   S    
Cr5   O20   S    
C62   O37   D    
C36   C55   A    
C57   O27   D    
O30   H22   S    
C61   O35   D    
C52   C56   A    
C49   C53   A    
C15   C16   S    
C37   H5    S    
C45   H1    S    
C12   H19   S    
Cr2   O26   S    
C30   O2    A    
Cr5   O25   S    
Cr2   O7    S    
C17   C21   D    
C60   O34   S    
C28   O20   A    
C48   C52   A    
C34   C53   A    
C49   H9    S    
C30   O22   A    
O50   H32   S    
C61   O36   S    
Cr3   O16   S    
C41   C45   A    
C32   O24   A    
C8    C40   A    
C48   H4    S    
C68   O49   D    
C21   C22   S    
C43   C47   A    
C47   H3    S    
O36   H25   S    
C26   O18   A    
C58   O30   S    
