data_mof_unit_2994.cif
_audit_creation_date              2012-12-10T18:57:50-0500
_audit_creation_method            fapswitch 2.2
_symmetry_space_group_name_H-M    P1
_symmetry_Int_Tables_number       1
_space_group_crystal_system       triclinic
_cell_length_a                    10.800772
_cell_length_b                    9.86679
_cell_length_c                    8.905492
_cell_angle_alpha                 90.108486
_cell_angle_beta                  91.246916
_cell_angle_gamma                 91.038115
_cell_volume                      948.66596864

loop_
_atom_site_label
_atom_site_type_symbol
_atom_type_description
_atom_site_fract_x
_atom_site_fract_y
_atom_site_fract_z
_atom_type_partial_charge
C1    C     C_R   0.260187 0.498607 0.514110 0.853804
C2    C     C_R   0.065044 0.620891 0.540784 -0.043361
C3    C     C_R   0.873875 0.504127 0.470620 -0.257023
C4    C     C_R   0.126125 0.495872 0.529385 -0.257026
C5    C     C_R   0.571662 0.073750 0.601690 0.005548
C6    C     C_R   0.428337 0.926249 0.398310 0.005550
C7    C     C_R   0.429042 0.070555 0.397608 -0.013948
C8    C     C_R   0.570958 0.929445 0.602392 -0.013948
C9    C     C_2   0.117308 0.238894 0.530081 0.566490
C10   C     C_2   0.882693 0.761105 0.469928 0.566490
C11   C     C_2   0.869308 0.257526 0.394264 0.548424
C12   C     C_R   0.739814 0.501393 0.485891 0.853803
C13   C     C_2   0.130694 0.742470 0.605748 0.548419
C14   C     C_1   0.649648 0.148566 0.707509 0.314474
C15   C     C_1   0.350352 0.851434 0.292492 0.314466
C16   C     C_1   0.356027 0.141928 0.286752 0.302691
C17   C     C_1   0.643971 0.858072 0.713250 0.302693
C18   C     C_R   0.499714 0.499914 0.218687 0.937388
C19   C     C_R   0.500286 0.500086 0.781313 0.937385
C20   C     C_1   0.499900 0.499883 0.065397 -0.183050
C21   C     C_1   0.500100 0.500117 0.934603 -0.183049
C22   C     C_R   0.059334 0.372949 0.502797 -0.068743
C23   C     C_R   0.940667 0.627050 0.497210 -0.068742
C24   C     C_R   0.934956 0.379107 0.459223 -0.043361
H1    H     H_    0.172892 0.223712 0.631491 0.056184
H2    H     H_    0.827110 0.776289 0.368517 0.056183
H3    H     H_    0.818036 0.266752 0.288693 0.032044
H4    H     H_    0.181971 0.733238 0.711315 0.032043
N1    N     N_R   0.500000 0.857200 0.500000 -0.139548
N2    N     N_R   0.500000 0.142800 0.500000 -0.139549
N3    N     N_1   0.712743 0.207700 0.792562 -0.189456
N4    N     N_1   0.287257 0.792300 0.207438 -0.189458
N5    N     N_1   0.297308 0.198190 0.197095 -0.178100
N6    N     N_1   0.702689 0.801811 0.802908 -0.178098
O1    O     O_R   0.316770 0.614620 0.499990 -0.614343
O2    O     O_2   0.892061 0.852897 0.561732 -0.506536
O3    O     O_2   0.864541 0.150368 0.462382 -0.507708
O4    O     O_2   0.135457 0.849632 0.537638 -0.507703
O5    O     O_R   0.683230 0.385380 0.500010 -0.614343
O6    O     O_R   0.683230 0.614620 0.500010 -0.633660
O7    O     O_R   0.316770 0.385380 0.499990 -0.633660
O8    O     O_R   0.500010 0.614640 0.285340 -0.623984
O9    O     O_R   0.499990 0.385360 0.714660 -0.623986
O10   O     O_R   0.499990 0.614640 0.714660 -0.624475
O11   O     O_R   0.500010 0.385360 0.285340 -0.624474
O12   O     O_2   0.107938 0.147100 0.438280 -0.506540
Zn1   Zn    Zn3+2 0.500000 0.653120 0.500000 0.966897
Zn2   Zn    Zn3+2 0.500000 0.346880 0.500000 0.966897

loop_
_geom_bond_atom_site_label_1
_geom_bond_atom_site_label_2
_ccdc_geom_bond_type
C12   O6    A    
O6    Zn1   S    
C2    C4    A    
C13   H4    S    
C6    C7    A    
C16   N5    T    
C5    C8    A    
C4    C22   A    
O9    Zn2   S    
C3    C23   A    
C8    C17   S    
O10   Zn1   S    
C11   H3    S    
C14   N3    T    
C1    C4    S    
O1    Zn1   S    
C10   H2    S    
C12   O5    A    
C13   O4    D    
C9    H1    S    
C9    O12   D    
C7    N2    A    
C20   C21   T    
C3    C24   A    
N1    Zn1   S    
C8    N1    A    
C1    O7    A    
C7    C16   S    
C19   C21   S    
O7    Zn2   S    
C19   O9    A    
C18   C20   S    
O8    Zn1   S    
C18   O8    A    
C10   C23   S    
C22   C24   A    
C9    C22   S    
C17   N6    T    
C18   O11   A    
C11   C24   S    
C15   N4    T    
C6    N1    A    
C19   O10   A    
C1    O1    A    
C5    N2    A    
O11   Zn2   S    
N2    Zn2   S    
C2    C23   A    
C11   O3    D    
C2    C13   S    
C10   O2    D    
C3    C12   S    
C6    C15   S    
C5    C14   S    
O5    Zn2   S    
