data_mof_unit_3087.cif
_audit_creation_date              2012-12-10T20:48:18-0500
_audit_creation_method            fapswitch 2.2
_symmetry_space_group_name_H-M    P1
_symmetry_Int_Tables_number       1
_space_group_crystal_system       triclinic
_cell_length_a                    10.802746
_cell_length_b                    8.905118
_cell_length_c                    8.095178
_cell_angle_alpha                 89.944689
_cell_angle_beta                  89.955808
_cell_angle_gamma                 91.036638
_cell_volume                      778.625857349

loop_
_atom_site_label
_atom_site_type_symbol
_atom_type_description
_atom_site_fract_x
_atom_site_fract_y
_atom_site_fract_z
_atom_type_partial_charge
C1    C     C_R   0.498743 0.217883 0.500039 0.920390
C2    C     C_1   0.490593 0.934325 0.499933 -0.216121
C3    C     C_3   0.077382 0.660886 0.406787 0.853030
C4    C     C_3   0.929786 0.670292 0.429031 0.843235
C5    C     C_3   0.121644 0.509666 0.495530 -0.154658
C6    C     C_3   0.879920 0.512049 0.500028 -0.174126
C7    C     C_3   0.122644 0.930276 0.433944 -0.300210
C8    C     C_3   0.215785 0.720270 0.174844 -0.270071
C9    C     C_3   0.785222 0.849586 0.539708 -0.346041
C10   C     C_3   0.887629 0.832838 0.193415 -0.273654
C11   C     C_R   0.257266 0.502815 0.499254 0.956950
C12   C     C_R   0.743303 0.503477 0.500279 0.922805
C13   C     C_R   0.490475 0.781272 0.500006 0.937682
C14   C     C_1   0.493891 0.064931 0.500038 -0.222240
C15   C     C_3   0.073411 0.503934 0.679439 -0.135678
C16   C     C_3   0.068469 0.361709 0.412271 -0.156696
C17   C     C_3   0.932163 0.481458 0.681065 -0.164228
C18   C     C_3   0.927483 0.375177 0.391461 -0.128437
H1    H     H_    0.112146 0.401966 0.739699 0.153552
H2    H     H_    0.834604 0.660412 0.788350 0.251959
H3    H     H_    0.801371 0.348596 0.193473 0.213468
H4    H     H_    0.923787 0.471216 0.151898 0.283935
H5    H     H_    0.102616 0.940574 0.301302 0.162312
H6    H     H_    0.208885 0.996826 0.455252 0.165628
H7    H     H_    0.050412 0.984860 0.508742 0.208821
H8    H     H_    0.265581 0.637747 0.098303 0.191693
H9    H     H_    0.280684 0.760360 0.271170 0.220785
H10   H     H_    0.194106 0.815414 0.091893 0.147123
H11   H     H_    0.724046 0.801221 0.444094 0.213111
H12   H     H_    0.082701 0.268208 0.501815 0.118178
H13   H     H_    0.795223 0.972051 0.516749 0.161748
H14   H     H_    0.738322 0.837946 0.660719 0.177509
H15   H     H_    0.963880 0.826768 0.102390 0.199201
H16   H     H_    0.901650 0.929027 0.277392 0.163018
H17   H     H_    0.803093 0.857235 0.121263 0.174867
H18   H     H_    0.914611 0.359558 0.706686 0.142273
H19   H     H_    0.885005 0.269988 0.443191 0.125681
H20   H     H_    0.106930 0.603836 0.902692 0.219410
H21   H     H_    0.061330 0.726569 0.760383 0.273394
H22   H     H_    0.212484 0.260640 0.285678 0.184265
H23   H     H_    0.145075 0.400158 0.176314 0.263818
H24   H     H_    0.812649 0.493134 0.883448 0.212035
N1    N     N_1   0.500000 0.500030 0.073640 -0.059757
N2    N     N_1   0.500000 0.500030 0.926360 -0.053114
N3    N     N_3   0.116637 0.633198 0.778516 -0.380072
N4    N     N_3   0.128671 0.312202 0.258609 -0.429977
N5    N     N_3   0.877275 0.561906 0.821851 -0.432603
N6    N     N_3   0.894339 0.375276 0.214900 -0.423280
O1    O     O_R   0.500000 0.285340 0.636850 -0.617301
O2    O     O_3   0.103776 0.652672 0.233086 -0.685406
O3    O     O_3   0.904435 0.786082 0.546591 -0.680323
O4    O     O_3   0.868505 0.692713 0.273124 -0.640037
O5    O     O_R   0.500000 0.285340 0.363150 -0.628877
O6    O     O_R   0.314790 0.499970 0.636880 -0.609849
O7    O     O_R   0.314790 0.499970 0.363120 -0.648790
O8    O     O_R   0.685210 0.499970 0.636880 -0.645497
O9    O     O_R   0.685210 0.499970 0.363120 -0.595180
O10   O     O_R   0.500000 0.714650 0.636900 -0.613516
O11   O     O_R   0.500000 0.714650 0.363100 -0.637450
O12   O     O_3   0.143220 0.781768 0.489142 -0.651538
Zn1   Zn    Zn3+2 0.500000 0.499990 0.682780 0.961950
Zn2   Zn    Zn3+2 0.500000 0.499990 0.317220 0.950902

loop_
_geom_bond_atom_site_label_1
_geom_bond_atom_site_label_2
_ccdc_geom_bond_type
H4    N6    S    
H23   N4    S    
C15   C17   S    
C10   H17   S    
C13   O11   A    
C17   H18   S    
N2    Zn1   S    
C1    C14   S    
C8    H8    S    
O5    Zn2   S    
C9    O3    S    
C9    H11   S    
N1    N2    T    
H3    N6    S    
C10   O4    S    
C3    O12   S    
O10   Zn1   S    
O9    Zn2   S    
C10   H16   S    
C7    H7    S    
C15   H1    S    
C12   O8    A    
C11   O6    A    
C4    O4    S    
C7    H5    S    
C12   O9    A    
C4    C6    S    
O6    Zn1   S    
C18   H19   S    
C5    C11   S    
C10   H15   S    
H24   N5    S    
C6    C12   S    
C2    C14   T    
C6    C18   S    
C5    C15   S    
H2    N5    S    
O1    Zn1   S    
H22   N4    S    
C4    O3    S    
C16   H12   S    
C7    H6    S    
O7    Zn2   S    
C8    O2    S    
C7    O12   S    
C8    H9    S    
C11   O7    A    
N1    Zn2   S    
C8    H10   S    
C16   C18   S    
C16   N4    S    
C6    C17   S    
C2    C13   S    
C9    H13   S    
O8    Zn1   S    
H21   N3    S    
C5    C16   S    
C1    O5    A    
C13   O10   A    
O11   Zn2   S    
C9    H14   S    
C3    C5    S    
C1    O1    A    
C3    O2    S    
C3    C4    S    
C17   N5    S    
H20   N3    S    
C15   N3    S    
C18   N6    S    
