data_mof_unit_2088.cif
_audit_creation_date              2012-12-10T19:24:09-0500
_audit_creation_method            fapswitch 2.2
_symmetry_space_group_name_H-M    P1
_symmetry_Int_Tables_number       1
_space_group_crystal_system       triclinic
_cell_length_a                    10.495594
_cell_length_b                    10.494888
_cell_length_c                    9.813974
_cell_angle_alpha                 91.882971
_cell_angle_beta                  87.417852
_cell_angle_gamma                 90.157901
_cell_volume                      1079.32845244

loop_
_atom_site_label
_atom_site_type_symbol
_atom_type_description
_atom_site_fract_x
_atom_site_fract_y
_atom_site_fract_z
_atom_type_partial_charge
C1    C     C_R   0.502333 0.257777 0.497674 0.866209
C2    C     C_3   0.611621 0.522664 0.041895 0.272457
C3    C     C_R   0.257571 0.498689 0.502474 0.849218
C4    C     C_R   0.742429 0.501312 0.497526 0.849218
C5    C     C_3   0.030744 0.480985 0.629441 -0.163511
C6    C     C_3   0.969256 0.519016 0.370559 -0.163511
C7    C     C_3   0.952876 0.387927 0.541006 -0.187085
C8    C     C_3   0.047124 0.612074 0.458994 -0.187086
C9    C     C_3   0.877825 0.501687 0.494022 0.039941
C10   C     C_3   0.122174 0.498314 0.505978 0.039940
C11   C     C_3   0.953125 0.594862 0.582472 -0.162665
C12   C     C_R   0.497667 0.742223 0.502326 0.866207
C13   C     C_3   0.046874 0.405139 0.417528 -0.162664
C14   C     C_3   0.586319 0.046808 0.586281 -0.222304
C15   C     C_3   0.413681 0.953192 0.413718 -0.222305
C16   C     C_3   0.616663 0.953126 0.464060 -0.228967
C17   C     C_3   0.383337 0.046874 0.535940 -0.228968
C18   C     C_3   0.497184 0.877344 0.506310 -0.059605
C19   C     C_3   0.502816 0.122656 0.493690 -0.059606
C20   C     C_3   0.429310 0.934232 0.773560 -0.396840
C21   C     C_3   0.396576 0.052571 0.862835 -0.894722
C22   C     C_3   0.570690 0.065768 0.226440 -0.396840
C23   C     C_3   0.467021 0.969103 0.627368 0.253671
C24   C     C_3   0.603425 0.947430 0.137165 -0.894725
C25   C     C_3   0.255058 0.450850 0.909413 -0.393543
C26   C     C_3   0.162586 0.417751 0.027615 -0.951514
C27   C     C_3   0.744942 0.549151 0.090587 -0.393544
C28   C     C_3   0.837414 0.582249 0.972385 -0.951515
C29   C     C_3   0.532979 0.030897 0.372632 0.253671
C30   C     C_3   0.463581 0.390591 0.046911 -0.126073
C31   C     C_3   0.536419 0.609409 0.953089 -0.126073
C32   C     C_3   0.576057 0.413391 0.944006 -0.126078
C33   C     C_3   0.423943 0.586608 0.055994 -0.126078
C34   C     C_3   0.388379 0.477336 0.958105 0.272457
H1    H     H_    0.909972 0.296401 0.573717 0.121257
H2    H     H_    0.343500 0.911194 0.343659 0.136611
H3    H     H_    0.640629 0.341158 0.892868 0.126405
H4    H     H_    0.359371 0.658841 0.107132 0.126405
H5    H     H_    0.429825 0.299801 0.090082 0.123911
H6    H     H_    0.570175 0.700199 0.909918 0.123911
H7    H     H_    0.479955 0.117827 0.866535 0.264483
H8    H     H_    0.314669 0.103990 0.822639 0.259682
H9    H     H_    0.370093 0.023758 0.968203 0.249198
H10   H     H_    0.345727 0.869094 0.772975 0.205127
H11   H     H_    0.510455 0.884652 0.816756 0.202253
H12   H     H_    0.090028 0.703600 0.426283 0.121256
H13   H     H_    0.685335 0.896014 0.177360 0.259682
H14   H     H_    0.520050 0.882171 0.133467 0.264485
H15   H     H_    0.629907 0.976243 0.031797 0.249198
H16   H     H_    0.489544 0.115346 0.183244 0.202253
H17   H     H_    0.654272 0.130908 0.227024 0.205128
H18   H     H_    0.194433 0.330668 0.077526 0.263687
H19   H     H_    0.155821 0.497968 0.104282 0.272888
H20   H     H_    0.066481 0.399118 0.988568 0.255493
H21   H     H_    0.220773 0.537961 0.861585 0.212523
H22   H     H_    0.259103 0.369954 0.833493 0.222779
H23   H     H_    0.055158 0.463481 0.735505 0.143469
H24   H     H_    0.844180 0.502032 0.895718 0.272888
H25   H     H_    0.805567 0.669332 0.922473 0.263687
H26   H     H_    0.933519 0.600883 0.011432 0.255493
H27   H     H_    0.740896 0.630046 0.166507 0.222779
H28   H     H_    0.779227 0.462039 0.138416 0.212523
H29   H     H_    0.944841 0.536520 0.264495 0.143469
H30   H     H_    0.910659 0.672642 0.649093 0.132289
H31   H     H_    0.089340 0.327359 0.350907 0.132289
H32   H     H_    0.711396 0.910800 0.435579 0.131980
H33   H     H_    0.288604 0.089200 0.564421 0.131980
H34   H     H_    0.656500 0.088806 0.656341 0.136610
N1    N     N_3   0.499910 0.500030 0.863290 -0.105277
N2    N     N_3   0.500090 0.499970 0.136710 -0.105277
O1    O     O_R   0.500010 0.313960 0.616610 -0.615216
O2    O     O_R   0.499990 0.686040 0.383390 -0.615216
O3    O     O_R   0.500060 0.313950 0.383350 -0.633979
O4    O     O_R   0.499940 0.686050 0.616650 -0.633980
O5    O     O_R   0.313930 0.499970 0.616610 -0.644017
O6    O     O_R   0.686070 0.500030 0.383390 -0.644017
O7    O     O_R   0.313980 0.499960 0.383350 -0.612239
O8    O     O_R   0.686020 0.500040 0.616650 -0.612240
Zn1   Zn    Zn3+2 0.499970 0.500010 0.655740 0.918108
Zn2   Zn    Zn3+2 0.500030 0.499990 0.344260 0.918108

loop_
_geom_bond_atom_site_label_1
_geom_bond_atom_site_label_2
_ccdc_geom_bond_type
C6    H29   S    
C15   C18   S    
C22   C29   S    
C12   O4    A    
C25   H22   S    
C6    C9    S    
O1    Zn1   S    
C13   H31   S    
C17   C23   S    
C5    C11   S    
O7    Zn2   S    
C31   H6    S    
C2    C32   S    
C27   H27   S    
C20   H10   S    
C21   H9    S    
C31   C33   S    
C2    C27   S    
C3    O5    A    
C20   H11   S    
C25   C34   S    
C22   H16   S    
C12   O2    A    
C26   H20   S    
C30   N2    S    
C15   C29   S    
C28   H26   S    
C1    C19   S    
C17   H33   S    
C30   C34   S    
N2    Zn2   S    
C18   C23   S    
C24   H14   S    
O6    Zn2   S    
C11   H30   S    
C5    C7    S    
O8    Zn1   S    
C6    C8    S    
C16   C29   S    
C2    C31   S    
C14   C23   S    
C4    O8    A    
C27   H28   S    
C26   H18   S    
C20   C23   S    
C7    C13   S    
C33   C34   S    
C1    O1    A    
C32   H3    S    
C9    C11   S    
C34   N1    S    
C33   N2    S    
C21   H7    S    
C16   C18   S    
O4    Zn1   S    
C14   C16   S    
N1    Zn1   S    
C16   H32   S    
C19   C29   S    
C26   H19   S    
C15   H2    S    
C28   H25   S    
C24   H15   S    
C15   C17   S    
C24   H13   S    
C7    H1    S    
C14   C19   S    
C25   H21   S    
C10   C13   S    
C32   N1    S    
C28   H24   S    
C33   H4    S    
C5    H23   S    
C1    O3    A    
C25   C26   S    
C5    C10   S    
O2    Zn2   S    
C3    C10   S    
C6    C13   S    
C30   C32   S    
C8    C11   S    
C17   C19   S    
O3    Zn2   S    
C30   H5    S    
C22   C24   S    
C8    H12   S    
C4    O6    A    
C21   H8    S    
C7    C9    S    
C31   N1    S    
C20   C21   S    
C8    C10   S    
C12   C18   S    
C27   C28   S    
C14   H34   S    
C4    C9    S    
C2    N2    S    
O5    Zn1   S    
C22   H17   S    
C3    O7    A    
