data_mof_unit_100.cif
_audit_creation_date              2012-12-11T14:39:36-0500
_audit_creation_method            fapswitch 2.2
_symmetry_space_group_name_H-M    P1
_symmetry_Int_Tables_number       1
_space_group_crystal_system       triclinic
_cell_length_a                    7.218962
_cell_length_b                    14.038989
_cell_length_c                    16.362059
_cell_angle_alpha                 90.0
_cell_angle_beta                  97.305287
_cell_angle_gamma                 89.999923
_cell_volume                      1644.78397202

loop_
_atom_site_label
_atom_site_type_symbol
_atom_type_description
_atom_site_fract_x
_atom_site_fract_y
_atom_site_fract_z
_atom_type_partial_charge
O1    O     O_R   0.525340 0.338340 0.164530 -0.531035
O2    O     O_R   0.474660 0.661660 0.835470 -0.531035
O3    O     O_R   0.974660 0.838340 0.835470 -0.531046
O4    O     O_R   0.025340 0.161660 0.164530 -0.531046
O5    O     O_R   0.253520 0.352000 0.336710 -0.546114
O6    O     O_R   0.746480 0.648000 0.663290 -0.546114
O7    O     O_R   0.246480 0.852000 0.663290 -0.546106
O8    O     O_R   0.753520 0.148000 0.336710 -0.546107
O9    O     O_R   0.083330 0.168380 0.337300 -0.527931
O10   O     O_R   0.916670 0.831620 0.662700 -0.527931
O11   O     O_R   0.416670 0.668380 0.662700 -0.527918
O12   O     O_R   0.583330 0.331620 0.337300 -0.527918
C1    C     C_R   0.432265 0.369699 0.362942 0.811028
C2    C     C_R   0.567735 0.630301 0.637058 0.811028
C3    C     C_R   0.067736 0.869699 0.637058 0.811036
C4    C     C_R   0.932264 0.130301 0.362942 0.811036
O13   O     O_R   0.195840 0.349670 0.165140 -0.550242
O14   O     O_R   0.804160 0.650330 0.834860 -0.550242
O15   O     O_R   0.304160 0.849670 0.834860 -0.550236
O16   O     O_R   0.695840 0.150330 0.165140 -0.550236
C5    C     C_R   0.357058 0.371641 0.137414 0.825824
C6    C     C_R   0.642942 0.628359 0.862586 0.825824
C7    C     C_R   0.142942 0.871640 0.862586 0.825837
C8    C     C_R   0.857058 0.128359 0.137414 0.825837
O17   O     O_3   0.387830 0.193120 0.250910 -0.381700
O18   O     O_3   0.612170 0.806880 0.749090 -0.381700
O19   O     O_3   0.112170 0.693120 0.749090 -0.381693
O20   O     O_3   0.887830 0.306880 0.250910 -0.381693
V1    V     V_3+5 0.113010 0.264540 0.250910 1.475725
V2    V     V_3+5 0.886990 0.735460 0.749090 1.475725
V3    V     V_3+5 0.386990 0.764540 0.749090 1.475748
V4    V     V_3+5 0.613010 0.235460 0.250910 1.475748
H1    H     H_    0.098660 0.809983 0.266555 0.150685
H2    H     H_    0.901340 0.190017 0.733445 0.150685
H3    H     H_    0.401209 0.310002 0.733437 0.150685
H4    H     H_    0.598791 0.689998 0.266563 0.150685
C9    C     C_R   0.898664 0.191695 0.526556 -0.158072
C10   C     C_R   0.101336 0.808305 0.473444 -0.158073
C11   C     C_R   0.601362 0.691689 0.473446 -0.158068
C12   C     C_R   0.398638 0.308310 0.526554 -0.158068
C13   C     C_R   0.881361 0.224639 0.605325 -0.197988
C14   C     C_R   0.118639 0.775361 0.394675 -0.197987
C15   C     C_R   0.618704 0.724628 0.394680 -0.197981
C16   C     C_R   0.381296 0.275372 0.605320 -0.197981
C17   C     C_R   0.914210 0.163662 0.672234 -0.172537
C18   C     C_R   0.085790 0.836338 0.327766 -0.172537
C19   C     C_R   0.585883 0.663649 0.327771 -0.172529
C20   C     C_R   0.414117 0.336351 0.672229 -0.172529
C21   C     C_R   0.964512 0.069080 0.661199 0.580332
C22   C     C_R   0.035488 0.930920 0.338801 0.580332
C23   C     C_R   0.535555 0.569070 0.338804 0.580332
C24   C     C_R   0.464444 0.430930 0.661196 0.580332
C25   C     C_R   0.981908 0.032963 0.581172 -0.042902
C26   C     C_R   0.018092 0.967037 0.418828 -0.042902
C27   C     C_R   0.518119 0.532958 0.418830 -0.042905
C28   C     C_R   0.481881 0.467042 0.581170 -0.042905
C29   C     C_R   0.948580 0.095852 0.512779 -0.020596
C30   C     C_R   0.051420 0.904148 0.487221 -0.020596
C31   C     C_R   0.551435 0.595849 0.487223 -0.020590
C32   C     C_R   0.448565 0.404151 0.512777 -0.020590
C33   C     C_R   0.033068 0.937016 0.567777 -0.143610
C34   C     C_R   0.966932 0.062984 0.432223 -0.143610
C35   C     C_R   0.466936 0.437016 0.432223 -0.143615
C36   C     C_R   0.533064 0.562984 0.567777 -0.143615
H5    H     H_    0.872975 0.242623 0.476785 0.119489
H6    H     H_    0.127025 0.757377 0.523215 0.119489
H7    H     H_    0.627033 0.742620 0.523216 0.119487
H8    H     H_    0.372967 0.257380 0.476784 0.119487
H9    H     H_    0.842967 0.298065 0.614510 0.156772
H10   H     H_    0.157033 0.701935 0.385490 0.156772
H11   H     H_    0.657114 0.798052 0.385495 0.156775
H12   H     H_    0.342886 0.201948 0.614505 0.156775
H13   H     H_    0.138212 0.066065 0.056701 0.153801
H14   H     H_    0.861788 0.933935 0.943299 0.153800
H15   H     H_    0.361787 0.566063 0.943298 0.153804
H16   H     H_    0.638213 0.433937 0.056702 0.153804
C37   C     C_2   0.150092 0.941669 0.930876 -0.285757
C38   C     C_2   0.849908 0.058331 0.069123 -0.285756
C39   C     C_2   0.349908 0.441669 0.069123 -0.285773
C40   C     C_2   0.650092 0.558331 0.930877 -0.285774
C41   C     C_2   0.996140 0.965597 0.965541 -0.111345
C42   C     C_2   0.003859 0.034403 0.034459 -0.111345
C43   C     C_2   0.503860 0.465597 0.034460 -0.111337
C44   C     C_2   0.496140 0.534403 0.965540 -0.111337
H17   H     H_    0.715987 0.026667 0.046143 0.115815
H18   H     H_    0.284013 0.973333 0.953857 0.115815
H19   H     H_    0.784013 0.526667 0.953858 0.115814
H20   H     H_    0.215987 0.473333 0.046142 0.115814
F1    F     F_    0.996880 0.014650 0.729916 -0.719685
F2    F     F_    0.003120 0.985350 0.270084 -0.719685
F3    F     F_    0.503209 0.514638 0.270089 -0.719677
F4    F     F_    0.496791 0.485362 0.729911 -0.719677

loop_
_geom_bond_atom_site_label_1
_geom_bond_atom_site_label_2
_ccdc_geom_bond_type
O1    C5    A    
C12   C32   A    
C27   C31   A    
O13   V1    S    
O3    C7    A    
C40   C44   D    
O15   V3    S    
C41   C42   S    
C29   C34   A    
C31   C36   A    
C22   C26   A    
C32   C35   A    
O20   V1    S    
O9    C4    A    
C10   C14   A    
C40   H19   S    
O10   C3    A    
C26   C30   A    
O4    C8    A    
O11   C2    A    
H15   C44   S    
C14   H10   S    
H4    C19   S    
C14   C18   A    
O10   V2    S    
C23   F3    S    
C10   C30   A    
C25   C33   A    
C22   F2    S    
O16   C8    A    
C27   C35   A    
O2    C6    A    
C28   C36   A    
O14   V2    S    
C37   C41   D    
O5    C1    A    
O4    V1    S    
O9    V1    S    
C30   C33   A    
O7    C3    A    
O11   V3    S    
O18   V3    S    
O8    C4    A    
O12   V4    S    
O19   V2    S    
H1    C18   S    
C4    C34   S    
H3    C20   S    
H16   C43   S    
C39   H20   S    
O5    V1    S    
O7    V3    S    
O8    V4    S    
C10   H6    S    
C25   C29   A    
C19   C23   A    
C26   C34   A    
O1    V4    S    
O13   C5    A    
C28   C32   A    
C9    H5    S    
O2    V3    S    
O3    V2    S    
O15   C7    A    
O6    C2    A    
C38   C42   D    
C43   C44   S    
C1    C35   S    
C17   C21   A    
C11   C31   A    
C5    C39   S    
C3    C33   S    
H2    C17   S    
C7    C37   S    
C2    C36   S    
C38   H17   S    
C8    C38   S    
O6    V2    S    
C37   H18   S    
C24   F4    S    
H14   C41   S    
H13   C42   S    
C13   H9    S    
O16   V4    S    
C15   H11   S    
O14   C6    A    
C11   H7    S    
C21   F1    S    
C11   C15   A    
C18   C22   A    
C6    C40   S    
C39   C43   D    
O17   V4    S    
C21   C25   A    
C16   H12   S    
C23   C27   A    
C9    C13   A    
C16   C20   A    
C12   C16   A    
O12   C1    A    
C12   H8    S    
C13   C17   A    
C20   C24   A    
C15   C19   A    
C9    C29   A    
C24   C28   A    
