data_mof_unit_4060.cif
_audit_creation_date              2012-12-10T17:23:41-0500
_audit_creation_method            fapswitch 2.2
_symmetry_space_group_name_H-M    P1
_symmetry_Int_Tables_number       1
_space_group_crystal_system       triclinic
_cell_length_a                    9.602614
_cell_length_b                    10.852071
_cell_length_c                    17.200343
_cell_angle_alpha                 93.509485
_cell_angle_beta                  84.709169
_cell_angle_gamma                 89.705864
_cell_volume                      1781.32917539

loop_
_atom_site_label
_atom_site_type_symbol
_atom_type_description
_atom_site_fract_x
_atom_site_fract_y
_atom_site_fract_z
_atom_type_partial_charge
C1    C     C_R   0.499717 0.737024 0.494575 0.869711
C2    C     C_R   0.361998 0.439084 0.775672 -0.185605
C3    C     C_R   0.441550 0.400977 0.146185 0.679711
C4    C     C_R   0.432451 0.420196 0.226927 -0.307180
C5    C     C_R   0.646697 0.540452 0.217467 0.445618
C6    C     C_R   0.655951 0.517993 0.136130 -0.290399
C7    C     C_R   0.553434 0.449811 0.100637 -0.177942
C8    C     C_2   0.455641 0.499327 0.982472 -0.100050
C9    C     C_2   0.556747 0.440333 0.015358 0.433741
C10   C     C_R   0.533924 0.489159 0.263730 -0.238420
C11   C     C_R   0.243023 0.883072 0.465320 -0.086889
C12   C     C_R   0.480397 0.501064 0.650023 0.880617
C13   C     C_R   0.114780 0.944295 0.481549 -0.111681
C14   C     C_R   0.108830 0.060129 0.520700 -0.108390
C15   C     C_R   0.232271 0.119648 0.536466 -0.129008
C16   C     C_R   0.364580 0.063908 0.512386 0.079041
C17   C     C_R   0.368103 0.937471 0.488426 0.102179
C18   C     C_R   0.496174 0.871221 0.489405 -0.088375
C19   C     C_R   0.620945 0.935686 0.495949 -0.184506
C20   C     C_R   0.620096 0.063130 0.502734 -0.185587
C21   C     C_R   0.493333 0.128844 0.510457 -0.094394
C22   C     C_R   0.873568 0.335121 0.395449 -0.082123
C23   C     C_R   0.498376 0.262979 0.505324 0.762591
C24   C     C_R   0.954121 0.252899 0.344849 -0.173955
C25   C     C_R   0.097665 0.252026 0.345040 -0.169326
C26   C     C_R   0.161556 0.333792 0.395540 -0.124043
C27   C     C_R   0.083739 0.419491 0.447988 0.133250
C28   C     C_R   0.934201 0.419350 0.448286 0.215981
C29   C     C_R   0.914657 0.575566 0.549382 -0.102173
C30   C     C_R   0.061388 0.574575 0.552368 0.446759
C31   C     C_R   0.520034 0.500252 0.349663 0.865784
C32   C     C_R   0.467692 0.504749 0.735160 -0.204901
C33   C     C_R   0.563228 0.573308 0.776170 -0.221564
C34   C     C_R   0.555051 0.574768 0.857174 0.690551
C35   C     C_R   0.453551 0.504574 0.897832 -0.118104
C36   C     C_R   0.353498 0.438773 0.857271 0.404471
Cu1   Cu    Cu3+1 0.359340 0.500010 0.500010 0.996843
Cu2   Cu    Cu3+1 0.640660 0.499990 0.499990 0.985554
H1    H     H_    0.643777 0.626248 0.745408 0.201919
H2    H     H_    0.740362 0.557281 0.099721 0.238167
H3    H     H_    0.720316 0.887687 0.495184 0.161480
H4    H     H_    0.242328 0.795055 0.432544 0.162122
H5    H     H_    0.019675 0.900465 0.465396 0.132652
H6    H     H_    0.008747 0.105318 0.537190 0.144906
H7    H     H_    0.221545 0.207609 0.569447 0.176013
H8    H     H_    0.719399 0.110130 0.502585 0.163468
H9    H     H_    0.847473 0.633609 0.590372 0.193874
H10   H     H_    0.764375 0.328960 0.390612 0.186452
H11   H     H_    0.904518 0.189287 0.305261 0.173436
H12   H     H_    0.345846 0.379777 0.260709 0.187012
H13   H     H_    0.160348 0.187390 0.305788 0.178337
H14   H     H_    0.272068 0.324732 0.391349 0.191624
H15   H     H_    0.289149 0.385485 0.743380 0.209901
H16   H     H_    0.372261 0.547889 0.019324 0.184708
N1    N     N_R   0.852190 0.498790 0.499250 -0.232735
N2    N     N_R   0.148060 0.498710 0.499220 -0.266142
O1    O     O_R   0.381190 0.680360 0.500010 -0.545802
O2    O     O_R   0.618760 0.680340 0.500000 -0.581004
O3    O     O_R   0.367440 0.500030 0.613600 -0.513349
O4    O     O_R   0.605010 0.500010 0.613590 -0.581767
O5    O     O_R   0.381240 0.319660 0.500000 -0.627737
O6    O     O_R   0.618810 0.319640 0.499990 -0.608334
O7    O     O_R   0.394990 0.499990 0.386410 -0.611440
O8    O     O_R   0.632560 0.499970 0.386400 -0.542753
S1    S     S_3+6 0.112472 0.654872 0.639236 0.047203
O9    O     O_2   0.002203 0.749726 0.668633 -0.281284
O10   O     O_2   0.117490 0.562046 0.700239 -0.264112
O11   O     O_3   0.264716 0.729805 0.631574 -0.511686
H17   H     H_    0.281913 0.756404 0.685953 0.373868
S2    S     S_3+6 0.771682 0.639815 0.257181 0.030666
O12   O     O_2   0.879103 0.563711 0.291462 -0.288616
O13   O     O_2   0.843652 0.713597 0.194351 -0.239084
O14   O     O_3   0.692358 0.737478 0.327351 -0.549502
H18   H     H_    0.769536 0.782370 0.350610 0.363911
S3    S     S_3+6 0.693934 0.353612 0.960977 0.106673
O15   O     O_2   0.639314 0.282287 0.892732 -0.209669
O16   O     O_2   0.806453 0.438952 0.930909 -0.197674
O17   O     O_3   0.762604 0.253823 0.018485 -0.447121
H19   H     H_    0.820623 0.304780 0.052447 0.344671
S4    S     S_3+6 0.221957 0.351584 0.906911 0.108098
O18   O     O_2   0.121860 0.300114 0.851305 -0.210758
O19   O     O_2   0.289979 0.247159 0.943372 -0.188436
O20   O     O_3   0.133532 0.442544 0.977606 -0.473089
H20   H     H_    0.074144 0.385572 0.008683 0.398295
F1    F     F_    0.341048 0.334899 0.112368 -0.610541
F2    F     F_    0.646789 0.644060 0.896112 -0.584610

loop_
_geom_bond_atom_site_label_1
_geom_bond_atom_site_label_2
_ccdc_geom_bond_type
C22   H10   S    
C16   C21   A    
C3    F1    S    
O14   H18   S    
C19   C20   A    
C26   C27   A    
C33   H1    S    
C29   H9    S    
Cu1   Cu2   S    
C34   C35   A    
C26   H14   S    
C5    C6    A    
C15   C16   A    
C11   H4    S    
C2    C32   A    
C18   C19   A    
C34   F2    S    
Cu2   O2    S    
C12   O3    A    
C10   C31   S    
C23   O6    A    
Cu2   N1    S    
C35   C36   A    
O11   H17   S    
S1    O10   D    
S2    O12   D    
C22   C28   A    
C13   C14   A    
C12   C32   S    
Cu1   N2    S    
S4    O20   S    
Cu1   O7    S    
C28   N1    A    
C33   C34   A    
Cu2   O8    S    
C31   O7    A    
C24   C25   A    
S4    O19   D    
C36   S4    S    
C8    H16   S    
C27   N2    A    
C8    C9    D    
C29   N1    A    
C25   C26   A    
C30   N2    A    
C2    H15   S    
C4    H12   S    
C8    C35   S    
S3    O15   D    
C25   H13   S    
C29   C30   A    
C1    O1    A    
O20   H20   S    
S1    O11   S    
S2    O14   S    
C17   C18   A    
C1    C18   S    
S3    O16   D    
Cu1   O3    S    
Cu2   O4    S    
C21   C23   S    
C22   C24   A    
C15   H7    S    
C4    C10   A    
C3    C4    A    
C13   H5    S    
C14   H6    S    
C2    C36   A    
C24   H11   S    
C7    C9    S    
C11   C17   A    
O17   H19   S    
C31   O8    A    
S4    O18   D    
C5    S2    S    
Cu1   O5    S    
C6    C7    A    
C3    C7    A    
C32   C33   A    
C5    C10   A    
C1    O2    A    
C11   C13   A    
C16   C17   A    
C6    H2    S    
S3    O17   S    
C20   H8    S    
C30   S1    S    
C12   O4    A    
C23   O5    A    
C20   C21   A    
S1    O9    D    
C27   C28   A    
C14   C15   A    
S2    O13   D    
C9    S3    S    
Cu1   O1    S    
C19   H3    S    
Cu2   O6    S    
