data_mof_unit_649.cif
_audit_creation_date              2013-03-05T16:02:45-0500
_audit_creation_method            fapswitch 2.2
_symmetry_space_group_name_H-M    P1
_symmetry_Int_Tables_number       1
_space_group_crystal_system       triclinic
_cell_length_a                    23.538888
_cell_length_b                    11.701131
_cell_length_c                    10.457555
_cell_angle_alpha                 90.036584
_cell_angle_beta                  90.000185
_cell_angle_gamma                 89.999489
_cell_volume                      2880.34064481

loop_
_atom_site_label
_atom_site_type_symbol
_atom_site_description
_atom_site_fract_x
_atom_site_fract_y
_atom_site_fract_z
_atom_type_partial_charge
O1    O     O_R   0.500000 0.337200 0.605810 -0.566601
O2    O     O_R   0.500000 0.662800 0.394190 -0.566601
O3    O     O_R   0.500000 0.662800 0.605810 -0.566017
O4    O     O_R   0.500000 0.337200 0.394190 -0.566017
C1    C     C_R   0.500000 0.283324 0.499968 0.834126
C2    C     C_R   0.500000 0.716676 0.500032 0.834127
O5    O     O_R   0.417880 0.500000 0.605840 -0.577437
O6    O     O_R   0.582120 0.500000 0.394160 -0.577623
O7    O     O_R   0.582120 0.500000 0.605840 -0.577623
O8    O     O_R   0.417880 0.500000 0.394160 -0.577438
C3    C     C_R   0.390543 0.500000 0.500000 0.800144
C4    C     C_R   0.609467 0.499999 0.500000 0.800236
Cu1   Cu    Cu3+1 0.500000 0.500000 0.625300 0.987252
Cu2   Cu    Cu3+1 0.500000 0.500000 0.374700 0.987252
C5    C     C_R   0.880010 0.601914 0.502732 0.570576
C6    C     C_R   0.119974 0.398093 0.503468 0.570484
C7    C     C_R   0.880013 0.398063 0.497269 0.570572
C8    C     C_R   0.119971 0.601902 0.496525 0.570490
N1    N     N_R   0.851919 0.499988 0.500001 -0.483811
N2    N     N_R   0.148082 0.499998 0.499997 -0.483451
C9    C     C_R   0.939906 0.395178 0.495975 -0.125206
C10   C     C_R   0.060077 0.604780 0.495299 -0.125028
C11   C     C_R   0.939903 0.604804 0.504018 -0.125169
C12   C     C_R   0.060080 0.395211 0.504692 -0.125032
C13   C     C_R   0.969949 0.499992 0.499996 -0.151958
C14   C     C_R   0.030034 0.499994 0.499995 -0.151869
C15   C     C_R   0.970263 0.290895 0.491541 0.347574
C16   C     C_R   0.029719 0.709050 0.490403 0.347496
C17   C     C_R   0.970257 0.709090 0.508444 0.347548
C18   C     C_R   0.029724 0.290939 0.509584 0.347504
O9    O     O_2   0.849662 0.699712 0.502543 -0.495896
O10   O     O_2   0.150307 0.300277 0.503768 -0.496107
O11   O     O_2   0.849667 0.300263 0.497466 -0.495880
O12   O     O_2   0.150302 0.699720 0.496225 -0.496107
C19   C     C_R   0.238616 0.512945 0.385016 -0.112149
C20   C     C_R   0.761429 0.502279 0.615938 -0.113086
C21   C     C_R   0.238616 0.487055 0.614981 -0.112154
C22   C     C_R   0.761429 0.497697 0.384065 -0.113091
H1    H     H_    0.215705 0.522990 0.295932 0.128503
H2    H     H_    0.784353 0.504032 0.705750 0.128362
H3    H     H_    0.215705 0.477009 0.704065 0.128502
H4    H     H_    0.784352 0.495943 0.294253 0.128362
C23   C     C_R   0.297855 0.512623 0.384816 -0.206567
C24   C     C_R   0.702189 0.502176 0.616101 -0.206198
C25   C     C_R   0.297855 0.487378 0.615182 -0.206566
C26   C     C_R   0.702189 0.497810 0.383901 -0.206196
H5    H     H_    0.319992 0.522715 0.294748 0.160490
H6    H     H_    0.680074 0.503886 0.706943 0.160714
H7    H     H_    0.319992 0.477285 0.705251 0.160490
H8    H     H_    0.680073 0.496103 0.293059 0.160714
C27   C     C_R   0.328008 0.500000 0.499999 -0.042338
C28   C     C_R   0.672020 0.499995 0.500001 -0.042609
C29   C     C_R   0.208930 0.500000 0.499999 0.351438
C30   C     C_R   0.791093 0.499986 0.500001 0.352399
C31   C     C_1   0.499999 0.161985 0.499921 -0.171910
C32   C     C_1   0.499999 0.838015 0.500079 -0.171910
C33   C     C_1   0.499999 0.059717 0.499960 0.013993
C34   C     C_1   0.499999 0.940283 0.500040 0.013993
N3    N     N_1   0.500000 0.500000 0.186410 -0.141854
N4    N     N_1   0.500000 0.500000 0.813590 -0.141854
C35   C     C_1   0.500000 0.500000 0.072031 0.084797
C36   C     C_1   0.500000 0.500000 0.927969 0.084797
O13   O     O_3   0.941389 0.187817 0.481032 -0.576816
C37   C     C_3   0.953523 0.134269 0.362461 0.086503
H9    H     H_    0.949366 0.040637 0.376880 0.175774
H10   H     H_    0.997581 0.149357 0.327318 0.143946
C38   C     C_3   0.910817 0.171041 0.260033 -0.312207
H11   H     H_    0.867018 0.151296 0.292959 0.264515
H12   H     H_    0.914210 0.264680 0.244061 0.207921
C39   C     C_3   0.921818 0.109071 0.133898 -0.944363
H13   H     H_    0.965099 0.129055 0.097996 0.255098
H14   H     H_    0.890302 0.137112 0.061428 0.267936
H15   H     H_    0.917809 0.015202 0.146998 0.268570
O14   O     O_3   0.058599 0.812087 0.479622 -0.576399
C40   C     C_3   0.046490 0.865239 0.360897 0.087375
H16   H     H_    0.050758 0.958905 0.375013 0.175504
H17   H     H_    0.002403 0.850221 0.325889 0.143872
C41   C     C_3   0.089123 0.827888 0.258523 -0.313173
H18   H     H_    0.132952 0.847584 0.291302 0.264297
H19   H     H_    0.085633 0.734202 0.242880 0.207618
C42   C     C_3   0.078140 0.889406 0.132196 -0.944533
H20   H     H_    0.034831 0.869442 0.096424 0.255140
H21   H     H_    0.109611 0.860968 0.059781 0.267883
H22   H     H_    0.082240 0.983311 0.144973 0.268671
O15   O     O_3   0.941380 0.812166 0.518937 -0.576826
C43   C     C_3   0.953519 0.865743 0.637489 0.086507
H23   H     H_    0.949423 0.959376 0.623007 0.175752
H24   H     H_    0.997557 0.850559 0.672711 0.143903
C44   C     C_3   0.910763 0.829125 0.739875 -0.312046
H25   H     H_    0.866985 0.848965 0.706870 0.264514
H26   H     H_    0.914094 0.735484 0.755903 0.207960
C45   C     C_3   0.921766 0.891127 0.865991 -0.944351
H27   H     H_    0.965024 0.871042 0.901979 0.255084
H28   H     H_    0.890206 0.863206 0.938423 0.267940
H29   H     H_    0.917823 0.985006 0.852828 0.268560
O16   O     O_3   0.058607 0.187903 0.520370 -0.576401
C46   C     C_3   0.046500 0.134758 0.639099 0.087381
H30   H     H_    0.050765 0.041089 0.624987 0.175498
H31   H     H_    0.002413 0.149784 0.674112 0.143847
C47   C     C_3   0.089137 0.172109 0.741467 -0.313119
H32   H     H_    0.132967 0.152395 0.708686 0.264276
H33   H     H_    0.085653 0.265801 0.757099 0.207608
C48   C     C_3   0.078152 0.110605 0.867805 -0.944449
H34   H     H_    0.034842 0.130590 0.903578 0.255125
H35   H     H_    0.109628 0.139042 0.940214 0.267872
H36   H     H_    0.082245 0.016691 0.855037 0.268654

loop_
_geom_bond_atom_site_label_1
_geom_bond_atom_site_label_2
_geom_bond_distance
_ccdc_geom_bond_type
C19   C29   1.399039 A    
C19   H1    1.082897 S    
O3    C2    1.273555 A    
C16   O14   1.388750 S    
C46   C47   1.530923 S    
C46   H30   1.110380 S    
Cu1   N4    1.969054 S    
O15   C43   1.417985 S    
C5    N1    1.363983 A    
Cu2   N3    1.969053 S    
O1    C1    1.273438 A    
C11   C17   1.414797 A    
C16   C17   1.412319 A    
C12   C14   1.416307 A    
C22   H4    1.083369 S    
C43   H24   1.114385 S    
C25   C27   1.405959 A    
C26   C28   1.406768 A    
N4    C36   1.196125 T    
O7    Cu1   1.943697 S    
C45   H27   1.110758 S    
C18   O16   1.388751 S    
C46   H31   1.114371 S    
C39   H13   1.110708 S    
C44   H26   1.111325 S    
C19   C23   1.394434 A    
C17   O15   1.388739 S    
O3    Cu1   1.915946 S    
C6    N2    1.364174 A    
C21   C29   1.399039 A    
C24   C28   1.406772 A    
C5    C11   1.410284 A    
C9    C15   1.414799 A    
C6    C12   1.410302 A    
C10   C16   1.414891 A    
Cu1   Cu2   2.620663 S    
C15   C18   1.412313 A    
C21   H3    1.082896 S    
O2    C2    1.273438 A    
C7    O11   1.349015 S    
C47   H33   1.111353 S    
C4    C28   1.472433 S    
C42   H20   1.110723 S    
N3    C35   1.196125 T    
O14   C40   1.417935 S    
C38   H11   1.111284 S    
C37   C38   1.530879 S    
C20   H2    1.083370 S    
C20   C30   1.399352 A    
O8    Cu2   1.943699 S    
C43   H23   1.110326 S    
N2    C29   1.432306 S    
C13   C14   1.414339 A    
C45   H29   1.111045 S    
C7    C9    1.410285 A    
C38   H12   1.111317 S    
C37   H10   1.114382 S    
O5    C3    1.280293 A    
C40   H16   1.110352 S    
C40   H17   1.114345 S    
C22   C30   1.399354 A    
C25   H7    1.082953 S    
O6    C4    1.280409 A    
O16   C46   1.417936 S    
C39   H15   1.110997 S    
C45   H28   1.110272 S    
C41   H19   1.111304 S    
C48   H35   1.110285 S    
C44   C45   1.526959 S    
C8    O12   1.349011 S    
C15   O13   1.388741 S    
N1    C30   1.431781 S    
O8    C3    1.280293 A    
C31   C33   1.196655 T    
C20   C24   1.394443 A    
O1    Cu1   1.915687 S    
C21   C25   1.394434 A    
C42   H22   1.111003 S    
C9    C13   1.416330 A    
O6    Cu2   1.943696 S    
C8    C10   1.410308 A    
C1    C31   1.419797 S    
C2    C32   1.419797 S    
O4    C1    1.273555 A    
C43   C44   1.530847 S    
C42   H21   1.110247 S    
C5    O9    1.349015 S    
C6    O10   1.349011 S    
C26   H8    1.083434 S    
C38   C39   1.526945 S    
C37   H9    1.110343 S    
C41   H18   1.111272 S    
C41   C42   1.526905 S    
C23   C27   1.405957 A    
C33   C34   1.397510 S    
C47   H32   1.111318 S    
C7    N1    1.363981 A    
C32   C34   1.196655 T    
C48   H36   1.111079 S    
C8    N2    1.364175 A    
C47   C48   1.526938 S    
O4    Cu2   1.915946 S    
C35   C36   1.506535 S    
O2    Cu2   1.915687 S    
C40   C41   1.530891 S    
C12   C18   1.414892 A    
C22   C26   1.394443 A    
C3    C27   1.471986 S    
O7    C4    1.280409 A    
O13   C37   1.417985 S    
O5    Cu1   1.943698 S    
C11   C13   1.416329 A    
C10   C14   1.416307 A    
C48   H34   1.110794 S    
C39   H14   1.110258 S    
C44   H25   1.111298 S    
C23   H5    1.082955 S    
C24   H6    1.083432 S    
