data_mof_unit_4889.cif
_audit_creation_date              2013-03-05T16:15:20-0500
_audit_creation_method            fapswitch 2.2
_symmetry_space_group_name_H-M    P1
_symmetry_Int_Tables_number       1
_space_group_crystal_system       triclinic
_cell_length_a                    27.802612
_cell_length_b                    10.616016
_cell_length_c                    9.403079
_cell_angle_alpha                 89.564883
_cell_angle_beta                  90.062067
_cell_angle_gamma                 90.034655
_cell_volume                      2775.26457787

loop_
_atom_site_label
_atom_site_type_symbol
_atom_site_description
_atom_site_fract_x
_atom_site_fract_y
_atom_site_fract_z
_atom_type_partial_charge
O1    O     O_R   0.500020 0.316850 0.620870 -0.589049
O2    O     O_R   0.499980 0.683150 0.379130 -0.588863
O3    O     O_R   0.500000 0.316860 0.379090 -0.581862
O4    O     O_R   0.500000 0.683140 0.620910 -0.581920
C1    C     C_R   0.500033 0.259359 0.500506 0.785990
C2    C     C_R   0.500009 0.740645 0.499492 0.786574
O5    O     O_R   0.430270 0.500020 0.620880 -0.584446
O6    O     O_R   0.569730 0.499980 0.379120 -0.585719
O7    O     O_R   0.430250 0.500030 0.379090 -0.586104
O8    O     O_R   0.569750 0.499970 0.620910 -0.586048
C3    C     C_R   0.407522 0.500013 0.499928 0.821006
C4    C     C_R   0.592484 0.499863 0.500152 0.819667
Cu1   Cu    Cu3+1 0.500010 0.499990 0.643150 0.932016
Cu2   Cu    Cu3+1 0.499990 0.500010 0.356850 0.931542
C5    C     C_R   0.178016 0.387502 0.487257 0.598270
C6    C     C_R   0.821684 0.608804 0.507588 0.569439
O9    O     O_2   0.202922 0.279232 0.472986 -0.514545
O10   O     O_2   0.796696 0.717725 0.510624 -0.531788
N1    N     N_R   0.202060 0.499055 0.502336 -0.453692
N2    N     N_R   0.797716 0.496451 0.504612 -0.447931
C7    C     C_R   0.177858 0.609924 0.520395 0.500189
C8    C     C_R   0.821791 0.384311 0.501791 0.555118
C9    C     C_R   0.278632 0.475678 0.372987 0.511379
C10   C     C_R   0.720925 0.475722 0.631633 0.501046
C11   C     C_R   0.329106 0.473511 0.374549 -0.317713
C12   C     C_R   0.670414 0.480552 0.629639 -0.326268
C13   C     C_R   0.329190 0.526965 0.624854 -0.226393
C14   C     C_R   0.671338 0.515528 0.374472 -0.233365
C15   C     C_R   0.279116 0.526484 0.624849 -0.179659
C16   C     C_R   0.721427 0.515446 0.376585 -0.191743
C17   C     C_R   0.253676 0.499949 0.499965 0.278866
C18   C     C_R   0.746211 0.496246 0.504464 0.304293
C19   C     C_R   0.101808 0.498155 0.504447 -0.046375
C20   C     C_R   0.897872 0.496933 0.504968 -0.043449
C21   C     C_R   0.127530 0.385033 0.487590 -0.041240
C22   C     C_R   0.872163 0.611176 0.508108 -0.028314
C23   C     C_R   0.102468 0.272169 0.470854 -0.145399
C24   C     C_R   0.897224 0.725051 0.510941 -0.145412
C25   C     C_R   0.127385 0.611598 0.521257 -0.017600
C26   C     C_R   0.872278 0.382431 0.501687 -0.023004
C27   C     C_R   0.354607 0.500477 0.499727 -0.089424
C28   C     C_R   0.645407 0.498551 0.501152 -0.087607
H1    H     H_    0.347972 0.548006 0.722836 0.158329
H2    H     H_    0.652986 0.530208 0.274040 0.166699
H3    H     H_    0.259933 0.545965 0.722406 0.150977
H4    H     H_    0.741171 0.530525 0.278822 0.152973
H5    H     H_    0.121400 0.184061 0.455916 0.186090
H6    H     H_    0.878291 0.814250 0.511594 0.185085
C29   C     C_R   0.974351 0.381144 0.497721 0.042889
C30   C     C_R   0.025326 0.613393 0.518099 0.042813
C31   C     C_R   0.974221 0.613540 0.512414 0.043538
C32   C     C_R   0.025458 0.381881 0.491899 0.043051
C33   C     C_R   0.949030 0.497204 0.505049 0.068955
C34   C     C_R   0.050648 0.497805 0.504803 0.069375
C35   C     C_R   0.947403 0.267874 0.497358 -0.203217
C36   C     C_R   0.052267 0.725196 0.537673 -0.207369
C37   C     C_R   0.897462 0.268819 0.499039 -0.149468
C38   C     C_R   0.102200 0.724047 0.538898 -0.148402
O11   O     O_2   0.796903 0.275150 0.498606 -0.552962
O12   O     O_2   0.202595 0.718377 0.536303 -0.552473
C39   C     C_R   0.052532 0.270363 0.472588 -0.202432
C40   C     C_R   0.947157 0.726522 0.512765 -0.202544
H7    H     H_    0.650799 0.469913 0.728305 0.158770
H8    H     H_    0.348221 0.448759 0.278413 0.155625
H9    H     H_    0.878621 0.179427 0.498320 0.185128
H10   H     H_    0.121030 0.812374 0.553881 0.187548
H11   H     H_    0.963691 0.175931 0.498231 0.134120
H12   H     H_    0.035983 0.815732 0.554979 0.135987
H13   H     H_    0.036351 0.179544 0.455878 0.135014
H14   H     H_    0.963344 0.818640 0.511851 0.133863
C41   C     C_3   0.500129 0.039315 0.635539 -0.140658
C42   C     C_3   0.499968 0.960702 0.364445 -0.139754
C43   C     C_3   0.539602 0.957353 0.566896 -0.164323
C44   C     C_3   0.460494 0.042660 0.433088 -0.161909
H15   H     H_    0.571953 0.919196 0.621465 0.134661
H16   H     H_    0.428145 0.080830 0.378522 0.135753
H17   H     H_    0.500203 0.074043 0.746612 0.128572
H18   H     H_    0.499899 0.925979 0.253371 0.128664
C45   C     C_3   0.500038 0.877585 0.498522 0.019315
C46   C     C_3   0.500054 0.122428 0.501465 0.018918
C47   C     C_3   0.460567 0.957257 0.567045 -0.163450
C48   C     C_3   0.539530 0.042767 0.432940 -0.165636
H19   H     H_    0.428276 0.919006 0.621732 0.133356
H20   H     H_    0.571820 0.081030 0.378249 0.133132
C49   C     C_3   0.503616 0.613439 0.049436 -0.035835
C50   C     C_3   0.496403 0.386551 0.950559 -0.035466
C51   C     C_3   0.464321 0.564850 0.948626 -0.035789
C52   C     C_3   0.535694 0.435144 0.051379 -0.040782
H21   H     H_    0.434348 0.619467 0.900310 0.107876
H22   H     H_    0.565713 0.380620 0.099623 0.115646
H23   H     H_    0.506714 0.709119 0.095316 0.112005
H24   H     H_    0.493317 0.290870 0.904676 0.112209
N3    N     N_3   0.500040 0.499970 0.858290 -0.153297
N4    N     N_3   0.499960 0.500030 0.141710 -0.153717
C53   C     C_3   0.539341 0.548531 0.949230 -0.040314
C54   C     C_3   0.460673 0.451445 0.050759 -0.035938
H25   H     H_    0.572431 0.589461 0.901672 0.114147
H26   H     H_    0.427615 0.410358 0.098313 0.111332
O13   O     O_3   0.746529 0.462832 0.757675 -0.608774
C55   C     C_3   0.732932 0.352583 0.833641 0.084174
H27   H     H_    0.765848 0.295062 0.850643 0.182306
H28   H     H_    0.706875 0.290644 0.776664 0.131233
C56   C     C_3   0.712708 0.389041 0.978943 -0.366557
H29   H     H_    0.740546 0.441963 0.038717 0.233096
H30   H     H_    0.680903 0.451182 0.964877 0.207280
C57   C     C_3   0.697911 0.273048 0.065243 -0.899860
H31   H     H_    0.669395 0.219973 0.008469 0.248465
H32   H     H_    0.683592 0.302596 0.169955 0.263452
H33   H     H_    0.729404 0.210611 0.083438 0.273238
O14   O     O_3   0.253279 0.440398 0.252716 -0.588404
C58   C     C_3   0.258741 0.530989 0.142617 0.024725
H34   H     H_    0.254377 0.481130 0.039913 0.178983
H35   H     H_    0.294988 0.575894 0.139365 0.118650
C59   C     C_3   0.219648 0.632060 0.153387 -0.355886
H36   H     H_    0.183794 0.586229 0.162319 0.235623
H37   H     H_    0.225847 0.689116 0.250206 0.241866
C60   C     C_3   0.219913 0.719240 0.023599 -0.859588
H38   H     H_    0.255402 0.766519 0.012963 0.256012
H39   H     H_    0.191731 0.792422 0.035766 0.266727
H40   H     H_    0.212258 0.665026 0.925507 0.256098

loop_
_geom_bond_atom_site_label_1
_geom_bond_atom_site_label_2
_geom_bond_distance
_ccdc_geom_bond_type
C13   C15   1.392186 A    
C10   O13   1.387793 S    
C58   H34   1.111282 S    
C12   H7    1.081824 S    
N1    C17   1.435265 S    
C59   H36   1.111945 S    
C49   H23   1.109833 S    
O5    C3    1.300751 A    
C30   C34   1.421472 A    
C44   H16   1.110261 S    
O1    C1    1.289937 A    
N1    C7    1.367900 A    
C10   C12   1.405393 A    
C42   C45   1.533339 S    
C32   C39   1.416260 A    
C60   H39   1.110340 S    
C50   C52   1.537099 S    
C57   H31   1.110910 S    
C35   H11   1.076231 S    
C40   H14   1.076251 S    
C14   C28   1.403431 A    
O4    Cu1   1.953958 S    
O14   C58   1.415906 S    
C4    C28   1.471486 S    
C56   H30   1.110724 S    
C32   C34   1.421538 A    
C54   H26   1.110136 S    
C42   H18   1.110216 S    
C24   C40   1.388424 A    
C23   H5    1.083703 S    
C24   H6    1.083742 S    
O6    C4    1.301483 A    
C52   C53   1.537627 S    
N3    C53   1.481524 S    
C44   C46   1.531603 S    
Cu1   Cu2   2.692098 S    
C43   H15   1.110250 S    
O2    C2    1.289943 A    
C31   C40   1.416322 A    
O8    C4    1.300164 A    
C5    C21   1.403895 A    
C41   C46   1.533300 S    
C47   H19   1.110272 S    
C38   H10   1.083705 S    
C49   C51   1.537107 S    
C52   N4    1.481390 S    
C7    O12   1.349975 S    
C42   C44   1.545728 S    
C60   H40   1.111208 S    
C11   C27   1.404695 A    
C8    O11   1.349862 S    
C45   C47   1.531591 S    
C29   C35   1.416414 A    
C25   C38   1.395415 A    
C14   H2    1.083183 S    
C55   C56   1.530575 S    
C30   C36   1.416202 A    
C15   H3    1.082957 S    
C31   C33   1.421546 A    
C11   H8    1.083276 S    
C9    C17   1.407161 A    
C56   C57   1.526097 S    
C5    N1    1.367773 A    
O7    Cu2   1.950425 S    
C10   C18   1.403311 A    
C50   N3    1.482197 S    
C49   N4    1.482178 S    
C13   C27   1.403511 A    
C59   H37   1.110547 S    
O13   C55   1.417881 S    
C7    C25   1.403421 A    
C6    N2    1.366367 A    
C29   C32   1.422047 A    
C8    C26   1.403820 A    
C51   C54   1.537692 S    
C55   H28   1.117216 S    
C30   C31   1.421787 A    
C43   C45   1.531668 S    
C58   H35   1.114920 S    
C19   C25   1.408056 A    
C1    C46   1.453621 S    
N4    C54   1.481388 S    
O7    C3    1.300740 A    
O3    Cu2   1.953957 S    
C50   C54   1.536840 S    
C46   C48   1.531623 S    
C52   H22   1.110503 S    
C48   H20   1.110309 S    
C35   C37   1.388638 A    
C20   C26   1.408680 A    
O4    C2    1.290575 A    
O1    Cu1   1.957054 S    
C44   C47   1.546368 S    
C43   C48   1.546436 S    
C41   H17   1.110219 S    
C12   C28   1.405145 A    
C41   C43   1.545749 S    
N2    C18   1.431987 S    
C39   H13   1.076228 S    
C19   C34   1.422395 A    
C5    O9    1.349859 S    
C9    O14   1.385811 S    
O6    Cu2   1.950004 S    
C26   C37   1.395390 A    
C21   C23   1.395525 A    
C16   H4    1.082018 S    
N2    C8    1.366554 A    
O3    C1    1.290537 A    
O8    Cu1   1.950425 S    
C23   C39   1.388584 A    
C53   H25   1.110227 S    
C51   H21   1.110317 S    
C14   C16   1.392723 A    
C15   C17   1.400566 A    
C36   H12   1.076241 S    
C60   H38   1.111007 S    
C6    C22   1.403679 A    
C16   C18   1.398876 A    
C49   C53   1.536849 S    
C2    C45   1.453716 S    
C57   H32   1.109973 S    
C29   C33   1.421560 A    
C51   N3    1.481106 S    
C22   C24   1.395363 A    
C55   H27   1.111229 S    
C19   C21   1.408145 A    
C36   C38   1.388349 A    
C3    C27   1.471172 S    
C58   C59   1.531704 S    
C20   C22   1.408651 A    
C9    C11   1.403565 A    
O2    Cu2   1.957053 S    
C59   C60   1.526070 S    
C13   H1    1.083227 S    
O5    Cu1   1.950004 S    
C20   C33   1.422310 A    
C6    O10   1.349829 S    
Cu1   N3    2.022977 S    
C56   H29   1.110824 S    
C50   H24   1.109830 S    
C41   C47   1.545750 S    
Cu2   N4    2.022977 S    
C42   C48   1.545786 S    
C37   H9    1.083742 S    
C57   H33   1.110811 S    
