data_mof_unit_2521.cif
_audit_creation_date              2012-12-10T18:57:12-0500
_audit_creation_method            fapswitch 2.2
_symmetry_space_group_name_H-M    P1
_symmetry_Int_Tables_number       1
_space_group_crystal_system       triclinic
_cell_length_a                    8.754893
_cell_length_b                    10.828955
_cell_length_c                    9.579979
_cell_angle_alpha                 90.102857
_cell_angle_beta                  97.578365
_cell_angle_gamma                 90.780363
_cell_volume                      900.220227629

loop_
_atom_site_label
_atom_site_type_symbol
_atom_type_description
_atom_site_fract_x
_atom_site_fract_y
_atom_site_fract_z
_atom_type_partial_charge
C1    C     C_R   0.495623 0.262487 0.499258 0.789957
C2    C     C_R   0.631709 0.526989 0.942170 0.166158
C3    C     C_3   0.729877 0.640392 0.944685 0.085239
C4    C     C_R   0.204367 0.494036 0.463875 0.752504
C5    C     C_3   0.725901 0.645475 0.103560 0.158682
C6    C     C_R   0.496492 0.737700 0.499665 0.804207
C7    C     C_R   0.795827 0.498749 0.535504 0.918352
C8    C     C_2   0.038662 0.478655 0.443292 0.209455
C9    C     C_2   0.961543 0.501424 0.552582 -0.363150
C10   C     C_R   0.474812 0.064334 0.621586 0.112204
C11   C     C_R   0.477476 0.129442 0.496596 -0.090574
C12   C     C_R   0.456712 0.935062 0.368986 -0.174334
C13   C     C_R   0.456488 0.063956 0.368467 -0.205886
C14   C     C_R   0.479138 0.870860 0.497515 -0.096818
C15   C     C_R   0.475911 0.937238 0.622262 0.120591
C16   C     C_3   0.581046 0.934378 0.758320 -0.470276
C17   C     C_3   0.579064 0.074369 0.757493 -0.432626
C18   C     C_R   0.630995 0.528621 0.088997 0.156741
C19   C     C_R   0.377049 0.456623 0.060554 -0.083418
C20   C     C_R   0.377956 0.452635 0.912812 0.446506
Cu1   Cu    Cu3+1 0.499990 0.499980 0.640670 0.967428
Cu2   Cu    Cu3+1 0.500010 0.500020 0.359330 0.990095
H1    H     H_    0.673172 0.716751 0.882216 0.126160
H2    H     H_    0.277732 0.421146 0.104454 0.168113
H3    H     H_    0.037739 0.416094 0.250860 0.333913
H4    H     H_    0.297064 0.343555 0.764273 0.353286
H5    H     H_    0.934170 0.692612 0.915672 0.322642
H6    H     H_    0.544416 0.751930 0.085743 0.307605
H7    H     H_    0.839889 0.634175 0.168132 0.197970
H8    H     H_    0.020732 0.527225 0.655653 0.194249
H9    H     H_    0.447655 0.111611 0.268479 0.170578
H10   H     H_    0.446598 0.886655 0.269282 0.189570
H11   H     H_    0.523335 0.894206 0.844726 0.194488
H12   H     H_    0.696081 0.896486 0.746440 0.196924
H13   H     H_    0.520046 0.114189 0.842753 0.200161
H14   H     H_    0.692672 0.117356 0.745432 0.207989
N1    N     N_R   0.500980 0.500930 0.148050 -0.223498
N2    N     N_R   0.500990 0.500890 0.852140 -0.264726
O1    O     O_R   0.500000 0.319640 0.618810 -0.608455
O2    O     O_3   0.254705 0.395251 0.834557 -0.724350
O3    O     O_3   0.876656 0.612835 0.911299 -0.705215
O4    O     O_3   0.645931 0.748024 0.145651 -0.722853
O5    O     O_R   0.500020 0.319680 0.381230 -0.580200
O6    O     O_R   0.274830 0.499980 0.591380 -0.575423
O7    O     O_R   0.274850 0.500020 0.353800 -0.604556
O8    O     O_R   0.499980 0.680320 0.618770 -0.592701
O9    O     O_R   0.500000 0.680360 0.381190 -0.541988
O10   O     O_R   0.725150 0.499980 0.646200 -0.552511
O11   O     O_R   0.725170 0.500020 0.408620 -0.510253
O12   O     O_3   0.962260 0.437552 0.315069 -0.717956

loop_
_geom_bond_atom_site_label_1
_geom_bond_atom_site_label_2
_ccdc_geom_bond_type
C5    O4    S    
C17   H14   S    
C16   H11   S    
C2    C18   A    
Cu1   O6    S    
C20   N2    A    
C19   N1    A    
H5    O3    S    
C3    H1    S    
C19   C20   A    
Cu1   O1    S    
C4    C8    S    
Cu1   O10   S    
C7    O10   A    
C2    C3    S    
Cu1   Cu2   S    
C12   H10   S    
C13   H9    S    
C11   C13   A    
H4    O2    S    
C16   C17   S    
C9    H8    S    
Cu2   O11   S    
H6    O4    S    
C18   N1    A    
C12   C14   A    
C19   H2    S    
C5    H7    S    
C4    O7    A    
C6    O8    A    
C20   O2    S    
Cu2   O9    S    
C6    C14   S    
C10   C11   A    
C1    O1    A    
C10   C17   S    
C15   C16   S    
C8    O12   S    
Cu2   O7    S    
C17   H13   S    
C12   C13   A    
C7    O11   A    
Cu1   O8    S    
C6    O9    A    
C7    C9    S    
C2    N2    A    
C14   C15   A    
C3    O3    S    
C5    C18   S    
C4    O6    A    
C16   H12   S    
C10   C15   A    
H3    O12   S    
Cu2   N1    S    
C1    O5    A    
Cu1   N2    S    
Cu2   O5    S    
C8    C9    D    
C3    C5    S    
C1    C11   S    
