data_mof_unit_1486.cif
_audit_creation_date              2013-03-05T15:54:45-0500
_audit_creation_method            fapswitch 2.2
_symmetry_space_group_name_H-M    P1
_symmetry_Int_Tables_number       1
_space_group_crystal_system       triclinic
_cell_length_a                    12.323454
_cell_length_b                    13.179765
_cell_length_c                    15.055821
_cell_angle_alpha                 77.27039
_cell_angle_beta                  101.433514
_cell_angle_gamma                 116.312222
_cell_volume                      2123.94463764

loop_
_atom_site_label
_atom_site_type_symbol
_atom_site_description
_atom_site_fract_x
_atom_site_fract_y
_atom_site_fract_z
_atom_type_partial_charge
O1    O     O_R   0.972510 0.318130 0.526570 -0.527922
O2    O     O_R   0.806530 0.359650 0.490890 -0.628110
C1    C     C_R   0.854901 0.286381 0.505205 0.811550
O3    O     O_R   0.082980 0.479210 0.647590 -0.588134
O4    O     O_R   0.917000 0.520730 0.611900 -0.605216
C2    C     C_R   0.999621 0.499706 0.671214 0.808011
Cu1   Cu    Cu3+1 0.098270 0.475420 0.521130 0.994687
Cu2   Cu    Cu3+1 0.901730 0.524580 0.478870 0.983601
O5    O     O_R   0.193470 0.640350 0.509110 -0.592172
O6    O     O_R   0.027490 0.681870 0.473430 -0.545157
O7    O     O_R   0.083000 0.479270 0.388100 -0.592217
O8    O     O_R   0.917020 0.520790 0.352410 -0.556515
C3    C     C_R   0.144880 0.713466 0.489824 0.832719
C4    C     C_R   0.999700 0.499132 0.328895 0.825475
C5    C     C_R   0.102772 0.504715 0.201308 -0.229227
C6    C     C_R   0.998822 0.496721 0.232353 -0.059891
C7    C     C_R   0.893973 0.486346 0.171024 -0.175560
C8    C     C_R   0.893223 0.486703 0.078328 0.094922
C9    C     C_R   0.998287 0.495876 0.047054 0.063090
C10   C     C_R   0.103227 0.504306 0.108916 0.107318
C11   C     C_R   0.789426 0.478436 0.016405 -0.179121
C12   C     C_R   0.789846 0.479993 0.923565 -0.186666
C13   C     C_R   0.893883 0.489307 0.891822 0.107183
C14   C     C_R   0.998466 0.496762 0.953818 0.067126
C15   C     C_R   0.103313 0.505295 0.922644 0.100856
C16   C     C_R   0.206959 0.513165 0.984617 -0.183248
C17   C     C_R   0.206983 0.512851 0.077280 -0.194246
C18   C     C_R   0.895179 0.491162 0.799130 -0.229471
C19   C     C_R   0.999143 0.499160 0.768106 -0.067643
C20   C     C_R   0.102718 0.505950 0.829928 -0.211443
H1    H     H_    0.183789 0.512535 0.248786 0.151536
H2    H     H_    0.812654 0.477383 0.195422 0.175977
H3    H     H_    0.708230 0.471301 0.039724 0.155273
H4    H     H_    0.708937 0.473921 0.876618 0.157836
H5    H     H_    0.814867 0.485216 0.751420 0.159564
H6    H     H_    0.183353 0.512761 0.805841 0.171006
H7    H     H_    0.287991 0.519823 0.961373 0.158003
H8    H     H_    0.288057 0.519371 0.124161 0.149041
C21   C     C_R   0.264446 0.034973 0.446083 -0.159275
H9    H     H_    0.086646 0.898683 0.453714 0.217399
H10   H     H_    0.435872 0.236822 0.387083 0.146956
H11   H     H_    0.229178 0.099394 0.420445 0.174360
C22   C     C_R   0.226978 0.835275 0.485573 -0.092472
C23   C     C_R   0.817131 0.078473 0.544525 0.287591
C24   C     C_R   0.737985 0.969779 0.581730 -0.247712
C25   C     C_R   0.613778 0.940406 0.577903 0.261256
C26   C     C_R   0.563111 0.014587 0.521254 -0.038361
C27   C     C_R   0.643440 0.127092 0.486185 0.003172
C28   C     C_R   0.435515 0.981409 0.497774 0.114182
C29   C     C_R   0.390110 0.065027 0.458585 0.134905
C30   C     C_R   0.469795 0.174495 0.424684 -0.222034
C31   C     C_R   0.592815 0.200965 0.430617 -0.136484
C32   C     C_R   0.352525 0.866541 0.502892 -0.168460
C33   C     C_R   0.183154 0.920424 0.462829 -0.103565
C34   C     C_R   0.771788 0.162639 0.507378 -0.217981
H12   H     H_    0.385453 0.800673 0.515237 0.185777
H13   H     H_    0.774701 0.909225 0.618395 0.220089
H14   H     H_    0.646292 0.279442 0.389389 0.172295
C35   C     C_R   0.347230 0.327522 0.646561 -0.267501
H15   H     H_    0.169503 0.308364 0.662365 0.147229
H16   H     H_    0.548476 0.293940 0.676558 0.160308
H17   H     H_    0.346427 0.260344 0.703228 0.155520
N1    N     N_R   0.246280 0.438190 0.553160 -0.188990
C36   C     C_R   0.754487 0.644134 0.373829 0.533990
C37   C     C_R   0.656672 0.674637 0.348960 -0.268474
C38   C     C_R   0.556336 0.620850 0.397178 -0.265819
C39   C     C_R   0.551010 0.534029 0.471751 0.017150
C40   C     C_R   0.653688 0.505242 0.496441 0.216986
C41   C     C_R   0.447185 0.474732 0.522257 0.001080
C42   C     C_R   0.447451 0.387459 0.596261 0.155542
C43   C     C_R   0.547661 0.360571 0.619757 -0.266017
C44   C     C_R   0.648364 0.418271 0.571326 -0.160026
C45   C     C_R   0.342011 0.497829 0.502534 0.053128
C46   C     C_R   0.247066 0.354409 0.623762 0.146007
N2    N     N_R   0.754320 0.561190 0.447410 -0.274252
H18   H     H_    0.333609 0.562553 0.447530 0.114160
H19   H     H_    0.484124 0.648746 0.373780 0.153386
H20   H     H_    0.658315 0.740491 0.290944 0.184642
H21   H     H_    0.719916 0.391118 0.595253 0.203815
N3    N     N_R   0.943281 0.102350 0.547062 0.138525
O9    O     O_R   0.997807 0.059041 0.617544 -0.373229
O10   O     O_R   0.997001 0.149823 0.472908 -0.352537
N4    N     N_R   0.544508 0.841483 0.638867 0.114960
O11   O     O_R   0.473432 0.848295 0.688562 -0.344526
O12   O     O_R   0.565327 0.750160 0.654714 -0.367173
N5    N     N_R   0.852907 0.700454 0.318909 0.139540
O13   O     O_R   0.931289 0.803469 0.331095 -0.379415
O14   O     O_R   0.836370 0.671433 0.238492 -0.382466

loop_
_geom_bond_atom_site_label_1
_geom_bond_atom_site_label_2
_geom_bond_distance
_ccdc_geom_bond_type
C27   C34   1.425452 A    
C8    C11   1.402025 A    
C9    C10   1.411715 A    
Cu1   Cu2   2.699913 S    
C26   C28   1.423681 A    
C24   C25   1.394866 A    
C40   N2    1.392468 A    
Cu1   O7    1.965641 S    
C24   H13   1.083213 S    
C16   C17   1.394153 A    
C18   C19   1.402341 A    
C44   H21   1.064134 S    
O4    C2    1.300584 A    
O7    C4    1.299809 A    
N5    O14   1.300344 A    
C21   C33   1.392129 A    
C11   H3    1.083823 S    
C17   H8    1.083901 S    
C5    C6    1.402364 A    
C8    C9    1.410868 A    
O5    C3    1.300304 A    
C1    C34   1.489574 S    
C22   C32   1.397761 A    
C26   C27   1.420668 A    
C18   H5    1.084364 S    
C6    C7    1.402429 A    
C13   C14   1.411794 A    
C41   C45   1.420597 A    
C42   C43   1.391154 A    
C40   C44   1.408002 A    
H16   C43   1.084480 S    
C38   C39   1.403820 A    
C11   C12   1.394396 A    
O3    Cu1   1.963555 S    
C36   N5    1.426437 S    
C29   C30   1.387292 A    
C21   H11   1.083963 S    
C5    C10   1.393369 A    
C12   H4    1.083954 S    
C39   C40   1.435350 A    
C23   N3    1.437130 S    
C14   C15   1.410936 A    
N3    O10   1.301606 A    
N5    O13   1.298830 A    
N1    C45   1.364179 A    
C15   C16   1.401952 A    
Cu2   N2    2.022972 S    
C30   C31   1.385347 A    
O1    C1    1.309971 A    
C19   C20   1.402850 A    
C22   C33   1.401076 A    
N4    O11   1.301619 A    
Cu2   O8    1.963555 S    
C21   C29   1.401437 A    
C7    C8    1.392791 A    
C13   C18   1.393512 A    
C35   C46   1.390408 A    
Cu1   N1    2.034874 S    
C31   H14   1.079048 S    
O3    C2    1.299219 A    
N1    C46   1.355511 A    
O8    C4    1.300144 A    
C28   C29   1.415978 A    
H9    C33   1.079766 S    
C45   H18   1.075733 S    
C4    C6    1.458646 S    
C3    C22   1.464753 S    
C23   C24   1.393406 A    
C32   H12   1.078954 S    
C15   C20   1.392622 A    
Cu1   O5    1.945314 S    
C38   H19   1.076986 S    
C25   C26   1.426797 A    
C35   H17   1.083789 S    
C37   H20   1.083527 S    
N4    O12   1.301683 A    
O1    Cu1   1.957900 S    
O2    Cu2   1.945315 S    
N3    O9    1.301453 A    
O6    C3    1.302620 A    
O4    Cu2   1.965642 S    
C16   H7    1.083832 S    
C5    H1    1.084764 S    
C10   C17   1.401642 A    
C20   H6    1.084648 S    
C36   C37   1.392542 A    
C9    C14   1.401658 A    
C43   C44   1.388458 A    
C23   C34   1.416951 A    
C28   C32   1.396812 A    
H15   C46   1.081798 S    
C36   N2    1.373872 A    
O2    C1    1.304584 A    
C41   C42   1.414769 A    
C35   C42   1.401853 A    
C25   N4    1.437920 S    
C27   C31   1.417641 A    
C2    C19   1.458400 S    
Cu2   O6    1.957899 S    
C37   C38   1.382194 A    
C7    H2    1.083987 S    
C12   C13   1.401715 A    
C39   C41   1.436459 A    
H10   C30   1.084301 S    
