data_mof_unit_3783.cif
_audit_creation_date              2012-12-11T18:44:57-0500
_audit_creation_method            fapswitch 2.2
_symmetry_space_group_name_H-M    P1
_symmetry_Int_Tables_number       1
_space_group_crystal_system       triclinic
_cell_length_a                    8.303819
_cell_length_b                    14.44576
_cell_length_c                    18.886814
_cell_angle_alpha                 98.03558
_cell_angle_beta                  92.093103
_cell_angle_gamma                 90.909229
_cell_volume                      2241.32234612

loop_
_atom_site_label
_atom_site_type_symbol
_atom_type_description
_atom_site_fract_x
_atom_site_fract_y
_atom_site_fract_z
_atom_type_partial_charge
Ba1   Ba    Ba6+2 0.843240 0.541620 0.463500 1.764528
Ba2   Ba    Ba6+2 0.346570 0.458460 0.536510 1.723018
C1    C     C_3   0.550306 0.852171 0.236358 -0.215952
C2    C     C_3   0.515470 0.752738 0.250357 0.279824
C3    C     C_3   0.454448 0.233464 0.314537 0.262581
C4    C     C_3   0.406905 0.135144 0.276529 -0.249533
C5    C     C_3   0.105475 0.277632 0.740182 0.274953
C6    C     C_3   0.090907 0.251443 0.815410 -0.264477
C7    C     C_3   0.613046 0.224639 0.700781 0.280459
C8    C     C_3   0.628477 0.130292 0.728366 -0.260659
C9    C     C_R   0.007029 0.452929 0.048922 0.031217
C10   C     C_R   0.913895 0.410666 0.097153 0.033119
C11   C     C_R   0.760094 0.373923 0.074480 -0.076402
C12   C     C_3   0.065643 0.715247 0.257688 0.347815
C13   C     C_R   0.699163 0.379236 0.005112 -0.098455
C14   C     C_R   0.791210 0.420546 0.956488 0.009378
C15   C     C_R   0.945791 0.457587 0.978154 0.031985
C16   C     C_R   0.730725 0.424533 0.886610 -0.125736
C17   C     C_R   0.822856 0.463810 0.836299 -0.044680
C18   C     C_R   0.977224 0.504045 0.858139 0.004559
C19   C     C_R   0.038112 0.499866 0.929470 0.017882
C20   C     C_R   0.766509 0.461535 0.764407 -0.037641
C21   C     C_R   0.864856 0.498578 0.715385 -0.281098
C22   C     C_R   0.014336 0.544233 0.735622 -0.036896
C23   C     C_3   0.042904 0.731678 0.180244 -0.295924
C24   C     C_R   0.069480 0.549731 0.809772 -0.045872
C25   C     C_R   0.161223 0.489903 0.071303 0.010600
C26   C     C_R   0.219266 0.488670 0.143157 0.015480
C27   C     C_R   0.122155 0.450261 0.193302 -0.047178
C28   C     C_R   0.974090 0.406726 0.167486 -0.039946
C29   C     C_R   0.212874 0.597903 0.838481 -0.023709
C30   C     C_R   0.282629 0.581877 0.905008 0.031973
C31   C     C_R   0.192798 0.536253 0.951903 0.052139
C32   C     C_R   0.255407 0.530760 0.022338 0.033310
C33   C     C_R   0.439314 0.615113 0.926664 -0.104933
C34   C     C_3   0.060554 0.768099 0.649164 0.250421
C35   C     C_R   0.504307 0.609240 0.995022 -0.026654
C36   C     C_R   0.411547 0.567151 0.044000 0.022074
C37   C     C_R   0.374424 0.526396 0.164456 -0.053829
C38   C     C_R   0.471153 0.559692 0.113490 -0.099716
C39   C     C_R   0.429718 0.530568 0.236375 -0.029582
C40   C     C_R   0.334133 0.492600 0.285571 -0.297805
C41   C     C_R   0.178160 0.455695 0.266806 -0.034149
C42   C     C_R   0.700131 0.938968 0.538611 -0.034945
C43   C     C_R   0.516925 0.801518 0.495417 0.052403
C44   C     C_R   0.378779 0.767743 0.455095 -0.223968
C45   C     C_3   0.057311 0.860980 0.698991 -0.389585
C46   C     C_R   0.270520 0.827161 0.426839 0.000558
C47   C     C_R   0.311147 0.921996 0.431151 -0.166559
C48   C     C_R   0.456752 0.957776 0.466143 0.002692
C49   C     C_R   0.559504 0.898663 0.500691 -0.019291
C50   C     C_R   0.640446 0.091882 0.503455 0.006750
C51   C     C_R   0.743590 0.033920 0.538738 0.003337
C52   C     C_R   0.686181 0.186862 0.502909 0.016589
C53   C     C_R   0.833333 0.220251 0.534298 -0.269251
C54   C     C_R   0.936232 0.165059 0.568987 0.009439
C55   C     C_R   0.891356 0.071386 0.571786 -0.144430
C56   C     C_3   0.006751 0.253733 0.389390 0.222658
C57   C     C_R   0.497713 0.052704 0.468126 0.001705
C58   C     C_3   0.008762 0.146639 0.378100 -0.272445
C59   C     C_3   0.643010 0.700793 0.684758 0.367307
C60   C     C_3   0.660202 0.750290 0.761271 -0.334864
H1    H     H_    0.465989 0.755617 0.304602 -0.043266
H2    H     H_    0.885572 0.278200 0.403525 0.041239
H3    H     H_    0.094670 0.278759 0.433891 0.069214
H4    H     H_    0.993987 0.119622 0.429500 0.071007
H5    H     H_    0.127453 0.123025 0.359260 0.029351
H6    H     H_    0.749739 0.658443 0.676305 -0.171843
H7    H     H_    0.533626 0.656451 0.677582 0.066074
H8    H     H_    0.622695 0.890578 0.282077 0.124658
H9    H     H_    0.773521 0.792447 0.768984 0.119552
H10   H     H_    0.664541 0.697837 0.798912 0.041168
H11   H     H_    0.351934 0.265611 0.344088 -0.053076
H12   H     H_    0.372851 0.089668 0.316351 0.033738
H13   H     H_    0.513686 0.103201 0.249506 0.161835
H14   H     H_    0.181986 0.341773 0.742432 0.093555
H15   H     H_    0.983023 0.293960 0.720868 -0.034113
H16   H     H_    0.985472 0.656158 0.266019 0.106404
H17   H     H_    0.665083 0.141495 0.786224 0.137735
H18   H     H_    0.685804 0.341842 0.110683 0.122337
H19   H     H_    0.579574 0.350813 0.989459 0.134242
H20   H     H_    0.512113 0.647741 0.890315 0.034958
H21   H     H_    0.594386 0.579632 0.128158 0.141448
H22   H     H_    0.192369 0.695909 0.267660 -0.126667
H23   H     H_    0.346251 0.695392 0.451807 0.160472
H24   H     H_    0.972534 0.027730 0.597925 0.069913
H25   H     H_    0.416880 0.095337 0.441209 0.077331
H26   H     H_    0.919598 0.756848 0.170696 0.196514
H27   H     H_    0.131495 0.784784 0.168022 0.139575
O1    O     O_2   0.887710 0.436190 0.327560 -0.415951
O2    O     O_3   0.637563 0.767961 0.638572 -0.656602
O3    O     O_3   0.025261 0.796480 0.302940 -0.588787
O4    O     O_2   0.301980 0.563840 0.672490 -0.477807
O5    O     O_3   0.054330 0.556590 0.583490 -0.414033
O6    O     O_3   0.555270 0.390630 0.635330 -0.474569
O7    O     O_3   0.177680 0.711421 0.674292 -0.626614
O8    O     O_3   0.637720 0.384870 0.467990 -0.441995
O9    O     O_3   0.145220 0.339960 0.601250 -0.432719
O10   O     O_2   0.274124 0.172976 0.565110 -0.512451
O11   O     O_3   0.172415 0.203316 0.695078 -0.599615
O12   O     O_3   0.135370 0.443490 0.416520 -0.447947
O13   O     O_3   0.551980 0.615210 0.532020 -0.454727
O14   O     O_2   0.394410 0.269100 0.474240 -0.491510
O15   O     O_3   0.591779 0.224867 0.358921 -0.617505
O16   O     O_2   0.424500 0.457584 0.757702 -0.509916
O17   O     O_3   0.542270 0.289892 0.752305 -0.608435
O18   O     O_3   0.634420 0.609440 0.364670 -0.447300
O19   O     O_2   0.767551 0.535921 0.244858 -0.491797
O20   O     O_3   0.048538 0.286963 0.326326 -0.666521
O21   O     O_3   0.658405 0.702418 0.245268 -0.574166
O22   O     O_2   0.795290 0.730930 0.525800 -0.471283
O23   O     O_3   0.044470 0.660110 0.398750 -0.428741
O24   O     O_2   0.933067 0.830250 0.434132 -0.454466
P1    P     P_3+3 0.061800 0.409390 0.339760 1.007764
P2    P     P_3+3 0.622760 0.718740 0.547830 0.999232
P3    P     P_3+3 0.069373 0.779458 0.391415 1.036645
P4    P     P_3+3 0.127890 0.590690 0.660240 1.038702
P5    P     P_3+3 0.131554 0.219178 0.605925 0.969368
P6    P     P_3+3 0.621116 0.592931 0.271287 0.984321
P7    P     P_3+3 0.574633 0.265996 0.450771 0.970858
P8    P     P_3+3 0.571515 0.402073 0.728867 0.935761
H28   H     H_    0.176363 0.897844 0.701531 0.156466
H29   H     H_    0.963288 0.906464 0.679885 0.057139
H30   H     H_    0.028476 0.848879 0.753726 0.183550
C61   C     C_2   0.880131 0.104877 0.324860 0.561882
H31   H     H_    0.872377 0.125188 0.271691 0.044549
O25   O     O_2   0.783541 0.047483 0.340875 -0.595160
H32   H     H_    0.558198 0.797990 0.773315 0.148877
H33   H     H_    0.425869 0.719952 0.208922 0.010756
C62   C     C_2   0.395576 0.901501 0.227119 0.434262
H34   H     H_    0.316802 0.916266 0.271703 -0.008530
O26   O     O_2   0.356203 0.924089 0.169166 -0.502774
C63   C     C_2   0.499361 0.292290 0.257963 0.438852
H35   H     H_    0.407871 0.310319 0.220050 -0.059833
O27   O     O_2   0.637973 0.319337 0.253410 -0.576938
C64   C     C_2   0.270246 0.136245 0.222026 0.473417
H36   H     H_    0.150543 0.154666 0.238635 0.014405
O28   O     O_2   0.293695 0.117198 0.158271 -0.495943
H37   H     H_    0.620773 0.850410 0.187221 0.176093
H38   H     H_    0.060025 0.665676 0.143917 0.069278
C65   C     C_2   0.251352 0.256986 0.855008 0.552050
H39   H     H_    0.346390 0.210491 0.836112 0.100841
O29   O     O_2   0.275733 0.313247 0.909002 -0.601124
H40   H     H_    0.006589 0.299598 0.845523 0.084609
H41   H     H_    0.039429 0.179432 0.812095 0.098571
H42   H     H_    0.735783 0.248124 0.689372 -0.030846
H43   H     H_    0.539634 0.216010 0.649796 0.069637
H44   H     H_    0.724535 0.089843 0.699574 0.012403
C66   C     C_2   0.474901 0.073304 0.715657 0.550752
H45   H     H_    0.423344 0.055650 0.661704 -0.000366
O30   O     O_2   0.408631 0.044995 0.765357 -0.569008
C67   C     C_2   0.813006 0.484575 0.639821 0.528222
H46   H     H_    0.720058 0.525357 0.618552 0.026947
O31   O     O_2   0.867036 0.420544 0.600196 -0.588507
H47   H     H_    0.611031 0.396061 0.872113 0.133871
H48   H     H_    0.902922 0.370410 0.201907 0.154639
C68   C     C_2   0.268614 0.682170 0.811088 0.541730
H49   H     H_    0.372613 0.679365 0.778831 -0.004142
O32   O     O_2   0.203675 0.756503 0.828792 -0.574260
C69   C     C_2   0.666840 0.652388 0.012376 0.493520
H50   H     H_    0.756198 0.646950 0.971515 -0.003535
O33   O     O_2   0.698979 0.699827 0.069940 -0.586635
C70   C     C_2   0.406686 0.483166 0.355953 0.540673
H51   H     H_    0.493550 0.430000 0.361811 0.003018
O34   O     O_2   0.378853 0.540361 0.407277 -0.541399
H52   H     H_    0.228266 0.967917 0.408214 0.072422
H53   H     H_    0.876110 0.287282 0.524760 0.113079
H54   H     H_    0.779448 0.897135 0.566959 0.088960
C71   C     C_2   0.106099 0.784735 0.577295 0.566482
H55   H     H_    0.119089 0.854618 0.562927 -0.125061
O35   O     O_2   0.127076 0.716725 0.533409 -0.560374
H56   H     H_    0.940910 0.735540 0.645603 0.027345

loop_
_geom_bond_atom_site_label_1
_geom_bond_atom_site_label_2
_ccdc_geom_bond_type
C36   C38   A    
C53   C54   A    
C39   C40   A    
Ba1   O1    S    
C52   P7    S    
C1    C62   S    
C71   H55   S    
C17   C18   A    
O19   P6    D    
C53   H53   S    
C21   C67   S    
C5    C6    S    
C13   H19   S    
C43   C44   A    
C54   C55   A    
Ba2   O9    S    
C3    C63   S    
C10   C11   A    
C2    H1    S    
C22   P4    S    
C68   H49   S    
C48   C57   A    
C35   C69   S    
C26   C27   A    
C70   O34   D    
C35   C36   A    
C22   C24   A    
Ba1   Ba2   S    
C65   O29   D    
Ba1   O23   S    
C3    C4    S    
O5    P4    S    
C19   C31   A    
C43   C49   A    
C56   C58   S    
C13   C14   A    
C56   O20   S    
C7    H42   S    
C12   H16   S    
C55   H24   S    
C34   C45   S    
C16   C17   A    
C42   H54   S    
C43   P2    S    
C4    C64   S    
O13   P2    S    
C42   C51   A    
Ba2   P4    S    
C9    C15   A    
C70   H51   S    
C58   H5    S    
C14   C15   A    
C21   C22   A    
O9    P5    S    
C6    C65   S    
C12   H22   S    
C7    C8    S    
C5    H14   S    
C5    H15   S    
O24   P3    D    
C10   C28   A    
C41   P1    S    
O6    P8    S    
C28   H48   S    
C11   H18   S    
C58   H4    S    
C24   C29   A    
C68   O32   D    
C27   C41   A    
O12   P1    S    
C71   O35   D    
C38   H21   S    
O4    P4    D    
O18   P6    S    
C33   H20   S    
C50   C52   A    
C4    H12   S    
C25   C32   A    
C56   H2    S    
C44   C46   A    
C34   H56   S    
C5    O11   S    
C60   H10   S    
C30   C33   A    
O7    P4    S    
Ba2   O5    S    
C17   C20   A    
Ba2   O8    S    
C64   O28   D    
Ba1   O8    S    
C37   C38   A    
C51   C55   A    
C40   C70   S    
Ba1   O5    S    
C45   H28   S    
Ba2   O12   S    
C48   C49   A    
C7    O17   S    
C7    H43   S    
C23   H26   S    
C15   C19   A    
C69   O33   D    
C62   O26   D    
C27   C28   A    
C50   C57   A    
C34   O7    S    
C56   H3    S    
C45   H29   S    
C29   C30   A    
C9    C25   A    
C8    H17   S    
C23   H38   S    
C6    H41   S    
C31   C32   A    
C34   C71   S    
O16   P8    D    
C6    H40   S    
C1    H8    S    
C39   P6    S    
O3    P3    S    
C12   O3    S    
C29   C68   S    
O20   P1    S    
Ba1   O18   S    
C42   C49   A    
C46   C47   A    
C67   O31   D    
C11   C13   A    
C61   H31   S    
O11   P5    S    
C40   C41   A    
C1    C2    S    
Ba1   O12   S    
O23   P3    S    
C50   C51   A    
C20   P8    S    
C61   O25   D    
C59   H7    S    
C2    O21   S    
C52   C53   A    
C58   C61   S    
C33   C35   A    
C32   C36   A    
C54   P5    S    
Ba2   O4    S    
C64   H36   S    
Ba2   O6    S    
O21   P6    S    
C9    C10   A    
C2    H33   S    
C23   H27   S    
C26   C37   A    
C46   P3    S    
C30   C31   A    
C44   H23   S    
O8    P7    S    
C66   O30   D    
C62   H34   S    
C47   H52   S    
C8    C66   S    
C65   H39   S    
C69   H50   S    
O10   P5    D    
C60   H32   S    
C59   H6    S    
C45   H30   S    
C63   H35   S    
C18   C24   A    
Ba2   O14   S    
O17   P8    S    
O14   P7    D    
O2    P2    S    
C60   H9    S    
O1    P1    D    
C12   C23   S    
C3    H11   S    
C59   C60   S    
C57   H25   S    
C3    O15   S    
C1    H37   S    
C18   C19   A    
C37   C39   A    
C14   C16   A    
C47   C48   A    
Ba1   P1    S    
C25   C26   A    
C63   O27   D    
Ba2   O13   S    
C20   C21   A    
O22   P2    D    
C67   H46   S    
Ba1   P2    S    
C66   H45   S    
Ba1   O13   S    
Ba1   O22   S    
C16   H47   S    
C59   O2    S    
C8    H44   S    
O15   P7    S    
C4    H13   S    
