data_mof_unit_1166.cif
_audit_creation_date              2013-03-05T16:04:39-0500
_audit_creation_method            fapswitch 2.2
_symmetry_space_group_name_H-M    P1
_symmetry_Int_Tables_number       1
_space_group_crystal_system       triclinic
_cell_length_a                    9.508674
_cell_length_b                    10.833989
_cell_length_c                    15.448556
_cell_angle_alpha                 89.855973
_cell_angle_beta                  74.999929
_cell_angle_gamma                 90.010619
_cell_volume                      1537.22818634

loop_
_atom_site_label
_atom_site_type_symbol
_atom_site_description
_atom_site_fract_x
_atom_site_fract_y
_atom_site_fract_z
_atom_type_partial_charge
O1    O     O_R   0.118740 0.319660 0.500000 -0.595940
O2    O     O_R   0.881260 0.680340 0.500000 -0.595946
O3    O     O_R   0.881170 0.319630 0.500010 -0.587402
O4    O     O_R   0.118830 0.680370 0.499990 -0.587410
C1    C     C_R   0.999925 0.262040 0.500078 0.789927
C2    C     C_R   0.000075 0.737960 0.499921 0.789915
O5    O     O_R   0.055570 0.500030 0.629830 -0.523576
O6    O     O_R   0.944430 0.499970 0.370170 -0.523590
O7    O     O_R   0.818000 0.500000 0.629840 -0.594065
O8    O     O_R   0.182000 0.500000 0.370160 -0.594067
C3    C     C_R   0.919201 0.499581 0.672552 0.826626
C4    C     C_R   0.080799 0.500413 0.327448 0.826627
Cu1   Cu    Cu3+1 0.140660 0.500020 0.500000 0.987360
Cu2   Cu    Cu3+1 0.859340 0.499980 0.500000 0.987361
C5    C     C_R   0.876524 0.493105 0.771538 -0.170632
C6    C     C_R   0.123475 0.506855 0.228460 -0.170656
C7    C     C_R   0.919778 0.434353 0.913947 -0.272821
C8    C     C_R   0.080180 0.565476 0.086036 -0.272790
C9    C     C_R   0.974037 0.457746 0.822496 0.356354
C10   C     C_R   0.025939 0.542126 0.177495 0.356381
C11   C     C_R   0.729606 0.513193 0.815120 -0.284014
C12   C     C_R   0.270401 0.486801 0.184880 -0.284028
C13   C     C_R   0.674387 0.494260 0.907892 0.101368
C14   C     C_R   0.325589 0.505639 0.092096 0.101357
C15   C     C_R   0.772091 0.451203 0.956448 0.071981
C16   C     C_R   0.227869 0.548640 0.043534 0.071966
C17   C     C_R   0.524769 0.513638 0.953265 0.059843
C18   C     C_R   0.475198 0.486232 0.046718 0.059865
C19   C     C_R   0.576741 0.439814 0.091405 -0.153339
C20   C     C_R   0.423207 0.559998 0.908569 -0.153361
C21   C     C_R   0.722001 0.423919 0.047101 -0.139316
C22   C     C_R   0.277943 0.575876 0.952873 -0.139313
H1    H     H_    0.795849 0.388260 0.084042 0.182255
H2    H     H_    0.204080 0.611486 0.915926 0.182283
H3    H     H_    0.340400 0.459336 0.225975 0.174142
H4    H     H_    0.659647 0.540779 0.774034 0.174094
H5    H     H_    0.994049 0.403332 0.952190 0.173252
H6    H     H_    0.005893 0.596445 0.047789 0.173240
H7    H     H_    0.548443 0.413345 0.160889 0.167096
H8    H     H_    0.451479 0.586399 0.839073 0.167142
C23   C     C_R   0.872342 0.063814 0.499620 -0.168976
C24   C     C_R   0.127658 0.936186 0.500379 -0.168983
H9    H     H_    0.772544 0.111820 0.499314 0.154481
H10   H     H_    0.227457 0.888180 0.500684 0.154476
C25   C     C_R   0.872418 0.936116 0.499499 -0.169039
C26   C     C_R   0.127582 0.063884 0.500500 -0.169024
H11   H     H_    0.772682 0.888055 0.499083 0.152984
H12   H     H_    0.227319 0.111945 0.500915 0.152988
C27   C     C_R   0.000065 0.871792 0.499906 -0.019198
C28   C     C_R   0.999936 0.128208 0.500093 -0.019197
C29   C     C_R   0.551332 0.421772 0.554687 -0.014008
C30   C     C_R   0.448668 0.578228 0.445313 -0.014009
H13   H     H_    0.588972 0.359069 0.598469 0.133536
H14   H     H_    0.411028 0.640930 0.401530 0.133529
C31   C     C_R   0.402473 0.421771 0.554626 0.045027
C32   C     C_R   0.597528 0.578227 0.445373 0.045024
H15   H     H_    0.327827 0.359065 0.598286 0.159280
H16   H     H_    0.672175 0.640931 0.401711 0.159239
N1    N     N_R   0.352080 0.500030 0.499980 -0.171966
N2    N     N_R   0.647920 0.499970 0.500020 -0.171961
N3    N     N_R   0.872748 0.556347 0.216768 0.104959
O9    O     O_R   0.795231 0.460682 0.251099 -0.390468
O10   O     O_R   0.806554 0.654940 0.199561 -0.385636
N4    N     N_R   0.127221 0.443481 0.783221 0.104929
O11   O     O_R   0.204781 0.539127 0.748897 -0.390525
O12   O     O_R   0.193371 0.344859 0.800423 -0.385629

loop_
_geom_bond_atom_site_label_1
_geom_bond_atom_site_label_2
_geom_bond_distance
_ccdc_geom_bond_type
C15   C21   1.388559 A    
O5    Cu1   1.958925 S    
O5    C3    1.293828 A    
O7    Cu2   1.941590 S    
C21   H1    1.083709 S    
C16   C22   1.388553 A    
Cu1   N1    2.010243 S    
C30   N1    1.367143 A    
C31   N1    1.366417 A    
C32   H16   1.081641 S    
Cu2   N2    2.010243 S    
C26   C28   1.401110 A    
C8    C10   1.395429 A    
C8    C16   1.399966 A    
C25   C27   1.401111 A    
C9    N4    1.434132 S    
O6    C4    1.293831 A    
C7    C15   1.399967 A    
N4    O11   1.301297 A    
C19   H7    1.075080 S    
C31   H15   1.081641 S    
C8    H6    1.084340 S    
C20   H8    1.075063 S    
C19   C21   1.384640 A    
C11   H4    1.073502 S    
C7    H5    1.084341 S    
Cu1   Cu2   2.674981 S    
C17   C20   1.416071 A    
C20   C22   1.384647 A    
C12   H3    1.073526 S    
O7    C3    1.300034 A    
C2    C27   1.449943 S    
N4    O12   1.301243 A    
O2    C2    1.290390 A    
O3    Cu2   1.964947 S    
C24   H10   1.083292 S    
O1    C1    1.290391 A    
O8    C4    1.300032 A    
C18   C19   1.416063 A    
C7    C9    1.395433 A    
C30   H14   1.081725 S    
C29   C31   1.415697 A    
C13   C17   1.429697 A    
C25   H11   1.083296 S    
C11   C13   1.407395 A    
N3    O9    1.301295 A    
O2    Cu2   1.965065 S    
C12   C14   1.407392 A    
C1    C28   1.449943 S    
O1    Cu1   1.965065 S    
C24   C27   1.401074 A    
C6    C10   1.415161 A    
C10   N3    1.434131 S    
C26   H12   1.083296 S    
C4    C6    1.478599 S    
C23   C28   1.401074 A    
C5    C11   1.402224 A    
C13   C15   1.415108 A    
C32   N2    1.366416 A    
C29   H13   1.081725 S    
C14   C18   1.429685 A    
O4    C2    1.290447 A    
C24   C26   1.383489 A    
O4    Cu1   1.964947 S    
N3    O10   1.301237 A    
C23   C25   1.383489 A    
C6    C12   1.402234 A    
C29   N2    1.367142 A    
O6    Cu2   1.958926 S    
O3    C1    1.290447 A    
C5    C9    1.415151 A    
C3    C5    1.478596 S    
C23   H9    1.083292 S    
C30   C32   1.415698 A    
C14   C16   1.415098 A    
C17   C18   1.428344 A    
O8    Cu1   1.941591 S    
C22   H2    1.083701 S    
