data_mof_unit_39.cif
_audit_creation_date              2012-12-10T18:53:51-0500
_audit_creation_method            fapswitch 2.2
_symmetry_space_group_name_H-M    P1
_symmetry_Int_Tables_number       1
_space_group_crystal_system       triclinic
_cell_length_a                    19.403909
_cell_length_b                    18.112218
_cell_length_c                    10.823861
_cell_angle_alpha                 89.818205
_cell_angle_beta                  90.491472
_cell_angle_gamma                 89.915556
_cell_volume                      3803.85907915

loop_
_atom_site_label
_atom_site_type_symbol
_atom_type_description
_atom_site_fract_x
_atom_site_fract_y
_atom_site_fract_z
_atom_type_partial_charge
C1    C     C_R   0.367404 0.500094 0.499972 0.796720
C2    C     C_R   0.632596 0.500042 0.499987 0.804977
C3    C     C_R   0.815869 0.568880 0.505442 0.254003
C4    C     C_R   0.184407 0.569189 0.516464 0.255807
C5    C     C_R   0.744065 0.567789 0.503943 -0.236101
C6    C     C_R   0.256044 0.567924 0.509852 -0.241553
C7    C     C_R   0.708289 0.500461 0.500675 -0.088589
C8    C     C_R   0.291766 0.500566 0.504401 -0.087846
C9    C     C_R   0.964519 0.481154 0.397701 0.383804
C10   C     C_R   0.036831 0.482721 0.398880 0.375986
C11   C     C_R   0.072106 0.502197 0.508930 -0.050068
C12   C     C_R   0.928144 0.501364 0.504451 -0.043317
C13   C     C_R   0.035269 0.521750 0.614467 -0.177826
C14   C     C_R   0.963673 0.521769 0.612015 -0.178861
C15   C     C_R   0.448858 0.721197 0.439849 0.013029
C16   C     C_R   0.551851 0.720777 0.558046 -0.065099
C17   C     C_R   0.448668 0.799093 0.434988 0.316238
C18   C     C_R   0.553484 0.798625 0.558936 0.293783
C19   C     C_R   0.501136 0.838876 0.496886 -0.090844
C20   C     C_R   0.441701 0.961747 0.529546 -0.142534
C21   C     C_R   0.559997 0.961982 0.461433 -0.171848
C22   C     C_R   0.501238 0.499999 0.262118 0.798441
C23   C     C_R   0.501593 0.499922 0.737939 0.822986
C24   C     C_R   0.441051 0.039273 0.527117 -0.170580
C25   C     C_R   0.559657 0.039565 0.460983 -0.163865
C26   C     C_R   0.500088 0.079013 0.493332 0.184108
C27   C     C_R   0.501094 0.921899 0.496315 0.158156
C28   C     C_R   0.457461 0.202403 0.413757 0.309144
C29   C     C_R   0.542517 0.200294 0.578952 0.294109
C30   C     C_R   0.457627 0.280140 0.419776 -0.041503
C31   C     C_R   0.542271 0.278040 0.578351 -0.042450
C32   C     C_R   0.500011 0.161551 0.495095 -0.103501
C33   C     C_R   0.514625 0.565547 0.064193 -0.035665
C34   C     C_R   0.514047 0.565646 0.936581 -0.071154
C35   C     C_R   0.508489 0.499537 0.129517 -0.116203
C36   C     C_R   0.508724 0.499576 0.870888 -0.061244
C37   C     C_R   0.512614 0.432409 0.064923 -0.198161
C38   C     C_R   0.512916 0.432447 0.936156 -0.217678
C39   C     C_3   0.474336 0.637082 0.929121 0.235119
C40   C     C_3   0.473534 0.635958 0.071413 0.212444
C41   C     C_R   0.745393 0.433917 0.498312 -0.212372
C42   C     C_R   0.254755 0.434052 0.506169 -0.224426
C43   C     C_R   0.817152 0.434740 0.499690 -0.159558
C44   C     C_R   0.183034 0.435041 0.510518 -0.183678
C45   C     C_R   0.852664 0.501937 0.503843 0.087289
C46   C     C_R   0.147564 0.502383 0.514258 0.088993
Cu1   Cu    Cu3+1 0.500000 0.573360 0.500000 0.952175
Cu2   Cu    Cu3+1 0.500000 0.426640 0.500000 0.929312
H1    H     H_    0.512047 0.379890 0.113081 0.162486
H2    H     H_    0.512704 0.379983 0.888383 0.156099
H3    H     H_    0.407921 0.690691 0.394901 0.139608
H4    H     H_    0.592772 0.689963 0.602976 0.149712
H5    H     H_    0.395773 0.932826 0.558526 0.177293
H6    H     H_    0.606210 0.933260 0.433266 0.176196
H7    H     H_    0.394724 0.068391 0.553679 0.153270
H8    H     H_    0.605790 0.068942 0.434296 0.154763
H9    H     H_    0.424092 0.311805 0.359521 0.143860
H10   H     H_    0.575746 0.307780 0.641208 0.147809
H11   H     H_    0.506413 0.682038 0.889933 0.101779
H12   H     H_    0.422416 0.626523 0.113761 0.088157
H13   H     H_    0.719053 0.381267 0.495453 0.167731
H14   H     H_    0.281080 0.381345 0.502801 0.169626
H15   H     H_    0.845147 0.382961 0.497822 0.163162
H16   H     H_    0.155014 0.383357 0.509044 0.164671
H17   H     H_    0.716382 0.619753 0.505126 0.180766
H18   H     H_    0.283680 0.619834 0.509404 0.183994
H19   H     H_    0.062170 0.536920 0.698761 0.177857
H20   H     H_    0.935755 0.537198 0.694296 0.175771
N1    N     N_R   0.500000 0.683620 0.500000 -0.212204
N2    N     N_R   0.500000 0.316380 0.500000 -0.214243
O1    O     O_R   0.400190 0.561980 0.499980 -0.582886
O2    O     O_R   0.599810 0.561980 0.500020 -0.600223
O3    O     O_R   0.400190 0.438070 0.500040 -0.582493
O4    O     O_R   0.599810 0.438070 0.499960 -0.580465
O5    O     O_R   0.500000 0.561960 0.319660 -0.568740
O6    O     O_R   0.500000 0.561960 0.680340 -0.548304
O7    O     O_R   0.500000 0.438060 0.319720 -0.589064
O8    O     O_R   0.500000 0.438060 0.680280 -0.597192
O9    O     O_3   0.395044 0.836790 0.377338 -0.615671
C47   C     C_3   0.398295 0.828515 0.247519 0.087146
H21   H     H_    0.347555 0.845893 0.208949 0.175470
H22   H     H_    0.405322 0.770080 0.219165 0.161905
C48   C     C_3   0.454225 0.878122 0.191601 -0.332098
H23   H     H_    0.447271 0.935662 0.224780 0.232594
H24   H     H_    0.506004 0.858472 0.221699 0.214385
C49   C     C_3   0.450856 0.877845 0.050632 -0.914531
H25   H     H_    0.458181 0.821039 0.014741 0.280985
H26   H     H_    0.492174 0.913642 0.013322 0.245980
H27   H     H_    0.400323 0.899508 0.017832 0.259511
O10   O     O_3   0.609112 0.835176 0.610769 -0.605191
C50   C     C_3   0.605883 0.830686 0.740765 0.054424
H28   H     H_    0.610349 0.772360 0.772837 0.124966
H29   H     H_    0.556633 0.854846 0.774578 0.143798
C51   C     C_3   0.666074 0.874603 0.795036 -0.282682
H30   H     H_    0.715350 0.852374 0.758826 0.241741
H31   H     H_    0.661591 0.933230 0.765697 0.217822
C52   C     C_3   0.667838 0.870523 0.935739 -0.955938
H32   H     H_    0.618197 0.889789 0.974525 0.252453
H33   H     H_    0.709798 0.906294 0.971772 0.270551
H34   H     H_    0.678109 0.812924 0.966095 0.255972
O11   O     O_3   0.414735 0.166384 0.330625 -0.603399
C53   C     C_3   0.440980 0.173143 0.209248 0.058529
H35   H     H_    0.446228 0.116593 0.170905 0.173331
H36   H     H_    0.493167 0.199098 0.203905 0.115732
C54   C     C_3   0.390107 0.216692 0.128207 -0.323361
H37   H     H_    0.339260 0.188503 0.128031 0.234929
H38   H     H_    0.383121 0.273013 0.166271 0.204355
C55   C     C_3   0.415522 0.223378 0.995590 -0.950683
H39   H     H_    0.466491 0.251179 0.993561 0.245478
H40   H     H_    0.378340 0.256700 0.940230 0.263666
H41   H     H_    0.419900 0.167888 0.953097 0.258063
O12   O     O_3   0.586100 0.162330 0.658294 -0.605238
C56   C     C_3   0.552196 0.151388 0.771859 0.057171
H42   H     H_    0.497617 0.133278 0.758466 0.136974
H43   H     H_    0.553018 0.203613 0.825853 0.139283
C57   C     C_3   0.590055 0.091090 0.844598 -0.288098
H44   H     H_    0.588597 0.039030 0.790612 0.223687
H45   H     H_    0.644798 0.107336 0.858545 0.227537
C58   C     C_3   0.557180 0.077498 0.970157 -0.968518
H46   H     H_    0.558424 0.128727 0.026203 0.256373
H47   H     H_    0.586247 0.033749 0.020417 0.262934
H48   H     H_    0.502986 0.059008 0.958266 0.256450
O13   O     O_3   0.410295 0.632934 0.863693 -0.585785
C59   C     C_3   0.359945 0.585942 0.915925 0.032992
H49   H     H_    0.325936 0.619720 0.975394 0.155253
H50   H     H_    0.381933 0.539594 0.971149 0.129709
C60   C     C_3   0.316996 0.552733 0.811389 -0.272556
H51   H     H_    0.295825 0.597927 0.752721 0.243058
H52   H     H_    0.350838 0.517414 0.754293 0.207868
C61   C     C_3   0.257624 0.505947 0.859357 -0.930287
H53   H     H_    0.276952 0.462912 0.924340 0.254865
H54   H     H_    0.231319 0.478392 0.780600 0.270029
H55   H     H_    0.219474 0.541424 0.906530 0.267336
O14   O     O_3   0.506411 0.697013 0.130183 -0.622686
C62   C     C_3   0.577735 0.705923 0.107017 0.037101
H56   H     H_    0.586208 0.765487 0.088719 0.166425
H57   H     H_    0.597082 0.675896 0.024959 0.115997
C63   C     C_3   0.619754 0.683854 0.221542 -0.291660
H58   H     H_    0.598649 0.712016 0.304008 0.233517
H59   H     H_    0.616256 0.623268 0.235959 0.228460
C64   C     C_3   0.695327 0.705049 0.207730 -0.913475
H60   H     H_    0.716615 0.680382 0.122440 0.255445
H61   H     H_    0.725378 0.684398 0.288475 0.281852
H62   H     H_    0.700635 0.766044 0.202873 0.265223
Br1   Br    Br    0.861363 0.662906 0.505151 -0.528907
Br2   Br    Br    0.139164 0.663428 0.522447 -0.524043
O15   O     O_3   0.929272 0.456597 0.294112 -0.591008
C65   C     C_3   0.912760 0.517113 0.216273 0.072119
H63   H     H_    0.951277 0.519796 0.141205 0.159019
H64   H     H_    0.912242 0.571581 0.264607 0.153330
C66   C     C_3   0.841515 0.504679 0.158798 -0.320868
H65   H     H_    0.839895 0.449709 0.113490 0.234073
H66   H     H_    0.802040 0.505662 0.232591 0.229360
C67   C     C_3   0.824338 0.564078 0.063095 -0.913129
H67   H     H_    0.827932 0.619733 0.105367 0.269183
H68   H     H_    0.771074 0.555757 0.027504 0.256819
H69   H     H_    0.860606 0.560840 0.984429 0.260760
O16   O     O_3   0.072333 0.461828 0.293947 -0.592195
C68   C     C_3   0.101005 0.524685 0.235149 0.068521
H70   H     H_    0.101658 0.575341 0.293582 0.169338
H71   H     H_    0.069691 0.538266 0.151865 0.135282
C69   C     C_3   0.174406 0.506744 0.193715 -0.317796
H72   H     H_    0.201752 0.474575 0.266313 0.246171
H73   H     H_    0.172298 0.472164 0.109129 0.213369
C70   C     C_3   0.215806 0.576571 0.167950 -0.930546
H74   H     H_    0.191098 0.609300 0.092779 0.262739
H75   H     H_    0.268734 0.560877 0.140330 0.239899
H76   H     H_    0.219628 0.611150 0.252223 0.282151

loop_
_geom_bond_atom_site_label_1
_geom_bond_atom_site_label_2
_ccdc_geom_bond_type
C62   C63   S    
C26   C32   S    
C70   H74   S    
C40   H12   S    
C1    C8    S    
C55   H39   S    
C29   O12   S    
C2    C7    S    
C65   C66   S    
C41   H13   S    
C23   O6    A    
C52   H32   S    
C43   H15   S    
O13   C59   S    
C4    C46   A    
C44   H16   S    
C24   H7    S    
C22   C35   S    
C54   H38   S    
O11   C53   S    
C31   H10   S    
C35   C37   A    
C8    C42   A    
Cu1   O6    S    
C69   H72   S    
C29   C32   A    
C64   H61   S    
C68   H70   S    
C21   H6    S    
C53   H36   S    
C49   H26   S    
C30   H9    S    
C17   O9    S    
C39   O13   S    
C57   H44   S    
C53   C54   S    
C62   H57   S    
C18   C19   A    
C66   C67   S    
Cu2   O8    S    
Cu1   N1    S    
O15   C65   S    
C30   N2    A    
C28   O11   S    
C31   N2    A    
C20   C24   A    
C55   H40   S    
C66   H65   S    
C25   H8    S    
C15   H3    S    
C19   C27   S    
C9    C10   A    
C42   H14   S    
C67   H68   S    
C2    O4    A    
C56   C57   S    
C62   H56   S    
C21   C27   A    
C4    Br2   S    
C70   H75   S    
C13   C14   A    
C66   H66   S    
C41   C43   A    
C51   H30   S    
C42   C44   A    
C22   O5    A    
C47   C48   S    
C2    O2    A    
O12   C56   S    
C52   H33   S    
C44   C46   A    
C69   H73   S    
C58   H47   S    
C15   N1    A    
C54   C55   S    
C33   C40   S    
C34   C39   S    
C18   O10   S    
Cu1   Cu2   S    
Cu2   O4    S    
C28   C32   A    
C65   H63   S    
C67   H69   S    
C4    C6    A    
C63   H58   S    
C64   H62   S    
Cu2   N2    S    
C50   H28   S    
C5    C7    A    
C49   H25   S    
C20   H5    S    
C6    C8    A    
C51   C52   S    
C25   C26   A    
C40   O14   S    
C9    O15   S    
C49   H27   S    
Cu2   O7    S    
C61   H54   S    
C60   H52   S    
C37   C38   A    
C50   H29   S    
C69   C70   S    
C37   H1    S    
C48   H23   S    
C39   H11   S    
C68   H71   S    
C33   C34   A    
C68   C69   S    
C1    O1    A    
C51   H31   S    
C43   C45   A    
Cu1   O1    S    
C67   H67   S    
C63   H59   S    
C59   C60   S    
C38   H2    S    
C65   H64   S    
C5    H17   S    
C48   H24   S    
C12   C14   A    
C3    Br1   S    
C70   H76   S    
O16   C68   S    
C61   H55   S    
C17   C19   A    
C60   H51   S    
C39   C40   S    
C52   H34   S    
C59   H50   S    
C56   H42   S    
C13   H19   S    
C58   H48   S    
C15   C17   A    
C21   C25   A    
Cu2   O3    S    
C16   N1    A    
C16   H4    S    
C22   O7    A    
C24   C26   A    
C47   H21   S    
C3    C5    A    
C63   C64   S    
C58   H46   S    
C55   H41   S    
O14   C62   S    
C12   C45   S    
C20   C27   A    
C54   H37   S    
C57   C58   S    
C1    O3    A    
C28   C30   A    
C61   H53   S    
C60   C61   S    
C3    C45   A    
C29   C31   A    
C64   H60   S    
C50   C51   S    
C11   C13   A    
O10   C50   S    
C36   C38   A    
C33   C35   A    
C47   H22   S    
C57   H45   S    
C34   C36   A    
C7    C41   A    
C23   O8    A    
C53   H35   S    
C9    C12   A    
Cu1   O2    S    
C10   C11   A    
Cu1   O5    S    
O9    C47   S    
C10   O16   S    
C6    H18   S    
C48   C49   S    
C16   C18   A    
C23   C36   S    
C14   H20   S    
C11   C46   S    
C59   H49   S    
C56   H43   S    
