data_mof_unit_4590.cif
_audit_creation_date              2012-12-10T17:34:58-0500
_audit_creation_method            fapswitch 2.2
_symmetry_space_group_name_H-M    P1
_symmetry_Int_Tables_number       1
_space_group_crystal_system       triclinic
_cell_length_a                    12.389666
_cell_length_b                    13.163124
_cell_length_c                    13.844336
_cell_angle_alpha                 106.634627
_cell_angle_beta                  73.52487
_cell_angle_gamma                 117.190451
_cell_volume                      1893.09697207

loop_
_atom_site_label
_atom_site_type_symbol
_atom_type_description
_atom_site_fract_x
_atom_site_fract_y
_atom_site_fract_z
_atom_type_partial_charge
C1    C     C_R   0.144419 0.713625 0.506260 0.823498
C2    C     C_1   0.972602 0.505232 0.792094 -0.119840
C3    C     C_R   0.733801 0.979146 0.345231 -0.186224
C4    C     C_R   0.775511 0.162823 0.462806 -0.077465
C5    C     C_R   0.180631 0.921814 0.560978 -0.156154
C6    C     C_R   0.259362 0.039086 0.574100 -0.132129
C7    C     C_R   0.385776 0.073107 0.540660 -0.145442
C8    C     C_R   0.435338 0.989921 0.491587 0.100733
C9    C     C_R   0.353115 0.873724 0.461841 0.097449
C10   C     C_R   0.564027 0.020632 0.463237 0.035278
C11   C     C_R   0.607474 0.944560 0.384399 0.139227
C12   C     C_R   0.983141 0.503378 0.686453 0.875479
C13   C     C_R   0.524185 0.835347 0.344868 -0.228891
C14   C     C_R   0.398964 0.799121 0.384703 -0.186197
C15   C     C_R   0.651392 0.123556 0.510794 0.075458
C16   C     C_R   0.816805 0.089677 0.381383 -0.225634
C17   C     C_R   0.226563 0.837530 0.507146 -0.105706
C18   C     C_R   0.602294 0.608999 0.697249 -0.106052
C19   C     C_R   0.264265 0.370678 0.349158 0.076490
C20   C     C_R   0.368323 0.346458 0.310988 -0.260182
C21   C     C_R   0.460473 0.390189 0.369004 -0.177851
C22   C     C_R   0.448056 0.456460 0.467836 -0.010050
C23   C     C_R   0.856114 0.285882 0.485802 0.817381
C24   C     C_R   0.339399 0.480283 0.504803 0.236254
C25   C     C_R   0.540610 0.502603 0.531016 -0.046285
C26   C     C_R   0.510578 0.548608 0.635508 0.060734
C27   C     C_R   0.391509 0.542748 0.674636 -0.281324
C28   C     C_R   0.323116 0.537942 0.608685 0.170220
C29   C     C_R   0.661164 0.504773 0.496177 0.001945
C30   C     C_R   0.723688 0.622870 0.653514 0.319303
C31   C     C_R   0.016384 0.495892 0.313444 0.786698
C32   C     C_1   0.027927 0.495334 0.207884 -0.171243
C33   C     C_2   0.045363 0.496029 0.014031 -0.153476
C34   C     C_2   0.957350 0.507153 0.986104 -0.153130
C35   C     C_1   0.964786 0.506429 0.880789 0.032247
C36   C     C_1   0.036946 0.495471 0.119257 0.005946
Cu1   Cu    Cu3+1 0.899780 0.525060 0.522890 0.981186
Cu2   Cu    Cu3+1 0.100220 0.474940 0.477110 0.955614
H1    H     H_    0.879037 0.516163 0.042006 0.156998
H2    H     H_    0.338384 0.714720 0.349777 0.165534
H3    H     H_    0.365376 0.572367 0.755659 0.182831
H4    H     H_    0.686708 0.460372 0.420933 0.130324
H5    H     H_    0.194018 0.336011 0.302624 0.130922
H6    H     H_    0.538621 0.367884 0.336282 0.135892
H7    H     H_    0.377677 0.293631 0.235769 0.149161
H8    H     H_    0.123682 0.486964 0.958146 0.160554
H9    H     H_    0.912733 0.118982 0.344242 0.158844
H10   H     H_    0.556065 0.777044 0.283836 0.142124
H11   H     H_    0.767625 0.922787 0.283475 0.145125
H12   H     H_    0.083719 0.897355 0.593002 0.184217
H13   H     H_    0.443639 0.165137 0.549574 0.163356
H14   H     H_    0.222660 0.103778 0.612489 0.154164
N1    N     N_R   0.748810 0.563010 0.557590 -0.201377
N2    N     N_R   0.250540 0.437620 0.443020 -0.201389
O1    O     O_R   0.025040 0.682470 0.528790 -0.559048
O2    O     O_R   0.194310 0.640150 0.490130 -0.558353
O3    O     O_R   0.903380 0.524130 0.659910 -0.543088
O4    O     O_R   0.072660 0.481800 0.621240 -0.566870
O5    O     O_R   0.805690 0.359850 0.509870 -0.560746
O6    O     O_R   0.974960 0.317530 0.471210 -0.588306
O7    O     O_R   0.927340 0.518200 0.378760 -0.580973
O8    O     O_R   0.096620 0.475870 0.340090 -0.600194
I1    I     I_    0.867035 0.746124 0.737209 -0.354248
C37   C     C_R   0.574097 0.663255 0.805639 0.096414
C38   C     C_R   0.563482 0.769816 0.829644 -0.104556
C39   C     C_R   0.535812 0.819986 0.931970 -0.107992
C40   C     C_R   0.518793 0.764234 0.010663 -0.114985
C41   C     C_R   0.529350 0.658159 0.987134 -0.135173
C42   C     C_R   0.556889 0.607619 0.884897 -0.113540
H15   H     H_    0.576467 0.813565 0.769175 0.162679
H16   H     H_    0.527562 0.902066 0.950264 0.143087
H17   H     H_    0.497449 0.803194 0.089844 0.129508
H18   H     H_    0.516122 0.615101 0.048129 0.129369
H19   H     H_    0.564709 0.525335 0.867376 0.147911
I2    I     I_    0.306604 0.700194 0.664741 -0.358134
I3    I     I_    0.611461 0.200915 0.668888 -0.387906

loop_
_geom_bond_atom_site_label_1
_geom_bond_atom_site_label_2
_ccdc_geom_bond_type
C2    C35   T    
C29   H4    S    
C31   O7    A    
C19   C20   A    
C18   C26   A    
C2    C12   S    
C3    H11   S    
C12   O4    A    
C23   O5    A    
C26   C27   A    
C32   C36   T    
C1    O2    A    
C34   C35   S    
C10   C15   A    
C5    C6    A    
C5    C17   A    
C24   N2    A    
C38   H15   S    
C33   C36   S    
C40   H17   S    
Cu2   O4    S    
C31   C32   S    
C8    C9    A    
C22   C25   A    
C18   C30   A    
C20   H7    S    
Cu1   N1    S    
C15   I3    S    
C13   C14   A    
C33   H8    S    
C31   O8    A    
C16   H9    S    
C19   H5    S    
C25   C29   A    
C23   O6    A    
C30   N1    A    
C40   C41   A    
C7    C8    A    
C4    C23   S    
C41   C42   A    
C41   H18   S    
C34   H1    S    
C4    C16   A    
C9    C14   A    
Cu1   Cu2   S    
C21   H6    S    
C27   H3    S    
C39   H16   S    
Cu2   N2    S    
C33   C34   D    
C42   H19   S    
C37   C42   A    
Cu1   O5    S    
Cu2   O6    S    
C12   O3    A    
C19   N2    A    
C9    C17   A    
C22   C24   A    
C5    H12   S    
C24   C28   A    
C13   H10   S    
Cu1   O7    S    
C6    C7    A    
C1    C17   S    
C37   C38   A    
C4    C15   A    
C25   C26   A    
C7    H13   S    
C11   C13   A    
C18   C37   S    
C29   N1    A    
C30   I1    S    
C39   C40   A    
C1    O1    A    
C3    C11   A    
C10   C11   A    
C14   H2    S    
Cu1   O1    S    
Cu2   O2    S    
C20   C21   A    
C8    C10   A    
C38   C39   A    
C27   C28   A    
C6    H14   S    
C21   C22   A    
C28   I2    S    
Cu1   O3    S    
C3    C16   A    
Cu2   O8    S    
