data_mof_unit_1997.cif
_audit_creation_date              2012-12-10T19:12:19-0500
_audit_creation_method            fapswitch 2.2
_symmetry_space_group_name_H-M    P1
_symmetry_Int_Tables_number       1
_space_group_crystal_system       triclinic
_cell_length_a                    7.79417
_cell_length_b                    9.077956
_cell_length_c                    17.046045
_cell_angle_alpha                 89.58081
_cell_angle_beta                  94.051748
_cell_angle_gamma                 90.084888
_cell_volume                      1203.04794358

loop_
_atom_site_label
_atom_site_type_symbol
_atom_type_description
_atom_site_fract_x
_atom_site_fract_y
_atom_site_fract_z
_atom_type_partial_charge
C1    C     C_R   0.499880 0.220081 0.499821 0.835946
C2    C     C_R   0.500120 0.779918 0.500179 0.835933
C3    C     C_R   0.521333 0.496522 0.650921 0.832519
C4    C     C_R   0.478668 0.503486 0.349080 0.832552
C5    C     C_R   0.533889 0.484701 0.736564 -0.070747
C6    C     C_R   0.466109 0.515363 0.263442 -0.070723
C7    C     C_R   0.508782 0.611169 0.781381 0.086337
C8    C     C_R   0.490779 0.388854 0.218595 0.086427
C9    C     C_R   0.511340 0.598387 0.862833 -0.193471
C10   C     C_R   0.488183 0.401675 0.137143 -0.193507
C11   C     C_R   0.536932 0.460925 0.900815 0.292111
C12   C     C_R   0.463008 0.539210 0.099196 0.292118
C13   C     C_R   0.568078 0.334204 0.856249 0.165413
C14   C     C_R   0.432304 0.665986 0.143791 0.165520
C15   C     C_R   0.565620 0.345885 0.773156 0.093827
C16   C     C_R   0.434796 0.654268 0.226882 0.093844
C17   C     C_1   0.499884 0.065411 0.499932 -0.176785
C18   C     C_1   0.500116 0.934589 0.500067 -0.176784
Cu1   Cu    Cu3+1 0.669080 0.500010 0.500000 0.997743
Cu2   Cu    Cu3+1 0.330920 0.499990 0.500000 0.997750
H1    H     H_    0.506593 0.303329 0.103148 0.169123
H2    H     H_    0.492576 0.696710 0.896798 0.169101
N1    N     N_1   0.076820 0.499970 0.500010 -0.046304
N2    N     N_1   0.923180 0.500030 0.499990 -0.046304
N3    N     N_2   0.533102 0.446880 0.983801 -0.242062
N4    N     N_2   0.466822 0.553272 0.016211 -0.242082
O1    O     O_R   0.642760 0.288400 0.500000 -0.578533
O2    O     O_R   0.357240 0.711600 0.500000 -0.578542
O3    O     O_R   0.357190 0.288380 0.500000 -0.577050
O4    O     O_R   0.642810 0.711620 0.500000 -0.577057
O5    O     O_R   0.658410 0.498660 0.613920 -0.580680
O6    O     O_R   0.341590 0.501340 0.386080 -0.580656
O7    O     O_R   0.372840 0.498650 0.613930 -0.579035
O8    O     O_R   0.627160 0.501350 0.386070 -0.579022
C19   C     C_3   0.519825 0.239639 0.256986 -0.849049
H3    H     H_    0.408848 0.210644 0.291536 0.227316
H4    H     H_    0.534145 0.151656 0.212976 0.225906
H5    H     H_    0.638762 0.241718 0.296850 0.242853
C20   C     C_3   0.479339 0.760302 0.742956 -0.848904
H6    H     H_    0.590264 0.789495 0.708413 0.227207
H7    H     H_    0.360427 0.757952 0.703081 0.242960
H8    H     H_    0.464757 0.848277 0.786944 0.225943
C21   C     C_3   0.600397 0.186847 0.897055 -0.838129
H9    H     H_    0.728207 0.143966 0.883443 0.235011
H10   H     H_    0.600529 0.192225 0.961979 0.239584
H11   H     H_    0.498476 0.107368 0.876887 0.226748
C22   C     C_3   0.400452 0.813441 0.103019 -0.838238
H12   H     H_    0.272806 0.856640 0.116661 0.234971
H13   H     H_    0.502634 0.892668 0.123198 0.226781
H14   H     H_    0.400266 0.808092 0.038093 0.239582
C23   C     C_3   0.592542 0.212678 0.721958 -0.838274
H15   H     H_    0.615662 0.108436 0.754914 0.238505
H16   H     H_    0.476896 0.195725 0.681132 0.221286
H17   H     H_    0.705606 0.231490 0.687035 0.239796
C24   C     C_3   0.408344 0.787521 0.278111 -0.838376
H18   H     H_    0.385486 0.891811 0.245173 0.238501
H19   H     H_    0.295281 0.768956 0.313067 0.239679
H20   H     H_    0.524088 0.804219 0.318908 0.221420

loop_
_geom_bond_atom_site_label_1
_geom_bond_atom_site_label_2
_ccdc_geom_bond_type
C6    C8    A    
C21   H9    S    
C5    C7    A    
C14   C22   S    
C15   C23   S    
C20   H8    S    
C21   H10   S    
C1    C17   S    
Cu1   Cu2   S    
Cu2   N1    S    
C13   C21   S    
C2    O4    A    
C23   H17   S    
Cu1   O5    S    
C24   H18   S    
C1    O3    A    
C17   C18   T    
C16   C24   S    
C22   H13   S    
C24   H19   S    
C3    O5    A    
C9    C11   A    
C4    O6    A    
C10   C12   A    
Cu2   O7    S    
C7    C20   S    
C8    C10   A    
C19   H4    S    
C12   C14   A    
Cu1   N2    S    
C22   H14   S    
C4    O8    A    
Cu2   O3    S    
C13   C15   A    
C10   H1    S    
C21   H11   S    
C14   C16   A    
C9    H2    S    
C5    C15   A    
C4    C6    S    
C2    C18   S    
C3    O7    A    
N1    N2    T    
C6    C16   A    
C23   H15   S    
C7    C9    A    
C11   C13   A    
C19   H5    S    
Cu1   O1    S    
C20   H7    S    
Cu2   O6    S    
C24   H20   S    
C20   H6    S    
C1    O1    A    
C11   N3    S    
C2    O2    A    
C19   H3    S    
Cu2   O2    S    
C3    C5    S    
N3    N4    D    
Cu1   O4    S    
Cu1   O8    S    
C22   H12   S    
C12   N4    S    
C23   H16   S    
C8    C19   S    
