data_mof_unit_4662.cif
_audit_creation_date              2012-12-10T19:50:17-0500
_audit_creation_method            fapswitch 2.2
_symmetry_space_group_name_H-M    P1
_symmetry_Int_Tables_number       1
_space_group_crystal_system       triclinic
_cell_length_a                    10.875181
_cell_length_b                    19.41618
_cell_length_c                    18.086271
_cell_angle_alpha                 85.365572
_cell_angle_beta                  90.454478
_cell_angle_gamma                 91.164376
_cell_volume                      3805.64900429

loop_
_atom_site_label
_atom_site_type_symbol
_atom_type_description
_atom_site_fract_x
_atom_site_fract_y
_atom_site_fract_z
_atom_type_partial_charge
C1    C     C_R   0.500569 0.366441 0.503424 0.806736
C2    C     C_R   0.495715 0.633183 0.496839 0.788148
C3    C     C_R   0.871082 0.496460 0.501776 -0.108069
C4    C     C_R   0.127861 0.501405 0.498128 -0.095468
C5    C     C_R   0.938808 0.467232 0.563018 -0.017407
C6    C     C_R   0.059010 0.529602 0.436601 -0.012865
C7    C     C_R   0.469854 0.244497 0.574835 0.067340
C8    C     C_R   0.434969 0.749737 0.428530 0.075190
C9    C     C_R   0.460064 0.171270 0.567044 0.112636
C10   C     C_R   0.430998 0.823351 0.428744 0.094919
C11   C     C_R   0.511149 0.144836 0.503257 0.014790
C12   C     C_R   0.490094 0.856035 0.487284 0.014080
C13   C     C_R   0.561386 0.188861 0.446597 -0.191150
C14   C     C_R   0.546442 0.816224 0.545271 -0.187942
C15   C     C_R   0.555761 0.259600 0.448972 -0.174650
C16   C     C_R   0.544288 0.744686 0.547398 -0.208916
C17   C     C_R   0.508042 0.289058 0.510634 -0.075979
C18   C     C_R   0.490618 0.710125 0.489873 -0.083352
C19   C     C_R   0.496470 0.931829 0.489403 0.390039
C20   C     C_R   0.508599 0.070841 0.492796 0.382227
C21   C     C_R   0.585173 0.536711 0.271982 0.578986
C22   C     C_R   0.413637 0.464812 0.728178 0.571709
C23   C     C_R   0.261838 0.501751 0.499258 0.795546
C24   C     C_R   0.737728 0.497732 0.500729 0.829875
C25   C     C_R   0.584441 0.532742 0.195096 -0.263633
C26   C     C_R   0.416917 0.467613 0.805187 -0.268997
C27   C     C_R   0.499053 0.491028 0.160355 -0.071325
C28   C     C_R   0.508885 0.504874 0.840242 -0.070592
C29   C     C_R   0.416640 0.449385 0.206589 -0.006237
C30   C     C_R   0.596591 0.542838 0.793995 0.000923
C31   C     C_R   0.418624 0.456535 0.284556 0.007664
C32   C     C_R   0.589226 0.538407 0.715652 0.026210
C33   C     C_R   0.507190 0.502465 0.924211 0.434195
C34   C     C_R   0.501694 0.492443 0.076648 0.434129
C35   C     C_R   0.116809 0.664870 0.278414 -0.124313
C36   C     C_R   0.765657 0.335178 0.692980 -0.131076
C37   C     C_R   0.101329 0.636516 0.351534 0.398938
C38   C     C_R   0.815938 0.366745 0.627356 0.453199
C39   C     C_R   0.111321 0.563976 0.367671 0.021010
C40   C     C_R   0.880473 0.431080 0.629518 0.025221
C41   C     C_R   0.138415 0.522473 0.310147 -0.139011
C42   C     C_R   0.894050 0.460789 0.697503 -0.182372
C43   C     C_R   0.155788 0.551880 0.237896 -0.142401
C44   C     C_R   0.843404 0.428355 0.762188 -0.121191
C45   C     C_R   0.143837 0.622834 0.221919 -0.206094
C46   C     C_R   0.779110 0.365752 0.759918 -0.216488
C47   C     C_R   0.931758 0.526688 0.439575 -0.196677
C48   C     C_R   0.066668 0.470868 0.560693 -0.221089
Cu1   Cu    Cu3+1 0.499990 0.499980 0.573360 0.939408
Cu2   Cu    Cu3+1 0.500010 0.500020 0.426640 0.932251
H1    H     H_    0.155598 0.645341 0.165639 0.153660
H2    H     H_    0.740844 0.340478 0.810335 0.150410
H3    H     H_    0.590239 0.291785 0.401598 0.162394
H4    H     H_    0.588057 0.716085 0.594023 0.151765
H5    H     H_    0.650907 0.563984 0.162238 0.183451
H6    H     H_    0.347644 0.438423 0.837881 0.181223
H7    H     H_    0.356572 0.426291 0.320936 0.143513
H8    H     H_    0.654444 0.566088 0.679188 0.145003
H9    H     H_    0.107680 0.719952 0.265330 0.146742
H10   H     H_    0.717516 0.285908 0.692246 0.154143
H11   H     H_    0.139674 0.466849 0.320760 0.127464
H12   H     H_    0.944447 0.509202 0.700332 0.145433
H13   H     H_    0.174582 0.519442 0.193706 0.150383
H14   H     H_    0.854679 0.451586 0.814265 0.147123
H15   H     H_    0.879501 0.549426 0.392741 0.196795
H16   H     H_    0.118585 0.447920 0.607482 0.192203
H17   H     H_    0.599701 0.168212 0.398032 0.146908
H18   H     H_    0.591001 0.840841 0.590333 0.155335
N1    N     N_R   0.610679 0.032657 0.505866 -0.225627
N2    N     N_R   0.394514 0.970287 0.477211 -0.250698
N3    N     N_R   0.604795 0.964247 0.503905 -0.233935
N4    N     N_R   0.400444 0.038591 0.478385 -0.244593
N5    N     N_R   0.500010 0.500050 0.316380 -0.233621
N6    N     N_R   0.499990 0.499950 0.683620 -0.232825
N7    N     N_R   0.398045 0.482297 0.036095 -0.256743
N8    N     N_R   0.610833 0.512526 0.964845 -0.259400
N9    N     N_R   0.400914 0.486812 0.961968 -0.240336
N10   N     N_R   0.607991 0.508095 0.038979 -0.238732
O1    O     O_R   0.500010 0.400130 0.561970 -0.615070
O2    O     O_R   0.499990 0.599870 0.438030 -0.611777
O3    O     O_R   0.500020 0.400160 0.438070 -0.584960
O4    O     O_R   0.499980 0.599840 0.561930 -0.578593
O5    O     O_R   0.319640 0.499990 0.561950 -0.580227
O6    O     O_R   0.680360 0.500010 0.438050 -0.585208
O7    O     O_R   0.319650 0.500020 0.438050 -0.591968
O8    O     O_R   0.680350 0.499980 0.561950 -0.585105
O9    O     O_3   0.675114 0.578310 0.299736 -0.763264
H19   H     H_    0.651711 0.588461 0.349812 0.357630
O10   O     O_3   0.320700 0.425621 0.700177 -0.773297
H20   H     H_    0.347102 0.412609 0.651675 0.352530
C49   C     C_3   0.333352 0.396000 0.172794 -0.386477
C50   C     C_3   0.272546 0.341649 0.228166 -0.391157
C51   C     C_3   0.203130 0.286510 0.187936 -0.813682
H21   H     H_    0.130412 0.310516 0.151491 0.256415
H22   H     H_    0.267353 0.258714 0.153893 0.251969
H23   H     H_    0.159078 0.248516 0.229203 0.243349
H24   H     H_    0.343874 0.316018 0.264537 0.226214
H25   H     H_    0.205731 0.366746 0.262936 0.209543
H26   H     H_    0.260037 0.423159 0.139616 0.213765
H27   H     H_    0.389876 0.367810 0.134558 0.219557
C52   C     C_3   0.693260 0.588745 0.828178 -0.380034
C53   C     C_3   0.767145 0.637818 0.773350 -0.396896
C54   C     C_3   0.853930 0.684724 0.814222 -0.814240
H28   H     H_    0.800928 0.717297 0.849849 0.253312
H29   H     H_    0.919875 0.653322 0.849186 0.256584
H30   H     H_    0.906658 0.719120 0.773333 0.243518
H31   H     H_    0.823462 0.607468 0.737202 0.215134
H32   H     H_    0.703333 0.670705 0.738305 0.219995
H33   H     H_    0.645742 0.621135 0.866669 0.219692
H34   H     H_    0.759074 0.555244 0.860773 0.216091
O11   O     O_3   0.073171 0.680937 0.404575 -0.764181
H35   H     H_    0.080213 0.656345 0.454497 0.324313
O12   O     O_3   0.801779 0.332275 0.563841 -0.755217
H36   H     H_    0.850134 0.356129 0.523048 0.317254
C55   C     C_3   0.436189 0.277524 0.646594 -0.399143
C56   C     C_3   0.443503 0.235997 0.722761 -0.391290
C57   C     C_3   0.444242 0.282901 0.786794 -0.838211
H37   H     H_    0.521513 0.321086 0.781587 0.251017
H38   H     H_    0.356085 0.310603 0.787910 0.286480
H39   H     H_    0.454753 0.251105 0.840231 0.239435
H40   H     H_    0.360662 0.202504 0.732008 0.243117
H41   H     H_    0.529014 0.205480 0.726612 0.222031
H42   H     H_    0.505453 0.318551 0.653765 0.246833
H43   H     H_    0.343491 0.299853 0.639166 0.193677
C58   C     C_3   0.385369 0.715620 0.361273 -0.393707
C59   C     C_3   0.483480 0.717851 0.300469 -0.331078
C60   C     C_3   0.434676 0.687533 0.230634 -0.814454
H44   H     H_    0.509691 0.686712 0.189457 0.247563
H45   H     H_    0.359331 0.719679 0.205760 0.241186
H46   H     H_    0.399816 0.633930 0.243941 0.266160
H47   H     H_    0.516127 0.771596 0.285349 0.207275
H48   H     H_    0.564730 0.689250 0.321603 0.248109
H49   H     H_    0.351201 0.662313 0.375515 0.222292
H50   H     H_    0.302007 0.741529 0.339024 0.205928
C61   C     C_3   0.388574 0.121058 0.621403 -0.400371
C62   C     C_3   0.250164 0.135632 0.618563 -0.336002
C63   C     C_3   0.179696 0.087903 0.675289 -0.831901
H51   H     H_    0.191809 0.033035 0.664110 0.260577
H52   H     H_    0.212809 0.095746 0.732308 0.246082
H53   H     H_    0.080194 0.099560 0.671642 0.250642
H54   H     H_    0.232341 0.189982 0.629134 0.222628
H55   H     H_    0.214147 0.127339 0.562195 0.235196
H56   H     H_    0.397824 0.066480 0.609689 0.211135
H57   H     H_    0.428392 0.118493 0.677558 0.179963
C64   C     C_3   0.364950 0.867001 0.366858 -0.428360
C65   C     C_3   0.227207 0.872145 0.383773 -0.310717
C66   C     C_3   0.161635 0.916967 0.323149 -0.821438
H58   H     H_    0.201837 0.970187 0.318789 0.262508
H59   H     H_    0.169929 0.894411 0.268924 0.244552
H60   H     H_    0.062589 0.919698 0.336835 0.249723
H61   H     H_    0.182791 0.820022 0.388379 0.240735
H62   H     H_    0.214283 0.894527 0.437648 0.244978
H63   H     H_    0.407569 0.919297 0.357755 0.213397
H64   H     H_    0.375902 0.846566 0.312076 0.192424

loop_
_geom_bond_atom_site_label_1
_geom_bond_atom_site_label_2
_ccdc_geom_bond_type
C58   H50   S    
C38   C40   A    
O9    H19   S    
C21   O9    S    
C51   H21   S    
C21   N5    A    
C2    C18   S    
C19   N3    A    
O11   H35   S    
C41   H11   S    
C33   N9    A    
C64   C65   S    
C50   H25   S    
C61   C62   S    
C39   C41   A    
C44   H14   S    
C63   H52   S    
C52   C53   S    
C56   H41   S    
C15   H3    S    
C66   H59   S    
N8    N10   A    
O12   H36   S    
C57   H38   S    
C13   H17   S    
C31   N5    A    
C27   C29   A    
C45   H1    S    
C1    O3    A    
C55   C56   S    
C46   H2    S    
C56   C57   S    
C12   C19   S    
C35   H9    S    
C23   O5    A    
C7    C55   S    
N1    N3    A    
C50   C51   S    
C62   H55   S    
Cu2   O7    S    
C66   H58   S    
C7    C17   A    
C36   C46   A    
C32   H8    S    
C49   H27   S    
C42   H12   S    
C34   N7    A    
C64   H63   S    
C40   C42   A    
C52   H33   S    
C51   H22   S    
C41   C43   A    
C3    C24   S    
C42   C44   A    
C63   H53   S    
C44   C46   A    
C50   H24   S    
C27   C34   S    
C37   C39   A    
C5    C48   A    
C11   C20   S    
C55   H42   S    
C6    C47   A    
C43   H13   S    
C66   H60   S    
C4    C6    A    
C56   H40   S    
C57   H39   S    
C49   C50   S    
C38   O12   S    
C3    C5    A    
C52   H34   S    
C8    C18   A    
Cu1   O1    S    
Cu2   O2    S    
Cu1   O4    S    
C60   H45   S    
C62   H54   S    
C9    C11   A    
C33   N8    A    
C59   H48   S    
C29   C31   A    
C53   H31   S    
C54   H29   S    
C53   H32   S    
N7    N9    A    
C10   C12   A    
C65   H62   S    
C64   H64   S    
C9    C61   S    
C8    C10   A    
C61   H57   S    
C12   C14   A    
C28   C33   S    
C51   H23   S    
C13   C15   A    
C23   O7    A    
C58   C59   S    
C1    O1    A    
C14   C16   A    
C20   N1    A    
C2    O4    A    
C22   N6    A    
C60   H44   S    
C35   C45   A    
C29   C49   S    
C65   C66   S    
C4    C48   A    
C58   H49   S    
C4    C23   S    
C21   C25   A    
C32   N6    A    
C55   H43   S    
C35   C37   A    
C6    C39   S    
C26   C28   A    
Cu1   O8    S    
C25   H5    S    
C62   C63   S    
C36   H10   S    
C26   H6    S    
C15   C17   A    
C25   C27   A    
C63   H51   S    
C1    C17   S    
C48   H16   S    
Cu1   O5    S    
C28   C30   A    
C24   O6    A    
C60   H46   S    
C43   C45   A    
C57   H37   S    
C34   N10   A    
C36   C38   A    
C30   C32   A    
C11   C13   A    
C31   H7    S    
C59   H47   S    
C59   C60   S    
Cu2   N5    S    
C30   C52   S    
C3    C47   A    
C61   H56   S    
C22   O10   S    
Cu2   O6    S    
C54   H30   S    
C53   C54   S    
C16   H4    S    
C37   O11   S    
C2    O2    A    
C10   C64   S    
C65   H61   S    
C7    C9    A    
C8    C58   S    
C16   C18   A    
Cu1   Cu2   S    
C22   C26   A    
C5    C40   S    
C54   H28   S    
C14   H18   S    
Cu1   N6    S    
C20   N4    A    
C19   N2    A    
N2    N4    A    
C49   H26   S    
O10   H20   S    
C24   O8    A    
C47   H15   S    
Cu2   O3    S    
