data_mof_unit_3462.cif
_audit_creation_date              2012-12-11T17:09:30-0500
_audit_creation_method            fapswitch 2.2
_symmetry_space_group_name_H-M    P1
_symmetry_Int_Tables_number       1
_space_group_crystal_system       monoclinic
_cell_length_a                    14.872061
_cell_length_b                    6.988828
_cell_length_c                    13.425421
_cell_angle_alpha                 90.0
_cell_angle_beta                  99.904582
_cell_angle_gamma                 90.0
_cell_volume                      1374.61725598

loop_
_atom_site_label
_atom_site_type_symbol
_atom_type_description
_atom_site_fract_x
_atom_site_fract_y
_atom_site_fract_z
_atom_type_partial_charge
O1    O     O_R   0.586930 0.505770 0.416350 -0.559741
O2    O     O_R   0.413070 0.005770 0.583650 -0.559741
O3    O     O_R   0.397900 0.173100 0.389630 -0.545946
O4    O     O_R   0.602100 0.673100 0.610370 -0.545946
C1    C     C_R   0.364351 0.345307 0.363092 0.726857
C2    C     C_R   0.635649 0.845307 0.636908 0.726857
O5    O     O_R   0.585280 0.175870 0.404330 -0.488243
O6    O     O_R   0.414720 0.675870 0.595670 -0.488244
O7    O     O_R   0.601790 0.008380 0.598460 -0.532292
O8    O     O_R   0.398210 0.508380 0.401540 -0.532292
C3    C     C_R   0.614667 0.344739 0.383085 0.754592
C4    C     C_R   0.385333 0.844739 0.616915 0.754592
O9    O     O_3   0.505200 0.340120 0.563670 -0.361441
O10   O     O_3   0.494800 0.840120 0.436330 -0.361441
V1    V     V_3+5 0.499040 0.064180 0.488190 1.570705
V2    V     V_3+5 0.500960 0.564180 0.511810 1.570705
C5    C     C_R   0.310269 0.015652 0.746012 -0.054481
C6    C     C_R   0.689731 0.515653 0.253988 -0.054481
C7    C     C_R   0.318320 0.853215 0.687063 -0.262763
C8    C     C_R   0.681680 0.353215 0.312937 -0.262763
C9    C     C_R   0.254531 0.705205 0.689572 0.667849
C10   C     C_R   0.745469 0.205205 0.310428 0.667849
C11   C     C_R   0.190124 0.713961 0.755519 -0.286452
C12   C     C_R   0.809876 0.213961 0.244481 -0.286453
H1    H     H_    0.140772 0.601681 0.755739 0.128958
H2    H     H_    0.859228 0.101682 0.244261 0.128958
C13   C     C_R   0.181494 0.878180 0.812954 -0.157702
C14   C     C_R   0.818506 0.378180 0.187046 -0.157702
C15   C     C_R   0.238751 0.031304 0.801466 0.024919
C16   C     C_R   0.761249 0.531304 0.198534 0.024918
C17   C     C_3   0.212648 0.224488 0.758052 -0.152048
C18   C     C_3   0.787352 0.724488 0.241948 -0.152048
C19   C     C_3   0.296455 0.214781 0.707540 0.580186
C20   C     C_3   0.703546 0.714781 0.292460 0.580186
H3    H     H_    0.218786 0.333283 0.819093 0.165936
H4    H     H_    0.781214 0.833283 0.180907 0.165936
H5    H     H_    0.284129 0.226511 0.623819 0.102373
H6    H     H_    0.715872 0.726510 0.376181 0.102372
C21   C     C_1   0.783699 0.877193 0.782648 -0.173265
C22   C     C_1   0.216301 0.377193 0.217352 -0.173265
C23   C     C_1   0.716324 0.859991 0.716546 -0.154598
C24   C     C_1   0.283676 0.359991 0.283454 -0.154598
O11   O     O_R   0.101720 0.231700 0.098560 -0.535226
O12   O     O_R   0.898280 0.731700 0.901440 -0.535226
O13   O     O_R   0.914700 0.558980 0.095690 -0.543976
O14   O     O_R   0.085300 0.058980 0.904310 -0.543976
C25   C     C_R   0.886933 0.389765 0.118802 0.734466
C26   C     C_R   0.113067 0.889765 0.881197 0.734467
O15   O     O_R   0.102080 0.561590 0.110390 -0.536606
O16   O     O_R   0.897920 0.061590 0.889610 -0.536606
O17   O     O_R   0.086950 0.728940 0.916330 -0.539733
O18   O     O_R   0.913050 0.228940 0.083670 -0.539733
C27   C     C_R   0.135791 0.391988 0.137505 0.732503
C28   C     C_R   0.864209 0.891988 0.862495 0.732503
O19   O     O_3   0.994770 0.394510 0.936380 -0.374741
O20   O     O_3   0.005230 0.894510 0.063620 -0.374741
V3    V     V_3+5 0.000970 0.670520 0.011800 1.417924
V4    V     V_3+5 0.999030 0.170520 0.988200 1.417924
F1    F     F_    0.246873 0.566700 0.618359 -0.725987
F2    F     F_    0.753127 0.066700 0.381641 -0.725987
C29   C     C_3   0.120217 0.235249 0.682316 -0.403736
C30   C     C_3   0.101499 0.076804 0.600863 -0.296002
C31   C     C_3   0.033892 0.143325 0.508624 -0.781915
H7    H     H_    0.966856 0.177258 0.530210 0.244420
H8    H     H_    0.060927 0.271002 0.474388 0.243394
H9    H     H_    0.024139 0.029161 0.450463 0.220987
H10   H     H_    0.164577 0.032526 0.573845 0.182027
H11   H     H_    0.072184 0.949533 0.632767 0.199121
H12   H     H_    0.063186 0.237073 0.725931 0.184426
H13   H     H_    0.117884 0.374102 0.642668 0.235000
C32   C     C_3   0.879783 0.735250 0.317683 -0.403735
C33   C     C_3   0.898502 0.576805 0.399136 -0.296003
C34   C     C_3   0.966110 0.643326 0.491375 -0.781914
H14   H     H_    0.033145 0.677261 0.469788 0.244420
H15   H     H_    0.939075 0.771001 0.525611 0.243394
H16   H     H_    0.975864 0.529160 0.549535 0.220987
H17   H     H_    0.835424 0.532526 0.426154 0.182028
H18   H     H_    0.927817 0.449533 0.367231 0.199121
H19   H     H_    0.936814 0.737075 0.274068 0.184426
H20   H     H_    0.882116 0.874103 0.357331 0.235000
F3    F     F_    0.366251 0.332232 0.754014 -0.649746
F4    F     F_    0.633749 0.832233 0.245987 -0.649746

loop_
_geom_bond_atom_site_label_1
_geom_bond_atom_site_label_2
_ccdc_geom_bond_type
C29   H13   S    
C13   C26   S    
C1    C24   S    
C31   H8    S    
C14   C25   S    
C13   C15   A    
C5    C15   A    
C34   H14   S    
C17   C29   S    
O1    C3    A    
O2    C4    A    
C2    O7    A    
C32   H19   S    
C21   C23   T    
O5    C3    A    
O13   V3    S    
O16   C28   A    
C30   H10   S    
C18   H4    S    
C7    C9    A    
C12   H2    S    
C9    F1    S    
C10   F2    S    
C21   C28   S    
O15   V3    S    
O20   V3    S    
C4    C7    S    
C33   H18   S    
C33   H17   S    
O11   C27   A    
C26   O17   A    
C2    C23   S    
C17   C19   S    
C6    C16   A    
O10   V2    S    
C11   C13   A    
O11   V4    S    
C22   C24   T    
C31   H9    S    
O6    V2    S    
O14   V4    S    
C34   H15   S    
C5    C19   S    
C32   H20   S    
C18   C32   S    
O13   C25   A    
C9    C11   A    
O14   C26   A    
C3    C8    S    
O16   V4    S    
O4    C2    A    
C19   H5    S    
C18   C20   S    
O4    V2    S    
C30   C31   S    
O9    V1    S    
O12   V3    S    
O6    C4    A    
O1    V2    S    
O2    V1    S    
C6    C20   S    
O18   V4    S    
O17   V3    S    
C8    C10   A    
O19   V3    S    
C34   H16   S    
C10   C12   A    
O9    V2    S    
O3    V1    S    
C29   H12   S    
C20   H6    S    
C12   C14   A    
C33   C34   S    
O3    C1    A    
C25   O18   A    
C30   H11   S    
C14   C16   A    
O7    V1    S    
C1    O8    A    
C15   C17   S    
O8    V2    S    
C16   C18   S    
O15   C27   A    
C17   H3    S    
O5    V1    S    
C5    C7    A    
O20   V4    S    
C6    C8    A    
C11   H1    S    
C29   C30   S    
C31   H7    S    
O12   C28   A    
C32   C33   S    
C22   C27   S    
O19   V4    S    
O10   V1    S    
C20   F4    S    
C19   F3    S    
