data_mof_unit_4605.cif
_audit_creation_date              2012-12-10T17:07:45-0500
_audit_creation_method            fapswitch 2.2
_symmetry_space_group_name_H-M    P1
_symmetry_Int_Tables_number       1
_space_group_crystal_system       triclinic
_cell_length_a                    10.647247
_cell_length_b                    10.700934
_cell_length_c                    10.047394
_cell_angle_alpha                 86.12558
_cell_angle_beta                  89.723101
_cell_angle_gamma                 90.241064
_cell_volume                      1142.11331665

loop_
_atom_site_label
_atom_site_type_symbol
_atom_type_description
_atom_site_fract_x
_atom_site_fract_y
_atom_site_fract_z
_atom_type_partial_charge
C1    C     C_R   0.496123 0.261499 0.505427 0.802207
C2    C     C_3   0.879472 0.497684 0.497172 0.048833
C3    C     C_3   0.932556 0.627426 0.441323 0.124545
C4    C     C_3   0.930343 0.386234 0.418413 0.162338
C5    C     C_2   0.414861 0.935473 0.422484 0.592152
C6    C     C_2   0.507938 0.869022 0.480956 -0.259710
C7    C     C_2   0.431992 0.071504 0.414686 -0.402655
C8    C     C_2   0.475913 0.127348 0.520860 0.277517
C9    C     C_2   0.549865 0.587139 0.919716 0.443140
C10   C     C_2   0.513747 0.598202 0.063335 0.196097
C11   C     C_R   0.258131 0.497155 0.500664 0.864457
C12   C     C_R   0.501604 0.737129 0.495326 0.959410
C13   C     C_R   0.742486 0.498849 0.499439 0.860714
C14   C     C_3   0.070532 0.483009 0.645964 -0.404328
C15   C     C_3   0.927977 0.476098 0.643199 -0.532964
C16   C     C_3   0.075757 0.619234 0.429742 -0.380949
C17   C     C_3   0.074561 0.382947 0.426497 -0.441271
C18   C     C_3   0.122260 0.495525 0.501160 0.068812
H1    H     H_    0.100189 0.565206 0.700697 0.200027
H2    H     H_    0.105076 0.623718 0.323036 0.238894
H3    H     H_    0.592606 0.911742 0.517171 0.113631
H4    H     H_    0.413478 0.123613 0.320334 0.153967
H5    H     H_    0.441060 0.439066 0.902700 0.097745
H6    H     H_    0.107616 0.397088 0.700765 0.198042
H7    H     H_    0.523543 0.416450 0.111342 0.135745
H8    H     H_    0.896525 0.383203 0.687188 0.205550
H9    H     H_    0.890540 0.547763 0.707319 0.211635
H10   H     H_    0.119179 0.700505 0.475367 0.161183
H11   H     H_    0.910137 0.697830 0.514374 0.107235
H12   H     H_    0.116745 0.384816 0.324886 0.223030
H13   H     H_    0.104952 0.293874 0.480230 0.148405
H14   H     H_    0.892893 0.297183 0.467188 0.101981
N1    N     N_2   0.501360 0.501330 0.852150 -0.231746
N2    N     N_2   0.501390 0.501360 0.147810 -0.213102
O1    O     O_R   0.499980 0.319060 0.613040 -0.624963
O2    O     O_R   0.500020 0.319100 0.386900 -0.627214
O3    O     O_R   0.314770 0.499960 0.613070 -0.629237
O4    O     O_R   0.314820 0.500000 0.386930 -0.605688
O5    O     O_R   0.499980 0.680900 0.613100 -0.559340
O6    O     O_R   0.500020 0.680940 0.386960 -0.531443
O7    O     O_R   0.685180 0.500000 0.613070 -0.626859
O8    O     O_R   0.685230 0.500040 0.386930 -0.526562
Zn1   Zn    Zn3+2 0.499970 0.499970 0.650990 0.973633
Zn2   Zn    Zn3+2 0.500030 0.500030 0.349010 1.034144
Br1   Br    Br    0.879743 0.383466 0.231171 -0.521043
Br2   Br    Br    0.862083 0.699582 0.274293 -0.550013
O9    O     O_3   0.312146 0.873252 0.370464 -0.639540
C19   C     C_3   0.204975 0.949445 0.347478 0.111592
H15   H     H_    0.137270 0.893795 0.291604 0.203123
H16   H     H_    0.225499 0.034427 0.281137 0.133985
C20   C     C_3   0.142046 0.982926 0.478577 -0.399648
H17   H     H_    0.142341 0.900640 0.552088 0.234983
H18   H     H_    0.195033 0.059666 0.522247 0.226295
C21   C     C_3   0.006704 0.025183 0.455578 -0.950921
H19   H     H_    0.003105 0.103918 0.377850 0.285365
H20   H     H_    0.966843 0.056821 0.549718 0.261465
H21   H     H_    0.948531 0.946346 0.423538 0.291156
O10   O     O_3   0.477850 0.058308 0.645097 -0.651944
C22   C     C_3   0.569157 0.093836 0.738406 0.160843
H22   H     H_    0.570650 0.017664 0.819217 0.186976
H23   H     H_    0.538730 0.177059 0.789900 0.167632
C23   C     C_3   0.704557 0.107253 0.683566 -0.446850
H24   H     H_    0.736691 0.016406 0.648947 0.218522
H25   H     H_    0.711033 0.177763 0.597844 0.212001
C24   C     C_3   0.793233 0.148561 0.791525 -0.927915
H26   H     H_    0.765647 0.242433 0.822209 0.272248
H27   H     H_    0.890973 0.153635 0.752559 0.258420
H28   H     H_    0.790259 0.081704 0.880835 0.276072
O11   O     O_3   0.619279 0.681133 0.852437 -0.586027
C25   C     C_3   0.740632 0.683902 0.908010 0.118602
H29   H     H_    0.786187 0.590366 0.906770 0.146085
H30   H     H_    0.736552 0.712233 0.012289 0.212734
C26   C     C_3   0.819759 0.780485 0.826191 -0.368519
H31   H     H_    0.819640 0.758934 0.719684 0.214922
H32   H     H_    0.776675 0.873582 0.833695 0.239521
C27   C     C_3   0.954661 0.784620 0.876226 -0.893025
H33   H     H_    0.999246 0.691306 0.872746 0.264786
H34   H     H_    0.956496 0.813503 0.980314 0.299430
H35   H     H_    0.009650 0.853623 0.811936 0.260694
Br3   Br    Br    0.481275 0.764834 0.112284 -0.429046

loop_
_geom_bond_atom_site_label_1
_geom_bond_atom_site_label_2
_ccdc_geom_bond_type
C16   H10   S    
C11   C18   S    
C12   O6    A    
C1    C8    S    
O7    Zn1   S    
C26   H31   S    
C14   C18   S    
C27   H35   S    
C13   O7    A    
C7    C8    D    
C5    O9    S    
C9    O11   S    
C6    C12   S    
C5    C6    D    
C3    H11   S    
C14   H6    S    
C11   O3    A    
C2    C13   S    
C23   H25   S    
C8    O10   S    
C19   C20   S    
C24   H27   S    
C25   H29   S    
O1    Zn1   S    
C9    C10   S    
H7    N2    S    
C19   H16   S    
C22   H22   S    
C9    N1    D    
C17   H12   S    
C26   H32   S    
O8    Zn2   S    
C13   O8    A    
C4    Br1   S    
C21   H20   S    
C22   H23   S    
C20   H17   S    
N1    Zn1   S    
N2    Zn2   S    
C27   H33   S    
C5    C7    S    
C10   Br3   S    
C15   H8    S    
O5    Zn1   S    
H5    N1    S    
O10   C22   S    
C6    H3    S    
C20   H18   S    
O3    Zn1   S    
C11   O4    A    
C2    C4    S    
O4    Zn2   S    
C23   H24   S    
C15   H9    S    
O9    C19   S    
C16   H2    S    
C24   H28   S    
C25   C26   S    
C17   C18   S    
C10   N2    D    
C2    C15   S    
C4    H14   S    
C4    C17   S    
C19   H15   S    
C17   H13   S    
C26   C27   S    
O2    Zn2   S    
C1    O1    A    
C21   H19   S    
C22   C23   S    
C23   C24   S    
C14   H1    S    
C27   H34   S    
C7    H4    S    
C3    Br2   S    
C20   C21   S    
C12   O5    A    
C2    C3    S    
O11   C25   S    
O6    Zn2   S    
C16   C18   S    
C24   H26   S    
C14   C15   S    
C25   H30   S    
C3    C16   S    
C1    O2    A    
C21   H21   S    
