data_mof_unit_3467.cif
_audit_creation_date              2012-12-11T15:49:11-0500
_audit_creation_method            fapswitch 2.2
_symmetry_space_group_name_H-M    P1
_symmetry_Int_Tables_number       1
_space_group_crystal_system       triclinic
_cell_length_a                    21.655286
_cell_length_b                    7.16995
_cell_length_c                    14.89472
_cell_angle_alpha                 90.478931
_cell_angle_beta                  106.890133
_cell_angle_gamma                 90.307214
_cell_volume                      2212.75267796

loop_
_atom_site_label
_atom_site_type_symbol
_atom_type_description
_atom_site_fract_x
_atom_site_fract_y
_atom_site_fract_z
_atom_type_partial_charge
O1    O     O_R   0.335860 0.638190 0.002110 -0.520218
O2    O     O_R   0.664140 0.361810 0.997890 -0.520218
O3    O     O_R   0.164140 0.138190 0.997890 -0.517682
O4    O     O_R   0.835860 0.861810 0.002110 -0.517682
O5    O     O_R   0.217530 0.305920 0.861960 -0.542362
O6    O     O_R   0.782470 0.694080 0.138040 -0.542362
O7    O     O_R   0.282470 0.805920 0.138040 -0.534938
O8    O     O_R   0.717530 0.194080 0.861960 -0.534938
C1    C     C_R   0.205930 0.475938 0.825693 0.691267
C2    C     C_R   0.794070 0.524062 0.174307 0.691267
C3    C     C_R   0.294199 0.978077 0.174440 0.684782
C4    C     C_R   0.705801 0.021923 0.825560 0.684782
O9    O     O_R   0.338690 0.308320 0.993240 -0.548059
O10   O     O_R   0.661310 0.691680 0.006760 -0.548059
O11   O     O_R   0.161310 0.808320 0.006760 -0.542363
O12   O     O_R   0.838690 0.191680 0.993240 -0.542363
O13   O     O_R   0.286170 0.140430 0.130100 -0.526837
O14   O     O_R   0.713830 0.859570 0.869900 -0.526837
O15   O     O_R   0.213830 0.640430 0.869900 -0.529990
O16   O     O_R   0.786170 0.359570 0.130100 -0.529990
C5    C     C_R   0.365226 0.478104 0.999221 0.707246
C6    C     C_R   0.634774 0.521896 0.000779 0.707245
C7    C     C_R   0.134690 0.977072 0.000400 0.711114
C8    C     C_R   0.865310 0.022928 0.999600 0.711115
O17   O     O_3   0.232630 0.472410 0.044750 -0.366807
O18   O     O_3   0.767370 0.527590 0.955250 -0.366807
O19   O     O_3   0.267370 0.972410 0.955250 -0.376674
O20   O     O_3   0.732630 0.027590 0.044750 -0.376674
V1    V     V_3+5 0.253220 0.196620 0.991700 1.495723
V2    V     V_3+5 0.746780 0.803380 0.008300 1.495723
V3    V     V_3+5 0.246780 0.696620 0.008300 1.509670
V4    V     V_3+5 0.753220 0.303380 0.991700 1.509670
C9    C     C_R   0.038583 0.850757 0.042165 -0.211428
C10   C     C_R   0.961417 0.149244 0.957835 -0.211427
C11   C     C_R   0.463170 0.338754 0.969621 -0.235389
C12   C     C_R   0.536830 0.661246 0.030379 -0.235389
H1    H     H_    0.068510 0.736373 0.076467 0.140156
H2    H     H_    0.931490 0.263627 0.923533 0.140156
H3    H     H_    0.434787 0.213899 0.944577 0.145851
H4    H     H_    0.565213 0.786101 0.055423 0.145850
C13   C     C_R   0.974221 0.860485 0.045130 0.248163
C14   C     C_R   0.025779 0.139515 0.954870 0.248163
C15   C     C_R   0.527719 0.345082 0.967862 0.239457
C16   C     C_R   0.472281 0.654918 0.032138 0.239457
C17   C     C_R   0.934655 0.010999 0.001681 -0.067651
C18   C     C_R   0.065345 0.989001 0.998319 -0.067651
C19   C     C_R   0.565546 0.508509 0.999156 -0.077796
C20   C     C_R   0.434454 0.491491 0.000844 -0.077796
C21   C     C_R   0.679689 0.006071 0.723167 -0.078107
C22   C     C_R   0.320311 0.993929 0.276833 -0.078108
C23   C     C_R   0.821369 0.518653 0.276235 -0.095997
C24   C     C_R   0.178631 0.481347 0.723765 -0.095997
C25   C     C_R   0.683940 0.869828 0.575931 -0.127042
C26   C     C_R   0.316060 0.130173 0.424069 -0.127042
C27   C     C_R   0.811293 0.551212 0.432890 -0.105804
C28   C     C_R   0.188707 0.448787 0.567110 -0.105804
C29   C     C_R   0.715819 0.924723 0.668084 0.198677
C30   C     C_R   0.284181 0.075277 0.331916 0.198676
C31   C     C_R   0.782254 0.537432 0.336321 0.180731
C32   C     C_R   0.217745 0.462567 0.663679 0.180731
C33   C     C_R   0.614233 0.045280 0.682468 -0.157852
C34   C     C_R   0.385767 0.954720 0.317532 -0.157851
C35   C     C_R   0.888267 0.504481 0.313585 -0.164031
C36   C     C_R   0.111732 0.495518 0.686415 -0.164031
C37   C     C_R   0.583008 0.005538 0.587009 0.109456
C38   C     C_R   0.416992 0.994463 0.412991 0.109455
C39   C     C_R   0.917821 0.500093 0.411221 0.102888
C40   C     C_R   0.082179 0.499906 0.588779 0.102888
C41   C     C_R   0.617665 0.900973 0.537097 0.037653
C42   C     C_R   0.382335 0.099028 0.462903 0.037653
C43   C     C_R   0.878653 0.540650 0.470103 0.019515
C44   C     C_R   0.121347 0.459348 0.529897 0.019515
C45   C     C_R   0.516639 0.047327 0.543010 -0.010953
C46   C     C_R   0.483361 0.952674 0.456989 -0.010953
C47   C     C_R   0.985623 0.474461 0.451651 -0.016542
C48   C     C_R   0.014377 0.525538 0.548349 -0.016542
C49   C     C_R   0.517961 0.819842 0.419148 0.262135
C50   C     C_R   0.482039 0.180159 0.580852 0.262135
C51   C     C_R   0.973976 0.600952 0.599952 0.257772
C52   C     C_R   0.026024 0.399047 0.400048 0.257772
C53   C     C_R   0.584816 0.810447 0.453732 -0.166700
C54   C     C_R   0.415184 0.189554 0.546267 -0.166700
C55   C     C_R   0.907206 0.589776 0.563564 -0.187247
C56   C     C_R   0.092794 0.410222 0.436436 -0.187247
H5    H     H_    0.610504 0.714581 0.420950 0.172456
H6    H     H_    0.389496 0.285420 0.579050 0.172456
H7    H     H_    0.877356 0.639632 0.605812 0.168306
H8    H     H_    0.122644 0.360366 0.394188 0.168306
H9    H     H_    0.413211 0.911479 0.271200 0.145965
H10   H     H_    0.586789 0.088521 0.728800 0.145965
H11   H     H_    0.083250 0.488516 0.734824 0.161297
H12   H     H_    0.916750 0.511484 0.265176 0.161297
H13   H     H_    0.710607 0.794641 0.536019 0.126625
H14   H     H_    0.289393 0.205360 0.463981 0.126625
H15   H     H_    0.781331 0.577005 0.478610 0.132205
H16   H     H_    0.218669 0.422993 0.521390 0.132205
N1    N     N_3   0.949644 0.720198 0.094472 -0.636257
H17   H     H_    0.983131 0.613376 0.116934 0.242184
H18   H     H_    0.943623 0.783053 0.154941 0.238848
N2    N     N_3   0.050356 0.279802 0.905528 -0.636258
H19   H     H_    0.016869 0.386625 0.883067 0.242184
H20   H     H_    0.056377 0.216948 0.845059 0.238848
N3    N     N_3   0.554148 0.186752 0.932376 -0.642007
H21   H     H_    0.522156 0.073245 0.920241 0.222814
H22   H     H_    0.559383 0.223714 0.867264 0.247518
N4    N     N_3   0.445852 0.813248 0.067624 -0.642008
H23   H     H_    0.477844 0.926755 0.079759 0.222814
H24   H     H_    0.440617 0.776287 0.132736 0.247518
N5    N     N_3   0.216546 0.116003 0.294912 -0.649473
H25   H     H_    0.197328 0.059852 0.227591 0.213098
H26   H     H_    0.192456 0.047753 0.336850 0.235664
N6    N     N_3   0.783454 0.883998 0.705088 -0.649473
H27   H     H_    0.802672 0.940148 0.772409 0.213098
H28   H     H_    0.807544 0.952247 0.663150 0.235664
N7    N     N_3   0.286529 0.448726 0.699327 -0.667328
H29   H     H_    0.303981 0.567931 0.739870 0.228025
H30   H     H_    0.297490 0.332856 0.743108 0.226014
N8    N     N_3   0.713471 0.551274 0.300673 -0.667327
H31   H     H_    0.696019 0.432070 0.260128 0.228024
H32   H     H_    0.702510 0.667146 0.256893 0.226014
Br1   Br    Br    0.478841 0.613231 0.338232 -0.585803
Br2   Br    Br    0.521159 0.386769 0.661768 -0.585803
Br3   Br    Br    0.002877 0.763235 0.708544 -0.613936
Br4   Br    Br    0.997122 0.236763 0.291456 -0.613936

loop_
_geom_bond_atom_site_label_1
_geom_bond_atom_site_label_2
_ccdc_geom_bond_type
O17   V3    S    
C55   H7    S    
O1    C5    A    
C27   C31   A    
O19   V1    S    
C30   N5    S    
O13   V1    S    
C45   C46   A    
O3    C7    A    
C10   C14   A    
C48   C51   A    
C52   C56   A    
O4    V2    S    
O15   V3    S    
N6    H28   S    
C4    C21   S    
C37   C45   A    
O7    C3    A    
C8    C17   S    
C36   C40   A    
O9    V1    S    
N5    H26   S    
C26   C30   A    
O4    C8    A    
C29   N6    S    
N4    H23   S    
C2    C23   S    
N7    H29   S    
C38   C46   A    
C34   H9    S    
O1    V3    S    
C21   C29   A    
C12   C19   A    
O2    V4    S    
C14   C18   A    
O3    V1    S    
N8    H31   S    
C24   C32   A    
C1    O15   A    
C2    O16   A    
N7    H30   S    
C46   C49   A    
C35   H12   S    
O2    C6    A    
C45   C50   A    
O14   V2    S    
C11   C15   A    
C47   C52   A    
C43   C55   A    
C40   C44   A    
C5    C20   S    
O11   C7    A    
C6    C19   S    
C25   C41   A    
O12   C8    A    
C7    C18   S    
C9    C18   A    
C52   Br4   S    
C1    C24   S    
O10   V2    S    
C50   Br2   S    
C11   C20   A    
N6    H27   S    
N1    H18   S    
C53   H5    S    
N1    H17   S    
O5    V1    S    
C35   C39   A    
C21   C33   A    
C34   C38   A    
C25   H13   S    
C22   C30   A    
C12   H4    S    
O7    V3    S    
C27   H15   S    
C24   C36   A    
C25   C29   A    
O18   V4    S    
C28   C44   A    
C54   H6    S    
C51   Br3   S    
C9    H1    S    
C28   C32   A    
O8    V4    S    
C11   H3    S    
C47   C48   A    
O5    C1    A    
C14   N2    S    
C50   C54   A    
C26   C42   A    
C49   C53   A    
O8    C4    A    
N2    H20   S    
C23   C35   A    
N3    H22   S    
C10   C17   A    
C40   C48   A    
C44   C56   A    
C41   C53   A    
O6    V2    S    
C31   N8    S    
C22   C34   A    
C13   N1    S    
C12   C16   A    
C23   C31   A    
C33   H10   S    
O16   V4    S    
C28   H16   S    
C3    O13   A    
C10   H2    S    
C56   H8    S    
C15   N3    S    
O6    C2    A    
O11   V3    S    
C16   N4    S    
O12   V4    S    
C9    C13   A    
O10   C6    A    
O20   V2    S    
C3    C22   S    
N5    H25   S    
O9    C5    A    
C51   C55   A    
C38   C42   A    
N4    H24   S    
C37   C41   A    
N2    H19   S    
C39   C43   A    
C42   C54   A    
N8    H32   S    
C26   H14   S    
C49   Br1   S    
C33   C37   A    
C39   C47   A    
C4    O14   A    
N3    H21   S    
C13   C17   A    
C32   N7    S    
C36   H11   S    
C15   C19   A    
C27   C43   A    
C16   C20   A    
