data_mof_unit_2618.cif
_audit_creation_date              2012-12-10T18:11:03-0500
_audit_creation_method            fapswitch 2.2
_symmetry_space_group_name_H-M    P1
_symmetry_Int_Tables_number       1
_space_group_crystal_system       triclinic
_cell_length_a                    10.811937
_cell_length_b                    9.564999
_cell_length_c                    10.609319
_cell_angle_alpha                 89.2101
_cell_angle_beta                  82.634467
_cell_angle_gamma                 89.396494
_cell_volume                      1087.97580709

loop_
_atom_site_label
_atom_site_type_symbol
_atom_type_description
_atom_site_fract_x
_atom_site_fract_y
_atom_site_fract_z
_atom_type_partial_charge
C1    C     C_R   0.260285 0.500325 0.494349 0.872897
C2    C     C_3   0.503066 0.502593 0.122348 0.001602
C3    C     C_3   0.065325 0.650483 0.503936 0.254271
C4    C     C_3   0.055819 0.407616 0.601344 0.277624
C5    C     C_3   0.924903 0.651875 0.494745 -0.436557
C6    C     C_3   0.912367 0.421821 0.610627 -0.499144
C7    C     C_3   0.087546 0.438906 0.363015 -0.430721
C8    C     C_3   0.121462 0.499615 0.489377 -0.048346
C9    C     C_3   0.877193 0.500103 0.491862 0.075122
C10   C     C_3   0.943195 0.430176 0.368932 -0.391518
C11   C     C_3   0.627066 0.081836 0.466889 -0.293280
C12   C     C_3   0.627954 0.916038 0.474292 -0.295139
C13   C     C_3   0.451629 0.082285 0.634196 0.315363
C14   C     C_3   0.446404 0.913066 0.632041 0.279710
C15   C     C_3   0.419932 0.084838 0.412838 -0.258175
C16   C     C_3   0.428729 0.919702 0.405176 -0.251446
C17   C     C_R   0.501472 0.500889 0.259588 0.754650
C18   C     C_R   0.739683 0.499764 0.495060 0.768384
C19   C     C_R   0.504034 0.499290 0.739871 0.874123
C20   C     C_3   0.473330 0.629904 0.041849 -0.126213
C21   C     C_3   0.420183 0.408473 0.053933 -0.150924
C22   C     C_3   0.390332 0.535595 0.971267 -0.094323
C23   C     C_3   0.505145 0.498512 0.876993 0.008402
C24   C     C_3   0.588277 0.592821 0.945379 -0.187963
C25   C     C_3   0.535259 0.371467 0.957609 -0.090932
C26   C     C_3   0.618062 0.465724 0.028395 -0.208998
Cu1   Cu    Cu3+1 0.499860 0.642410 0.500060 0.975967
Cu2   Cu    Cu3+1 0.499860 0.357590 0.500060 0.974218
H1    H     H_    0.296422 0.563039 0.946375 0.182733
H2    H     H_    0.913528 0.482887 0.283442 0.156571
H3    H     H_    0.915127 0.318748 0.366760 0.171666
H4    H     H_    0.692476 0.121444 0.530547 0.157661
H5    H     H_    0.686225 0.881578 0.548294 0.151312
H6    H     H_    0.664434 0.116978 0.369092 0.171763
H7    H     H_    0.674720 0.873866 0.382960 0.174674
H8    H     H_    0.527324 0.103189 0.693352 0.062353
H9    H     H_    0.510166 0.877383 0.700716 0.071501
H10   H     H_    0.321630 0.118022 0.440303 0.176640
H11   H     H_    0.335465 0.872966 0.410849 0.216262
H12   H     H_    0.447241 0.128889 0.316010 0.175195
H13   H     H_    0.474335 0.891470 0.308697 0.161964
H14   H     H_    0.447867 0.735750 0.078926 0.152830
H15   H     H_    0.351205 0.333875 0.102397 0.130587
H16   H     H_    0.657172 0.667995 0.897651 0.135992
H17   H     H_    0.563105 0.266349 0.920443 0.170376
H18   H     H_    0.711187 0.437440 0.055122 0.131995
H19   H     H_    0.075604 0.682530 0.601730 0.209227
H20   H     H_    0.084116 0.444661 0.692298 0.158083
H21   H     H_    0.876006 0.708475 0.578125 0.161475
H22   H     H_    0.876213 0.480855 0.697648 0.135473
H23   H     H_    0.903852 0.709874 0.408147 0.185745
H24   H     H_    0.867722 0.317236 0.621147 0.198349
H25   H     H_    0.126506 0.504093 0.280294 0.159985
H26   H     H_    0.130248 0.333652 0.345208 0.179584
N1    N     N_3   0.500250 0.143650 0.502780 -0.186195
N2    N     N_3   0.500250 0.856350 0.502780 -0.185656
O1    O     O_R   0.317570 0.620260 0.500070 -0.498046
O2    O     O_R   0.317570 0.379740 0.500070 -0.518763
O3    O     O_R   0.499850 0.620240 0.316900 -0.600340
O4    O     O_R   0.499850 0.379760 0.316900 -0.604578
O5    O     O_R   0.682190 0.620260 0.500030 -0.611646
O6    O     O_R   0.682190 0.379740 0.500030 -0.610643
O7    O     O_R   0.499910 0.620280 0.683200 -0.555119
O8    O     O_R   0.499910 0.379720 0.683200 -0.538800
S1    S     S_3+6 0.317929 0.168722 0.740327 0.061492
O9    O     O_2   0.291744 0.321387 0.727984 -0.268104
O10   O     O_2   0.191893 0.106802 0.740525 -0.185051
O11   O     O_3   0.355803 0.144760 0.888058 -0.570460
H27   H     H_    0.278675 0.166095 0.945812 0.369051
S2    S     S_3+6 0.294972 0.838424 0.705988 0.062447
O12   O     O_2   0.284807 0.683437 0.720812 -0.300923
O13   O     O_2   0.272019 0.887629 0.840872 -0.239313
O14   O     O_3   0.175409 0.889192 0.628447 -0.473259
H28   H     H_    0.208023 0.957721 0.562807 0.351228
O15   O     O_3   0.127389 0.747667 0.417452 -0.721208
H29   H     H_    0.108682 0.726558 0.330760 0.323072
O16   O     O_3   0.092426 0.266470 0.587649 -0.637024
H30   H     H_    0.045993 0.221446 0.524619 0.329186

loop_
_geom_bond_atom_site_label_1
_geom_bond_atom_site_label_2
_ccdc_geom_bond_type
C7    C10   S    
C14   N2    S    
C22   H1    S    
C1    C8    S    
O14   H28   S    
C4    C8    S    
C6    C9    S    
C7    C8    S    
C13   S1    S    
O16   H30   S    
C24   C26   S    
C15   C16   S    
Cu1   O5    S    
C21   H15   S    
C10   H3    S    
C20   C24   S    
C19   O7    A    
O11   H27   S    
S1    O10   D    
C23   C24   S    
S2    O12   D    
C3    O15   S    
C9    C10   S    
C21   C22   S    
C2    C17   S    
C14   S2    S    
C5    H21   S    
S2    O14   S    
Cu2   N1    S    
Cu2   O4    S    
C2    C20   S    
C13   H8    S    
C4    C6    S    
C3    C8    S    
Cu1   O1    S    
Cu1   N2    S    
C18   O6    A    
C16   H11   S    
C25   C26   S    
C15   N1    S    
C19   C23   S    
O15   H29   S    
C16   N2    S    
C15   H10   S    
C5    C9    S    
C1    O1    A    
C10   H2    S    
C19   O8    A    
S1    O11   S    
C2    C21   S    
C2    C26   S    
C6    H22   S    
C12   H7    S    
C12   N2    S    
Cu1   O7    S    
C17   O3    A    
Cu2   O8    S    
C20   C22   S    
C11   H4    S    
C24   H16   S    
C7    H25   S    
C25   H17   S    
C11   N1    S    
C4    H20   S    
C21   C25   S    
C11   H6    S    
C3    C5    S    
C20   H14   S    
C11   C12   S    
C18   O5    A    
Cu2   O2    S    
C4    O16   S    
Cu1   O3    S    
C1    O2    A    
C14   H9    S    
C3    H19   S    
C23   C25   S    
C15   H12   S    
C26   H18   S    
C17   O4    A    
C9    C18   S    
S1    O9    D    
Cu1   Cu2   S    
C22   C23   S    
C5    H23   S    
S2    O13   D    
C7    H26   S    
C6    H24   S    
C12   H5    S    
C13   C14   S    
C16   H13   S    
C13   N1    S    
Cu2   O6    S    
