data_mof_unit_2016.cif
_audit_creation_date              2012-10-26T21:24:27-0400
_audit_creation_method            fapswitch 2.2
_symmetry_space_group_name_H-M    P1
_symmetry_Int_Tables_number       1
_space_group_crystal_system       triclinic
_cell_length_a                    14.31888
_cell_length_b                    10.852062
_cell_length_c                    9.599525
_cell_angle_alpha                 90.639736
_cell_angle_beta                  91.039132
_cell_angle_gamma                 91.0211
_cell_volume                      1491.08354998

loop_
_atom_site_label
_atom_site_type_symbol
_atom_type_description
_atom_site_fract_x
_atom_site_fract_y
_atom_site_fract_z
_atom_type_partial_charge
C1    C     C_R   0.504166 0.262684 0.498959 0.573531
C2    C     C_3   0.534945 0.070980 0.754332 -0.118231
C3    C     C_R   0.578818 0.531876 0.076582 0.113897
C4    C     C_R   0.331204 0.500225 0.499203 0.543386
C5    C     C_R   0.424144 0.457531 0.068705 0.062733
C6    C     C_R   0.425501 0.457074 0.921140 -0.027993
C7    C     C_R   0.579452 0.530216 0.929432 0.120199
C8    C     C_3   0.633098 0.649692 0.926150 0.028868
C9    C     C_3   0.629718 0.653343 0.085142 0.041643
C10   C     C_R   0.495002 0.737630 0.499665 0.539732
C11   C     C_R   0.668785 0.500015 0.501043 0.543257
C12   C     C_1   0.771127 0.500335 0.503008 -0.061469
C13   C     C_1   0.228862 0.501274 0.498599 -0.034040
C14   C     C_1   0.143403 0.501810 0.500013 -0.048134
C15   C     C_1   0.042727 0.501705 0.501499 -0.021638
C16   C     C_1   0.957259 0.501347 0.502516 -0.023421
C17   C     C_1   0.856589 0.500813 0.503230 -0.064292
C18   C     C_3   0.596717 0.175935 0.183164 -0.276748
C19   C     C_3   0.746288 0.744229 0.248554 -0.299173
C20   C     C_3   0.439453 0.949736 0.117915 -0.327046
C21   C     C_R   0.632678 0.127973 0.746076 0.050011
C22   C     C_R   0.699264 0.084238 0.651765 -0.090241
C23   C     C_R   0.481232 0.066826 0.618102 -0.020356
C24   C     C_R   0.787755 0.140238 0.645845 -0.116933
C25   C     C_R   0.810961 0.240078 0.733564 -0.105664
C26   C     C_R   0.745336 0.284964 0.826250 -0.110801
C27   C     C_R   0.656415 0.230234 0.831292 -0.069297
C28   C     C_R   0.334097 0.418860 0.128111 0.070244
C29   C     C_R   0.321389 0.300783 0.183658 -0.073679
C30   C     C_R   0.232873 0.260279 0.224350 -0.128119
C31   C     C_R   0.155964 0.336450 0.207418 -0.103365
C32   C     C_R   0.167696 0.453877 0.151357 -0.112925
C33   C     C_R   0.256293 0.495005 0.111658 -0.100671
C34   C     C_R   0.501798 0.129066 0.495787 0.008631
C35   C     C_3   0.775184 0.749297 0.839732 -0.294421
C36   C     C_R   0.517184 0.060761 0.372124 0.135032
C37   C     C_R   0.485305 0.936573 0.368225 0.114934
C38   C     C_R   0.484214 0.871452 0.495918 -0.028219
C39   C     C_R   0.477521 0.939692 0.618818 -0.035358
C40   C     C_3   0.530818 0.930938 0.752632 -0.264149
Cu1   Cu    Cu3+1 0.500000 0.499980 0.640670 0.917835
Cu2   Cu    Cu3+1 0.500000 0.500020 0.359330 0.920979
H1    H     H_    0.592766 0.722298 0.874261 0.119826
H2    H     H_    0.524548 0.198939 0.152395 0.146023
H3    H     H_    0.741641 0.558746 0.183716 0.267387
H4    H     H_    0.819591 0.733695 0.285553 0.139380
H5    H     H_    0.699615 0.742423 0.339722 0.153136
H6    H     H_    0.740608 0.834392 0.195707 0.132779
H7    H     H_    0.403864 0.812057 0.252833 0.266363
H8    H     H_    0.394905 0.029133 0.143331 0.137020
H9    H     H_    0.401637 0.892504 0.037791 0.121494
H10   H     H_    0.506428 0.980136 0.072899 0.162196
H11   H     H_    0.682719 0.007687 0.581852 0.104602
H12   H     H_    0.585867 0.728564 0.126424 0.156310
H13   H     H_    0.838367 0.106177 0.573117 0.104899
H14   H     H_    0.879609 0.283094 0.729173 0.116745
H15   H     H_    0.763244 0.362402 0.894100 0.110535
H16   H     H_    0.605721 0.268253 0.901193 0.095116
H17   H     H_    0.379049 0.239448 0.194076 0.101479
H18   H     H_    0.223766 0.169220 0.267499 0.102634
H19   H     H_    0.087367 0.304736 0.238232 0.113943
H20   H     H_    0.108087 0.512866 0.138292 0.112835
H21   H     H_    0.264181 0.585400 0.066104 0.094643
H22   H     H_    0.735501 0.566927 0.801104 0.269655
H23   H     H_    0.486920 0.891147 0.835130 0.118048
H24   H     H_    0.850592 0.731322 0.826437 0.147452
H25   H     H_    0.767959 0.819079 0.924270 0.164447
H26   H     H_    0.746456 0.785802 0.740523 0.119059
H27   H     H_    0.599137 0.886516 0.739069 0.126399
H28   H     H_    0.492186 0.111163 0.838660 0.109233
H29   H     H_    0.364738 0.424305 0.862125 0.130657
H30   H     H_    0.642609 0.015811 0.278670 0.242191
H31   H     H_    0.630691 0.134793 0.091221 0.104378
H32   H     H_    0.636348 0.261168 0.213398 0.181135
N1    N     N_R   0.500540 0.500930 0.147930 -0.250061
N2    N     N_R   0.500540 0.500890 0.852020 -0.253806
N3    N     N_2   0.599799 0.089633 0.296683 -0.517435
N4    N     N_2   0.721294 0.645051 0.152489 -0.474611
N5    N     N_2   0.456825 0.876418 0.240112 -0.506355
N6    N     N_2   0.727174 0.635691 0.874172 -0.491014
O1    O     O_R   0.500000 0.319640 0.618810 -0.490542
O2    O     O_R   0.500010 0.319680 0.381230 -0.499642
O3    O     O_R   0.376050 0.499980 0.618820 -0.494162
O4    O     O_R   0.376060 0.500020 0.381230 -0.470543
O5    O     O_R   0.499990 0.680320 0.618770 -0.495183
O6    O     O_R   0.500000 0.680360 0.381190 -0.490724
O7    O     O_R   0.623940 0.499980 0.618770 -0.481135
O8    O     O_R   0.623950 0.500020 0.381180 -0.485315

loop_
_geom_bond_atom_site_label_1
_geom_bond_atom_site_label_2
_ccdc_geom_bond_type
C10   O5    A    
Cu1   Cu2   S    
C31   H19   S    
Cu2   O2    S    
C8    H1    S    
C19   H4    S    
C7    C8    S    
C24   H13   S    
C37   N5    S    
Cu2   N1    S    
C29   C30   A    
C28   C29   A    
C20   H9    S    
C3    C7    A    
C36   N3    S    
C5    C6    A    
C19   H5    S    
C1    O1    A    
C15   C16   T    
Cu1   O3    S    
C35   N6    S    
C4    C13   S    
C20   H8    S    
H30   N3    S    
C10   O6    A    
C29   H17   S    
C11   O7    A    
C16   C17   S    
C30   H18   S    
C12   C17   T    
C25   H14   S    
H3    N4    S    
Cu2   O6    S    
C3    N1    A    
C21   C27   A    
C18   H32   S    
C21   C22   A    
H22   N6    S    
C1    C34   S    
C22   H11   S    
C6    H29   S    
Cu1   O7    S    
C40   H27   S    
Cu2   O4    S    
C24   C25   A    
C39   C40   S    
C19   H6    S    
C8    C9    S    
C35   H24   S    
C1    O2    A    
H7    N5    S    
C5    N1    A    
C19   N4    S    
C37   C38   A    
C3    C9    S    
C18   H2    S    
C5    C28   S    
C31   C32   A    
C4    O4    A    
C35   H25   S    
C11   O8    A    
C33   H21   S    
C23   C34   A    
Cu1   O1    S    
C2    C21   S    
C26   C27   A    
C28   C33   A    
C18   H31   S    
C40   H23   S    
C22   C24   A    
Cu2   O8    S    
C36   C37   A    
C20   N5    S    
C27   H16   S    
C11   C12   S    
C6    N2    A    
C7    N2    A    
Cu1   O5    S    
C10   C38   S    
C32   C33   A    
C25   C26   A    
C32   H20   S    
C20   H10   S    
C2    H28   S    
Cu1   N2    S    
C30   C31   A    
C38   C39   A    
C4    O3    A    
C35   H26   S    
C18   N3    S    
C23   C39   A    
C34   C36   A    
C9    N4    S    
C26   H15   S    
C2    C40   S    
C2    C23   S    
C8    N6    S    
C14   C15   S    
C9    H12   S    
C13   C14   T    
