data_mof_unit_2251.cif
_audit_creation_date              2013-03-05T16:06:02-0500
_audit_creation_method            fapswitch 2.2
_symmetry_space_group_name_H-M    P1
_symmetry_Int_Tables_number       1
_space_group_crystal_system       triclinic
_cell_length_a                    10.595231
_cell_length_b                    15.080652
_cell_length_c                    15.371677
_cell_angle_alpha                 81.772763
_cell_angle_beta                  91.491716
_cell_angle_gamma                 105.611265
_cell_volume                      2340.97920213

loop_
_atom_site_label
_atom_site_type_symbol
_atom_site_description
_atom_site_fract_x
_atom_site_fract_y
_atom_site_fract_z
_atom_type_partial_charge
O1    O     O_R   0.462600 0.383110 0.605620 -0.621110
O2    O     O_R   0.537400 0.616890 0.394380 -0.612489
O3    O     O_R   0.510210 0.531900 0.639510 -0.514355
O4    O     O_R   0.489790 0.468100 0.360490 -0.551341
C1    C     C_R   0.484723 0.441562 0.663379 0.966873
C2    C     C_R   0.526290 0.558521 0.337998 0.992676
O5    O     O_R   0.662240 0.425610 0.483080 -0.644558
O6    O     O_R   0.337760 0.574390 0.516920 -0.629231
O7    O     O_R   0.709860 0.574400 0.516970 -0.574025
O8    O     O_R   0.290140 0.425600 0.483030 -0.549695
C3    C     C_R   0.742424 0.502435 0.498189 0.961230
C4    C     C_R   0.257508 0.497691 0.501196 1.051773
Zn1   Zn    Zn3+2 0.468210 0.400660 0.477370 1.078818
Zn2   Zn    Zn3+2 0.531790 0.599340 0.522630 1.092957
C5    C     C_3   0.943763 0.461723 0.576120 0.126238
C6    C     C_3   0.055900 0.538681 0.420402 0.093403
C7    C     C_3   0.062818 0.546651 0.561152 0.140457
C8    C     C_3   0.936567 0.453849 0.435510 0.138559
C9    C     C_3   0.122641 0.495831 0.499637 -0.367795
C10   C     C_3   0.877241 0.504762 0.497106 -0.344643
C11   C     C_3   0.002508 0.410994 0.514814 0.343247
C12   C     C_3   0.997162 0.589431 0.481757 0.332899
C13   C     C_R   0.489310 0.405158 0.758588 -0.245766
C14   C     C_R   0.578095 0.594109 0.248428 -0.241576
C15   C     C_R   0.465296 0.275794 0.878969 0.318887
C16   C     C_R   0.750932 0.689480 0.146446 0.330686
C17   C     C_R   0.471232 0.308978 0.788467 0.309741
C18   C     C_R   0.694655 0.667141 0.231288 0.321059
C19   C     C_R   0.518020 0.467639 0.820821 0.446599
C20   C     C_R   0.523887 0.542809 0.181847 0.412014
C21   C     C_R   0.543450 0.435310 0.908643 -0.124502
C22   C     C_R   0.600464 0.547863 0.107175 -0.110958
C23   C     C_R   0.493605 0.339808 0.940675 -0.257328
C24   C     C_R   0.702047 0.630001 0.082133 -0.253580
C25   C     C_R   0.608822 0.497201 0.966521 -0.115138
C26   C     C_R   0.574658 0.474565 0.055662 -0.098719
C27   C     C_R   0.517642 0.379408 0.090115 0.406223
C28   C     C_R   0.707997 0.580488 0.938328 0.396331
C29   C     C_R   0.476781 0.312552 0.032828 0.327936
C30   C     C_R   0.752569 0.647183 0.995125 0.304453
N1    N     N_R   0.574200 0.731700 0.552740 -0.187292
N2    N     N_R   0.425800 0.268300 0.447260 -0.189052
C31   C     C_R   0.716839 0.850497 0.625585 0.164633
C32   C     C_R   0.290520 0.150572 0.369648 0.191178
C33   C     C_R   0.683320 0.761073 0.601811 0.340478
C34   C     C_R   0.318633 0.238530 0.396663 0.346909
C35   C     C_R   0.505978 0.791905 0.516799 0.039242
C36   C     C_R   0.497789 0.209744 0.480818 0.032821
C37   C     C_R   0.547128 0.887162 0.528245 -0.003249
C38   C     C_R   0.461097 0.115073 0.467135 -0.000570
C39   C     C_R   0.644692 0.912602 0.591214 -0.074053
C40   C     C_R   0.365083 0.089556 0.403083 -0.071953
C41   C     C_R   0.492675 0.956961 0.482005 0.010622
C42   C     C_R   0.518131 0.045981 0.512294 0.013658
C43   C     C_R   0.594807 0.060930 0.588741 0.453941
C44   C     C_R   0.418622 0.942333 0.404577 0.435762
C45   C     C_R   0.664041 0.997431 0.622560 -0.155298
C46   C     C_R   0.349529 0.005793 0.370047 -0.140077
H1    H     H_    0.727246 0.012463 0.678065 0.203728
H2    H     H_    0.288434 0.991223 0.313505 0.210146
H3    H     H_    0.584353 0.239172 0.516147 0.207412
H4    H     H_    0.419288 0.763746 0.480872 0.212540
N3    N     N_R   0.132906 0.594820 0.631036 0.274148
O9    O     O_R   0.149577 0.683771 0.628533 -0.272362
O10   O     O_R   0.181841 0.549103 0.695315 -0.310485
N4    N     N_R   0.865636 0.405778 0.365790 0.269187
O11   O     O_R   0.851973 0.317348 0.366756 -0.285671
O12   O     O_R   0.812606 0.450924 0.303358 -0.377501
N5    N     N_R   0.228164 0.293390 0.375950 0.248146
O13   O     O_R   0.258042 0.365232 0.315501 -0.230448
O14   O     O_R   0.105608 0.257364 0.398388 -0.259604
N6    N     N_R   0.770197 0.703821 0.624230 0.258686
O15   O     O_R   0.735145 0.631289 0.683444 -0.247161
O16   O     O_R   0.893671 0.736511 0.602953 -0.240506
N7    N     N_R   0.826495 0.878239 0.682073 0.237703
O17   O     O_R   0.837008 0.825585 0.755187 -0.212790
O18   O     O_R   0.921953 0.951568 0.656615 -0.284774
N8    N     N_R   0.183536 0.123018 0.311049 0.242517
O19   O     O_R   0.173298 0.177474 0.239038 -0.216368
O20   O     O_R   0.089713 0.047798 0.333615 -0.282984
O21   O     O_3   0.594946 0.134006 0.633554 -0.758953
H5    H     H_    0.652467 0.133493 0.685476 0.377213
O22   O     O_3   0.421440 0.869639 0.359737 -0.740209
H6    H     H_    0.365426 0.870248 0.307064 0.377579
N9    N     N_R   0.880301 0.420782 0.660883 0.241398
O23   O     O_R   0.869984 0.334105 0.691333 -0.338041
O24   O     O_R   0.833369 0.471005 0.706512 -0.344898
N10   N     N_R   0.114802 0.580954 0.334569 0.265031
O25   O     O_R   0.046803 0.617327 0.275130 -0.255515
O26   O     O_R   0.235361 0.583888 0.317160 -0.334512
O27   O     O_3   0.008192 0.318757 0.533890 -0.606996
H7    H     H_    0.915783 0.280710 0.537244 0.377841
O28   O     O_3   0.992174 0.681790 0.462327 -0.621888
H8    H     H_    0.084304 0.718774 0.450931 0.371504
N11   N     N_R   0.406089 0.219780 0.069092 0.266606
O29   O     O_R   0.454161 0.174357 0.134147 -0.257199
O30   O     O_R   0.286038 0.185782 0.045280 -0.258838
N12   N     N_R   0.840719 0.734734 0.960590 0.269407
O31   O     O_R   0.950384 0.737425 0.922726 -0.183826
O32   O     O_R   0.803408 0.810669 0.956472 -0.269128
O33   O     O_3   0.395751 0.489069 0.191152 -0.616794
H9    H     H_    0.360334 0.477851 0.132201 0.369570
O34   O     O_3   0.514125 0.558748 0.796000 -0.648389
H10   H     H_    0.493181 0.584190 0.848145 0.358953
O35   O     O_3   0.759865 0.715237 0.296270 -0.629351
H11   H     H_    0.761857 0.669545 0.348988 0.360541
O36   O     O_3   0.462160 0.245704 0.730940 -0.631925
H12   H     H_    0.541473 0.269276 0.692796 0.375032
N13   N     N_R   0.449985 0.178240 0.905801 0.264228
O37   O     O_R   0.355094 0.117112 0.874591 -0.202270
O38   O     O_R   0.542104 0.150620 0.950129 -0.283098
N14   N     N_R   0.870235 0.762722 0.132467 0.270850
O39   O     O_R   0.874246 0.845199 0.150340 -0.203492
O40   O     O_R   0.979458 0.742847 0.118531 -0.253364
O41   O     O_3   0.506757 0.348239 0.179291 -0.661069
H13   H     H_    0.581293 0.387127 0.208747 0.375437
O42   O     O_3   0.770124 0.596115 0.857816 -0.599278
H14   H     H_    0.769374 0.535093 0.840854 0.390330

loop_
_geom_bond_atom_site_label_1
_geom_bond_atom_site_label_2
_geom_bond_distance
_ccdc_geom_bond_type
N4    O12   1.300397 A    
N3    O10   1.300462 A    
O33   H9    0.991250 S    
C16   N14   1.434834 S    
C8    C11   1.537861 S    
N11   O29   1.301486 A    
N7    O17   1.300664 A    
C35   H4    1.076908 S    
N14   O40   1.301121 A    
O21   H5    0.991933 S    
C35   C37   1.419842 A    
C41   C42   1.438483 A    
O5    C3    1.286461 A    
O28   H8    0.991224 S    
O1    C1    1.312335 A    
C13   C19   1.408571 A    
C26   C27   1.427333 A    
C9    C11   1.537845 S    
N13   O38   1.301299 A    
C30   N12   1.434876 S    
N8    O20   1.301428 A    
C45   H1    1.082449 S    
C46   H2    1.082367 S    
O41   H13   0.990314 S    
C19   O34   1.383755 S    
N2    C34   1.369421 A    
O4    Zn1   1.920376 S    
N5    O14   1.300097 A    
Zn1   N2    2.042371 S    
C34   N5    1.428355 S    
C28   O42   1.376936 S    
C23   C29   1.419289 A    
C25   C26   1.396622 A    
C44   C46   1.394634 A    
C37   C39   1.411882 A    
C38   C40   1.413487 A    
O36   H12   0.990737 S    
C21   C23   1.413091 A    
C39   C45   1.393150 A    
C13   C17   1.419801 A    
C43   O21   1.380340 S    
C15   N13   1.436015 S    
O7    C3    1.294828 A    
C32   C40   1.403472 A    
C36   C38   1.420095 A    
N4    O11   1.300064 A    
C28   C30   1.403967 A    
C33   N6    1.427442 S    
C19   C21   1.412843 A    
O2    C2    1.302719 A    
O2    Zn2   1.951504 S    
N14   O39   1.301185 A    
C32   C34   1.399733 A    
N9    O24   1.298375 A    
C31   N7    1.438294 S    
C5    C10   1.539231 S    
C40   C46   1.395672 A    
C3    C10   1.419859 S    
C25   C28   1.423770 A    
O4    C2    1.310236 A    
O27   H7    0.991111 S    
N8    O19   1.301151 A    
N9    O23   1.300125 A    
C6    C12   1.534942 S    
C22   C24   1.417211 A    
O7    Zn2   2.026939 S    
C27   C29   1.406678 A    
C31   C33   1.398155 A    
O22   H6    0.991793 S    
C1    C13   1.492089 S    
C17   O36   1.374565 S    
C18   O35   1.379465 S    
O6    C4    1.288124 A    
C2    C14   1.467768 S    
N1    C35   1.356801 A    
N2    C36   1.356218 A    
N7    O18   1.301439 A    
C29   N11   1.436542 S    
O3    Zn2   1.920376 S    
O8    C4    1.293712 A    
Zn2   N1    2.042372 S    
N6    O16   1.300194 A    
C10   C12   1.535136 S    
N12   O32   1.301250 A    
C43   C45   1.393238 A    
C12   O28   1.397040 S    
C21   C25   1.414238 A    
O1    Zn1   1.951507 S    
C22   C26   1.414289 A    
C44   O22   1.383017 S    
C11   O27   1.397108 S    
C41   C44   1.419231 A    
C5    C7    1.531573 S    
C42   C43   1.421001 A    
O6    Zn2   1.989798 S    
C16   C24   1.423815 A    
C14   C18   1.417535 A    
N10   O26   1.299692 A    
N6    O15   1.294952 A    
O3    C1    1.314399 A    
O8    Zn1   2.026937 S    
N11   O30   1.301232 A    
C27   O41   1.381292 S    
C15   C17   1.406455 A    
O35   H11   0.989477 S    
C16   C18   1.405879 A    
C7    C12   1.536748 S    
C5    N9    1.457021 S    
C32   N8    1.438529 S    
C38   C42   1.429251 A    
N13   O37   1.301313 A    
C7    N3    1.457586 S    
C20   C22   1.404209 A    
C31   C39   1.401184 A    
C36   H3    1.075657 S    
C5    C11   1.534240 S    
C6    C9    1.541729 S    
C37   C41   1.427390 A    
C4    C9    1.421298 S    
C7    C9    1.543810 S    
C20   O33   1.380281 S    
C8    C10   1.542700 S    
N5    O13   1.296162 A    
C8    N4    1.458112 S    
C14   C20   1.390226 A    
N3    O9    1.300067 A    
O5    Zn1   1.989799 S    
N10   O25   1.299909 A    
C6    C8    1.532606 S    
N12   O31   1.301366 A    
O34   H10   0.990995 S    
C6    N10   1.457637 S    
N1    C33   1.369840 A    
C24   C30   1.416306 A    
O42   H14   0.989718 S    
C15   C23   1.418819 A    
