data_mof_unit_124.cif
_audit_creation_date              2012-12-10T17:34:28-0500
_audit_creation_method            fapswitch 2.2
_symmetry_space_group_name_H-M    P1
_symmetry_Int_Tables_number       1
_space_group_crystal_system       triclinic
_cell_length_a                    12.335828
_cell_length_b                    13.145008
_cell_length_c                    14.334728
_cell_angle_alpha                 78.877639
_cell_angle_beta                  100.942557
_cell_angle_gamma                 116.387156
_cell_volume                      2028.77413486

loop_
_atom_site_label
_atom_site_type_symbol
_atom_type_description
_atom_site_fract_x
_atom_site_fract_y
_atom_site_fract_z
_atom_type_partial_charge
C1    C     C_R   0.854788 0.286560 0.509949 0.772056
C2    C     C_1   0.999519 0.500098 0.228810 -0.214440
C3    C     C_R   0.272379 0.024921 0.386954 0.030550
C4    C     C_R   0.228238 0.834762 0.471310 -0.064149
C5    C     C_R   0.811590 0.092338 0.591728 -0.187097
C6    C     C_R   0.729518 0.982722 0.621892 -0.143357
C7    C     C_R   0.606935 0.944145 0.586009 -0.169659
C8    C     C_R   0.564050 0.012919 0.513994 0.100445
C9    C     C_R   0.649700 0.122352 0.479862 0.085684
C10   C     C_R   0.438793 0.978024 0.476897 0.034910
C11   C     C_R   0.400025 0.053793 0.408791 0.084803
C12   C     C_R   0.999796 0.499540 0.668766 0.806814
C13   C     C_R   0.490495 0.152799 0.363877 -0.044149
C14   C     C_R   0.612514 0.186078 0.400752 -0.281747
C15   C     C_R   0.351143 0.868310 0.504350 -0.260993
C16   C     C_R   0.188394 0.914458 0.417468 -0.253659
C17   C     C_R   0.772244 0.164321 0.523438 -0.086069
C18   C     C_R   0.336142 0.317729 0.640377 -0.305657
C19   C     C_R   0.762153 0.647714 0.378194 0.082220
C20   C     C_R   0.666729 0.680216 0.350538 -0.256451
C21   C     C_R   0.561873 0.623621 0.396357 -0.183553
C22   C     C_R   0.551613 0.533612 0.471172 -0.010223
C23   C     C_R   0.145149 0.713424 0.487653 0.805432
C24   C     C_R   0.652055 0.503985 0.497222 0.267382
C25   C     C_R   0.446045 0.472255 0.520796 -0.055234
C26   C     C_R   0.439759 0.377895 0.591508 0.107616
C27   C     C_R   0.538432 0.347608 0.613889 -0.073185
C28   C     C_R   0.644213 0.414732 0.571019 -0.228176
C29   C     C_R   0.345247 0.500374 0.502864 0.006098
C30   C     C_R   0.240115 0.349010 0.618327 0.087158
C31   C     C_R   0.999931 0.500135 0.331245 0.810226
C32   C     C_1   0.999486 0.499036 0.771185 -0.206724
C33   C     C_1   0.999147 0.498849 0.856624 -0.017252
C34   C     C_1   0.998939 0.498981 0.957276 0.000801
C35   C     C_1   0.998957 0.499340 0.042682 0.000495
C36   C     C_1   0.999168 0.499880 0.143326 -0.024917
Cu1   Cu    Cu3+1 0.098280 0.475420 0.520190 0.924986
Cu2   Cu    Cu3+1 0.901720 0.524580 0.479810 0.916985
H1    H     H_    0.091568 0.889851 0.397684 0.147995
H2    H     H_    0.328929 0.247697 0.696419 0.155679
H3    H     H_    0.342319 0.570348 0.450892 0.125249
H4    H     H_    0.843210 0.691699 0.342057 0.124366
H5    H     H_    0.490375 0.651601 0.371009 0.137323
H6    H     H_    0.673822 0.749061 0.293204 0.145976
H7    H     H_    0.718394 0.392454 0.596878 0.210367
H8    H     H_    0.376416 0.804541 0.548531 0.153274
H9    H     H_    0.904913 0.122791 0.625544 0.145365
H10   H     H_    0.548873 0.860812 0.617944 0.122997
H11   H     H_    0.760178 0.928762 0.676602 0.140827
H12   H     H_    0.679712 0.260013 0.363216 0.158200
H13   H     H_    0.159998 0.302197 0.655382 0.122801
N1    N     N_R   0.246290 0.438200 0.550780 -0.174405
N2    N     N_R   0.754310 0.561180 0.449760 -0.195577
O1    O     O_R   0.972510 0.318130 0.525390 -0.578014
O2    O     O_R   0.806530 0.359650 0.491290 -0.595100
O3    O     O_R   0.083010 0.479240 0.641000 -0.557031
O4    O     O_R   0.917030 0.520750 0.606900 -0.575819
O5    O     O_R   0.193470 0.640350 0.508710 -0.582561
O6    O     O_R   0.027490 0.681870 0.474610 -0.582768
O7    O     O_R   0.082970 0.479250 0.393100 -0.564657
O8    O     O_R   0.916990 0.520760 0.359000 -0.567655
C37   C     C_R   0.533738 0.243284 0.678877 0.117519
C38   C     C_R   0.621348 0.251589 0.759159 -0.154306
C39   C     C_R   0.621452 0.152691 0.816530 -0.123586
C40   C     C_R   0.534580 0.044961 0.794081 -0.100757
C41   C     C_R   0.447439 0.035916 0.714222 -0.126077
C42   C     C_R   0.447338 0.134525 0.656405 -0.144866
H14   H     H_    0.689811 0.334518 0.776922 0.131987
H15   H     H_    0.689240 0.159579 0.878179 0.130555
H16   H     H_    0.535048 0.968483 0.838369 0.123837
H17   H     H_    0.380702 0.952428 0.696553 0.133674
H18   H     H_    0.380774 0.126168 0.593676 0.129152
C43   C     C_2   0.466182 0.217133 0.271657 0.369922
H19   H     H_    0.520081 0.308855 0.258425 0.070689
O9    O     O_2   0.392002 0.167588 0.207462 -0.533126
C44   C     C_R   0.222090 0.108437 0.339382 0.147363
C45   C     C_R   0.264153 0.215046 0.372660 -0.177858
C46   C     C_R   0.216089 0.292934 0.327651 -0.102842
C47   C     C_R   0.124613 0.264581 0.250406 -0.103742
C48   C     C_R   0.080930 0.158325 0.217726 -0.133450
C49   C     C_R   0.129132 0.080396 0.261948 -0.081628
H20   H     H_    0.334628 0.238012 0.432731 0.125326
H21   H     H_    0.249797 0.375496 0.352209 0.143541
H22   H     H_    0.087696 0.324988 0.215741 0.137212
H23   H     H_    0.010014 0.136495 0.157838 0.127124
H24   H     H_    0.095119 0.998825 0.235032 0.119536

loop_
_geom_bond_atom_site_label_1
_geom_bond_atom_site_label_2
_ccdc_geom_bond_type
C23   O5    A    
C30   H13   S    
C43   H19   S    
C31   O8    A    
C19   C20   A    
C18   C26   A    
C9    C14   A    
C7    C8    A    
C45   C46   A    
C23   O6    A    
C5    H9    S    
C26   C27   A    
C48   H23   S    
C37   C42   A    
C34   C35   T    
C10   C15   A    
C5    C6    A    
C5    C17   A    
C40   H16   S    
C42   H18   S    
C18   H2    S    
C21   H5    S    
Cu1   O3    S    
C46   H21   S    
Cu2   O2    S    
C35   C36   S    
C8    C9    A    
C22   C25   A    
C18   C30   A    
Cu1   O5    S    
C19   H4    S    
Cu2   O8    S    
C19   N2    A    
C41   C42   A    
C13   C14   A    
C12   C32   S    
C43   O9    D    
C20   H6    S    
C25   C29   A    
C28   H7    S    
C44   C45   A    
C4    C23   S    
C46   C47   A    
C25   C26   A    
C38   C39   A    
Cu2   O6    S    
C32   C33   T    
C2    C31   S    
C31   O7    A    
C4    C16   A    
C1    O1    A    
Cu1   Cu2   S    
C27   C37   S    
Cu2   O4    S    
C41   H17   S    
C37   C38   A    
C33   C34   S    
C49   H24   S    
C39   H15   S    
C3    C44   S    
C12   O3    A    
Cu1   O1    S    
C9    C17   A    
C13   C43   S    
C22   C24   A    
C12   O4    A    
C2    C36   T    
Cu1   N1    S    
C30   N1    A    
C38   H14   S    
C47   H22   S    
C29   H3    S    
C24   C28   A    
C48   C49   A    
C44   C49   A    
C6    C7    A    
C24   N2    A    
C1    C17   S    
C7    H10   S    
C4    C15   A    
C1    O2    A    
C39   C40   A    
C11   C13   A    
C14   H12   S    
Cu2   N2    S    
C45   H20   S    
C6    H11   S    
Cu1   O7    S    
C3    C11   A    
C10   C11   A    
C16   H1    S    
C47   C48   A    
C20   C21   A    
C8    C10   A    
C40   C41   A    
C27   C28   A    
C15   H8    S    
C21   C22   A    
C3    C16   A    
C29   N1    A    
