data_mof_unit_3034.cif
_audit_creation_date              2012-12-10T18:59:17-0500
_audit_creation_method            fapswitch 2.2
_symmetry_space_group_name_H-M    P1
_symmetry_Int_Tables_number       1
_space_group_crystal_system       triclinic
_cell_length_a                    10.862711
_cell_length_b                    10.824326
_cell_length_c                    9.53008
_cell_angle_alpha                 89.219198
_cell_angle_beta                  88.553759
_cell_angle_gamma                 91.227689
_cell_volume                      1119.83470197

loop_
_atom_site_label
_atom_site_type_symbol
_atom_type_description
_atom_site_fract_x
_atom_site_fract_y
_atom_site_fract_z
_atom_type_partial_charge
C1    C     C_R   0.500757 0.262286 0.500761 0.790526
C2    C     C_R   0.055697 0.425446 0.620987 0.054221
C3    C     C_R   0.126443 0.484884 0.508897 -0.089608
C4    C     C_R   0.066428 0.535287 0.393651 -0.202085
C5    C     C_R   0.939653 0.533586 0.389149 -0.216512
C6    C     C_R   0.869514 0.476156 0.496641 -0.082858
C7    C     C_R   0.460607 0.059879 0.617506 0.078463
C8    C     C_R   0.507336 0.129039 0.502459 -0.111406
C9    C     C_R   0.565077 0.067576 0.390466 -0.207547
C10   C     C_R   0.565691 0.938530 0.389312 -0.226608
C11   C     C_R   0.507698 0.870427 0.499525 -0.071638
C12   C     C_R   0.261662 0.493620 0.502856 0.775248
C13   C     C_R   0.459843 0.932478 0.614953 0.019874
C14   C     C_3   0.337102 0.918074 0.690190 -0.084214
C15   C     C_3   0.336539 0.060367 0.693139 0.393324
C16   C     C_R   0.581569 0.573700 0.070338 0.219501
C17   C     C_R   0.430313 0.416978 0.077799 -0.069038
C18   C     C_R   0.431315 0.416446 0.928803 -0.106410
C19   C     C_R   0.581995 0.573470 0.922785 0.289008
C20   C     C_3   0.594473 0.711228 0.914936 -0.094025
C21   C     C_3   0.593602 0.711036 0.074636 -0.524713
C22   C     C_R   0.502042 0.737439 0.499180 0.818401
C23   C     C_R   0.736967 0.492293 0.498561 0.780360
C24   C     C_R   0.106682 0.377498 0.745633 -0.249411
C25   C     C_R   0.034158 0.314918 0.849351 0.222860
C26   C     C_R   0.909300 0.290286 0.825236 0.222243
C27   C     C_R   0.857942 0.336341 0.703077 -0.216322
C28   C     C_R   0.926901 0.412782 0.607071 0.055722
Cu1   Cu    Cu3+1 0.499990 0.499980 0.640670 0.931577
Cu2   Cu    Cu3+1 0.500010 0.500020 0.359330 0.936435
H1    H     H_    0.117847 0.581195 0.308291 0.162767
H2    H     H_    0.345247 0.874340 0.795525 0.152855
H3    H     H_    0.372001 0.351422 0.136471 0.144499
H4    H     H_    0.376291 0.349243 0.875160 0.173937
H5    H     H_    0.512791 0.756127 0.871003 0.180062
H6    H     H_    0.681925 0.741538 0.121026 0.194895
H7    H     H_    0.510229 0.754583 0.120263 0.198359
H8    H     H_    0.202192 0.387052 0.766681 0.184352
H9    H     H_    0.763220 0.310864 0.683446 0.165139
H10   H     H_    0.896156 0.580502 0.302918 0.154647
H11   H     H_    0.607139 0.118961 0.302762 0.162237
H12   H     H_    0.608897 0.892510 0.301569 0.151385
N1    N     N_R   0.500790 0.500930 0.147930 -0.184598
N2    N     N_R   0.500790 0.500890 0.852020 -0.205078
O1    O     O_R   0.500000 0.319640 0.618810 -0.583995
O2    O     O_R   0.500010 0.319680 0.381230 -0.587076
O3    O     O_R   0.319640 0.499980 0.618820 -0.596859
O4    O     O_R   0.319650 0.500020 0.381230 -0.574225
O5    O     O_R   0.499990 0.680320 0.618770 -0.584110
O6    O     O_R   0.500000 0.680360 0.381190 -0.583074
O7    O     O_R   0.680350 0.499980 0.618770 -0.583445
O8    O     O_R   0.680360 0.500020 0.381180 -0.581451
C29   C     C_3   0.236922 0.124220 0.607791 -0.828290
H13   H     H_    0.144566 0.106636 0.657540 0.233465
H14   H     H_    0.255976 0.225005 0.604091 0.221410
H15   H     H_    0.236438 0.092428 0.497584 0.218882
N3    N     N_2   0.339726 0.107409 0.836077 -0.432880
H16   H     H_    0.260988 0.084683 0.894159 0.256380
C30   C     C_3   0.450802 0.095344 0.916284 -0.746772
H17   H     H_    0.436077 0.135289 0.021921 0.227094
H18   H     H_    0.528266 0.147183 0.863423 0.247301
H19   H     H_    0.474860 0.996841 0.929727 0.220372
C31   C     C_3   0.716875 0.755958 0.846902 -0.809142
H20   H     H_    0.795883 0.706972 0.892232 0.230988
H21   H     H_    0.716496 0.739478 0.732267 0.251553
H22   H     H_    0.729276 0.856725 0.863731 0.228517
C32   C     C_3   0.090527 0.274208 0.984909 -0.886619
H23   H     H_    0.189827 0.298358 0.987762 0.219246
H24   H     H_    0.044242 0.320360 0.074540 0.243647
H25   H     H_    0.079722 0.172595 0.998830 0.229101
C33   C     C_3   0.829575 0.216412 0.929103 -0.884455
H26   H     H_    0.866147 0.122023 0.941567 0.231023
H27   H     H_    0.827664 0.262779 0.032303 0.241323
H28   H     H_    0.733306 0.207363 0.894153 0.221775
C34   C     C_3   0.237107 0.852723 0.605017 -0.852817
H29   H     H_    0.249070 0.751355 0.611795 0.243460
H30   H     H_    0.144643 0.873186 0.649968 0.240095
H31   H     H_    0.241887 0.880821 0.492491 0.238749

loop_
_geom_bond_atom_site_label_1
_geom_bond_atom_site_label_2
_ccdc_geom_bond_type
C31   H21   S    
C16   C21   S    
C10   H12   S    
C1    C8    S    
C19   C20   S    
C25   C32   S    
C12   O4    A    
C23   O8    A    
C7    C8    A    
C21   H6    S    
Cu1   O5    S    
C29   H13   S    
C26   C27   A    
Cu1   O3    S    
C15   C29   S    
Cu2   O4    S    
C5    C6    A    
C1    O2    A    
N3    C30   S    
C3    C12   S    
C20   H5    S    
C6    C28   A    
C27   H9    S    
C8    C9    A    
C24   H8    S    
C9    C10   A    
C22   O6    A    
C7    C15   S    
Cu2   O6    S    
C31   H22   S    
C30   H17   S    
C13   C14   S    
C26   C33   S    
C15   N3    S    
C17   H3    S    
C12   O3    A    
C29   H14   S    
C30   H18   S    
C32   H23   S    
C24   C25   A    
C33   H27   S    
C25   C26   A    
Cu1   O1    S    
C32   H24   S    
C34   H29   S    
C17   N1    A    
Cu1   Cu2   S    
C18   N2    A    
C18   H4    S    
C23   O7    A    
C17   C18   A    
C34   H30   S    
C16   N1    A    
C22   O5    A    
Cu1   N2    S    
C2    C24   A    
Cu2   N1    S    
C3    C4    A    
C19   N2    A    
Cu1   O7    S    
C29   H15   S    
Cu2   O8    S    
C30   H19   S    
Cu2   O2    S    
C14   H2    S    
C4    C5    A    
C33   H28   S    
C11   C22   S    
C9    H11   S    
C32   H25   S    
C14   C34   S    
C20   C31   S    
C2    C3    A    
C33   H26   S    
C11   C13   A    
C1    O1    A    
N3    H16   S    
C16   C19   A    
C6    C23   S    
C34   H31   S    
C4    H1    S    
C10   C11   A    
C31   H20   S    
C7    C13   A    
C21   H7    S    
C20   C21   S    
C5    H10   S    
C27   C28   A    
C14   C15   S    
C2    C28   A    
