data_mof_unit_4865.cif
_audit_creation_date              2012-12-11T14:41:04-0500
_audit_creation_method            fapswitch 2.2
_symmetry_space_group_name_H-M    P1
_symmetry_Int_Tables_number       1
_space_group_crystal_system       triclinic
_cell_length_a                    24.736435
_cell_length_b                    17.567767
_cell_length_c                    15.498847
_cell_angle_alpha                 90.255644
_cell_angle_beta                  129.395637
_cell_angle_gamma                 90.233543
_cell_volume                      5204.61168781

loop_
_atom_site_label
_atom_site_type_symbol
_atom_type_description
_atom_site_fract_x
_atom_site_fract_y
_atom_site_fract_z
_atom_type_partial_charge
C1    C     C_R   0.345310 0.365516 0.228199 -0.131744
C2    C     C_R   0.686287 0.610134 0.501479 -0.096541
C3    C     C_2   0.326255 0.879793 0.589838 0.605858
C4    C     C_2   0.748948 0.249917 0.920195 0.505601
C5    C     C_2   0.794536 0.582253 0.045382 0.514687
C6    C     C_2   0.255528 0.755300 0.925609 0.511821
C7    C     C_2   0.293491 0.083449 0.045524 0.519972
C8    C     C_2   0.586959 0.395613 0.292793 0.375344
C9    C     C_2   0.593925 0.571743 0.297213 0.402733
C10   C     C_2   0.090975 0.905052 0.295571 0.387315
C11   C     C_2   0.083013 0.098700 0.288072 0.396856
C12   C     C_R   0.177535 0.863118 0.502912 0.002006
C13   C     C_R   0.183098 0.120000 0.500833 -0.031949
C14   C     C_R   0.352289 0.326522 0.504973 0.012952
C15   C     C_R   0.321726 0.623339 0.503392 0.041259
C16   C     C_R   0.843344 0.836478 0.504795 0.029632
C17   C     C_R   0.822120 0.122101 0.504531 0.041528
C18   C     C_3   0.348791 0.239120 0.627710 -0.485768
C19   C     C_3   0.302355 0.692497 0.622068 -0.501786
C20   C     C_3   0.844414 0.742953 0.625821 -0.500560
C21   C     C_R   0.355695 0.644201 0.253949 -0.107984
C22   C     C_3   0.805704 0.192250 0.626212 -0.498790
C23   C     C_3   0.801516 0.679811 0.624936 -0.349674
C24   C     C_3   0.761557 0.253641 0.624791 -0.411081
C25   C     C_3   0.303354 0.179141 0.626558 -0.399911
C26   C     C_3   0.258182 0.754625 0.619397 -0.401192
C27   C     C_3   0.240587 0.304941 0.461623 0.646593
C28   C     C_3   0.201808 0.668914 0.419727 0.628970
C29   C     C_3   0.732905 0.806419 0.464749 0.658329
C30   C     C_3   0.702498 0.161227 0.427390 0.632334
C31   C     C_3   0.299218 0.199337 0.434345 -0.338660
C32   C     C_R   0.847657 0.862434 0.234362 -0.120819
C33   C     C_3   0.300812 0.758931 0.475404 -0.355550
C34   C     C_3   0.793812 0.709134 0.430129 -0.355468
C35   C     C_3   0.795245 0.255878 0.469515 -0.348572
C36   C     C_3   0.311264 0.268329 0.507185 0.139446
C37   C     C_3   0.281935 0.683856 0.504730 0.155292
C38   C     C_3   0.804266 0.775045 0.506289 0.154742
C39   C     C_3   0.781696 0.180878 0.506706 0.153239
C40   C     C_3   0.731719 0.666705 0.504093 0.246252
C41   C     C_3   0.714616 0.292865 0.508052 0.230760
C42   C     C_3   0.232843 0.169467 0.505588 0.219574
C43   C     C_R   0.854787 0.143442 0.252014 -0.103602
C44   C     C_3   0.217382 0.799037 0.506881 0.213105
C45   C     C_3   0.690838 0.742973 0.465096 -0.521717
C46   C     C_3   0.662860 0.229606 0.423014 -0.470680
C47   C     C_3   0.197507 0.248695 0.469499 -0.454197
C48   C     C_3   0.164444 0.740536 0.412968 -0.483095
C49   C     C_R   0.665595 0.389534 0.796398 0.016534
C50   C     C_R   0.665984 0.612098 0.796908 -0.061191
C51   C     C_R   0.165622 0.889212 0.795922 0.017696
C52   C     C_R   0.165741 0.112587 0.796557 -0.058763
C53   C     C_3   0.748286 0.645990 0.424776 -0.174936
C54   C     C_R   0.644008 0.365305 0.855016 0.200485
C55   C     C_3   0.763042 0.324028 0.484241 -0.221461
C56   C     C_3   0.250154 0.141075 0.429371 -0.175418
C57   C     C_3   0.270828 0.828393 0.492797 -0.221569
C58   C     C_2   0.691474 0.336357 0.968065 -0.170879
C59   C     C_2   0.691420 0.666079 0.971528 -0.223842
C60   C     C_2   0.192406 0.835989 0.968605 -0.168136
C61   C     C_2   0.190361 0.167687 0.969919 -0.209781
C62   C     C_2   0.746496 0.293874 0.000979 -0.001902
C63   C     C_2   0.760326 0.650708 0.047676 0.014300
C64   C     C_2   0.249710 0.796588 0.004319 -0.006367
C65   C     C_R   0.645662 0.633171 0.858779 0.169446
C66   C     C_2   0.259155 0.152348 0.046389 0.012896
C67   C     C_2   0.366147 0.758840 0.166970 -0.192526
C68   C     C_2   0.349200 0.250445 0.134405 -0.199879
C69   C     C_2   0.863184 0.256118 0.160080 -0.198353
C70   C     C_2   0.852787 0.746701 0.142266 -0.199358
C71   C     C_2   0.302661 0.783323 0.124597 -0.165124
C72   C     C_2   0.302463 0.210024 0.132784 -0.237336
C73   C     C_2   0.800591 0.281217 0.120706 -0.182216
C74   C     C_2   0.803753 0.707422 0.136042 -0.240665
C75   C     C_R   0.611412 0.385919 0.407795 -0.055310
C76   C     C_R   0.144309 0.864376 0.854720 0.195218
C77   C     C_R   0.617486 0.595096 0.408254 -0.029722
C78   C     C_R   0.113726 0.890934 0.408456 -0.039821
C79   C     C_R   0.114665 0.103216 0.407077 -0.043185
C80   C     C_R   0.408202 0.365230 0.596485 -0.139467
C81   C     C_R   0.388974 0.604627 0.594710 -0.138896
C82   C     C_R   0.902752 0.871165 0.596529 -0.147061
C83   C     C_R   0.889235 0.103667 0.595362 -0.140314
C84   C     C_R   0.682923 0.382831 0.594751 -0.150801
C85   C     C_R   0.690132 0.597328 0.592737 -0.122596
C86   C     C_R   0.185505 0.888206 0.594485 -0.155948
C87   C     C_R   0.145052 0.134105 0.857805 0.162173
C88   C     C_R   0.189002 0.101939 0.592826 -0.143002
C89   C     C_R   0.330843 0.364081 0.409758 -0.065279
C90   C     C_R   0.313636 0.603709 0.409560 -0.100199
C91   C     C_R   0.824412 0.871807 0.409675 -0.070239
C92   C     C_R   0.813583 0.103113 0.410108 -0.100073
C93   C     C_R   0.576162 0.389585 0.799270 -0.154093
C94   C     C_R   0.576173 0.611465 0.799298 -0.129879
C95   C     C_R   0.076188 0.888666 0.798855 -0.152905
C96   C     C_R   0.075750 0.112045 0.798600 -0.125886
C97   C     C_R   0.438413 0.359059 0.235748 -0.141761
C98   C     C_R   0.673208 0.354890 0.502806 -0.004557
C99   C     C_R   0.447998 0.647503 0.258315 -0.043915
C100  C     C_R   0.940403 0.857391 0.240198 -0.167235
C101  C     C_R   0.945244 0.145586 0.251713 -0.166462
C102  C     C_R   0.376717 0.322439 0.196624 0.171090
C103  C     C_R   0.391674 0.688940 0.231529 0.084115
C104  C     C_R   0.879761 0.819136 0.203900 0.178251
C105  C     C_R   0.889397 0.187111 0.226073 0.148588
C106  C     C_2   0.780494 0.568053 0.446677 0.490628
C107  C     C_2   0.816534 0.380922 0.573410 0.568250
C108  C     C_2   0.277003 0.060156 0.455951 0.496271
F1    F     F_    0.201789 0.326342 0.350925 -0.696904
F2    F     F_    0.177758 0.651289 0.313388 -0.715607
F3    F     F_    0.694312 0.835311 0.357658 -0.709068
F4    F     F_    0.676368 0.143954 0.319752 -0.708445
H1    H     H_    0.292954 0.358326 0.199418 0.103013
H2    H     H_    0.797825 0.294656 0.693589 0.177055
H3    H     H_    0.331545 0.124115 0.658542 0.194403
H4    H     H_    0.294094 0.792266 0.693204 0.171962
H5    H     H_    0.294536 0.199143 0.684937 0.162678
H6    H     H_    0.220840 0.728498 0.628228 0.197295
H7    H     H_    0.790993 0.698456 0.681703 0.148207
H8    H     H_    0.728531 0.227553 0.642706 0.194724
H9    H     H_    0.250339 0.356840 0.511466 0.020293
H10   H     H_    0.188050 0.620213 0.448453 0.045425
H11   H     H_    0.741764 0.853461 0.520989 0.021843
H12   H     H_    0.308430 0.658000 0.240351 0.105221
H13   H     H_    0.693097 0.110801 0.459688 0.041819
H14   H     H_    0.679284 0.759570 0.521352 0.145872
H15   H     H_    0.628614 0.210364 0.442289 0.135584
H16   H     H_    0.192307 0.270212 0.531694 0.122788
H17   H     H_    0.123773 0.724226 0.419892 0.139701
H18   H     H_    0.767640 0.729716 0.344049 0.154134
H19   H     H_    0.770712 0.251172 0.379621 0.178272
H20   H     H_    0.274914 0.217745 0.348048 0.163475
H21   H     H_    0.277880 0.756699 0.386110 0.176848
H22   H     H_    0.350700 0.174791 0.468892 0.208942
H23   H     H_    0.796761 0.852744 0.210359 0.093172
H24   H     H_    0.358297 0.764146 0.523892 0.206943
H25   H     H_    0.845808 0.687603 0.462043 0.196450
H26   H     H_    0.852144 0.264332 0.515060 0.204264
H27   H     H_    0.699118 0.646678 0.337416 0.087867
H28   H     H_    0.733545 0.356281 0.406070 0.170701
H29   H     H_    0.203122 0.139300 0.341432 0.178081
H30   H     H_    0.244883 0.863877 0.417720 0.175579
H31   H     H_    0.718700 0.391815 0.826234 0.083040
H32   H     H_    0.718098 0.614930 0.822715 0.090470
H33   H     H_    0.218626 0.892000 0.825389 0.081338
H34   H     H_    0.807684 0.157143 0.239014 0.097153
H35   H     H_    0.217914 0.115573 0.822619 0.088899
H36   H     H_    0.639544 0.736698 0.379686 0.208045
H37   H     H_    0.627407 0.250410 0.336463 0.250711
H38   H     H_    0.143568 0.246681 0.388669 0.248982
H39   H     H_    0.136881 0.765397 0.329282 0.243841
H40   H     H_    0.283504 0.775384 0.170567 0.148360
H41   H     H_    0.286943 0.228090 0.181346 0.153968
H42   H     H_    0.782976 0.274494 0.169078 0.148460
H43   H     H_    0.786637 0.725893 0.182171 0.148677
H44   H     H_    0.388698 0.774380 0.127982 0.131137
H45   H     H_    0.400436 0.214263 0.663253 0.215970
H46   H     H_    0.364074 0.232734 0.084797 0.130081
H47   H     H_    0.884142 0.270518 0.118258 0.136654
H48   H     H_    0.869104 0.728580 0.094811 0.127717
H49   H     H_    0.686021 0.357521 0.028229 0.142811
H50   H     H_    0.669538 0.712616 0.986872 0.141992
H51   H     H_    0.184857 0.854821 0.027214 0.143894
H52   H     H_    0.168416 0.214829 0.984161 0.146753
H53   H     H_    0.435546 0.355393 0.683870 0.106012
H54   H     H_    0.413116 0.607684 0.682146 0.104523
H55   H     H_    0.929845 0.862094 0.684073 0.104091
H56   H     H_    0.358375 0.709405 0.685017 0.220933
H57   H     H_    0.913448 0.105807 0.682876 0.102516
H58   H     H_    0.727271 0.377333 0.682159 0.100251
H59   H     H_    0.736471 0.595831 0.679558 0.097647
H60   H     H_    0.230467 0.884294 0.681832 0.098026
H61   H     H_    0.235626 0.100455 0.679386 0.097524
H62   H     H_    0.284413 0.353135 0.325530 0.159660
H63   H     H_    0.267519 0.606340 0.323116 0.186063
H64   H     H_    0.776816 0.863931 0.325196 0.154957
H65   H     H_    0.767158 0.106259 0.323839 0.182187
H66   H     H_    0.548699 0.391038 0.832399 0.105593
H67   H     H_    0.896021 0.720112 0.657709 0.221578
H68   H     H_    0.547030 0.612310 0.829584 0.108140
H69   H     H_    0.048540 0.889383 0.831689 0.105295
H70   H     H_    0.046469 0.113143 0.828635 0.110007
H71   H     H_    0.473454 0.338397 0.222768 0.095507
H72   H     H_    0.487177 0.668838 0.254180 0.148773
H73   H     H_    0.976731 0.836984 0.229520 0.098367
H74   H     H_    0.980375 0.164974 0.238237 0.147627
H75   H     H_    0.357876 0.286894 0.683110 0.158809
H76   H     H_    0.294586 0.637774 0.648990 0.170040
H77   H     H_    0.854044 0.788687 0.684217 0.154284
H78   H     H_    0.861400 0.211173 0.684982 0.222246
H79   H     H_    0.800904 0.138025 0.657857 0.166255
H80   H     H_    0.748494 0.520474 0.392436 -0.006437
H81   H     H_    0.798269 0.434062 0.582404 0.017776
H82   H     H_    0.241263 0.014214 0.436457 0.007317
H83   H     H_    0.310206 0.932118 0.604936 -0.007528
H84   H     H_    0.798438 0.233869 0.941824 0.004742
H85   H     H_    0.850654 0.582606 0.091661 0.020175
H86   H     H_    0.306116 0.744451 0.948063 0.005804
H87   H     H_    0.349636 0.083749 0.092026 0.020037
H88   H     H_    0.539915 0.427652 0.233601 0.103409
H89   H     H_    0.832283 0.626563 0.659676 0.212067
H90   H     H_    0.630890 0.552471 0.286959 0.020984
H91   H     H_    0.038991 0.926233 0.230866 0.027419
H92   H     H_    0.048575 0.051676 0.237708 0.032345
N1    N     N_R   0.389430 0.421450 0.294590 -0.048921
N2    N     N_R   0.581780 0.577610 0.443390 -0.049212
N3    N     N_R   0.081780 0.922390 0.443390 -0.072810
N4    N     N_R   0.081780 0.077610 0.443390 -0.069188
N5    N     N_R   0.419850 0.423100 0.556610 -0.038891
N6    N     N_R   0.419850 0.576900 0.556610 -0.040972
N7    N     N_R   0.919850 0.923100 0.556610 -0.036609
N8    N     N_R   0.919850 0.076900 0.556610 -0.039123
N9    N     N_R   0.627410 0.423100 0.556610 -0.042027
N10   N     N_R   0.627410 0.576900 0.556610 -0.049402
N11   N     N_R   0.127410 0.923100 0.556610 -0.038396
N12   N     N_R   0.389430 0.578550 0.294590 -0.055155
N13   N     N_R   0.127410 0.076900 0.556610 -0.040794
N14   N     N_R   0.374220 0.422390 0.443390 -0.048371
N15   N     N_R   0.374220 0.577610 0.443390 -0.057631
N16   N     N_R   0.874220 0.922390 0.443390 -0.048682
N17   N     N_R   0.874220 0.077610 0.443390 -0.055149
N18   N     N_R   0.555000 0.424040 0.705410 -0.048179
N19   N     N_R   0.555000 0.575960 0.705410 -0.050147
N20   N     N_R   0.055000 0.924040 0.705410 -0.048099
N21   N     N_R   0.055000 0.075960 0.705410 -0.049565
N22   N     N_R   0.446630 0.421450 0.294590 -0.046709
N23   N     N_R   0.889430 0.921450 0.294590 -0.046003
N24   N     N_R   0.446630 0.578550 0.294590 -0.032640
N25   N     N_R   0.946630 0.921450 0.294590 -0.053302
N26   N     N_R   0.946630 0.078550 0.294590 -0.054874
N27   N     N_R   0.889430 0.078550 0.294590 -0.046813
N28   N     N_R   0.612200 0.424040 0.705410 -0.058404
N29   N     N_R   0.612200 0.575960 0.705410 -0.055563
N30   N     N_R   0.112200 0.924040 0.705410 -0.057974
N31   N     N_R   0.112200 0.075960 0.705410 -0.052504
N32   N     N_R   0.581780 0.422390 0.443390 -0.069464
Ni1   Ni    Ni4+2 0.382890 0.500000 0.370170 0.236709
Ni2   Ni    Ni4+2 0.882890 0.000000 0.370170 0.235187
Ni3   Ni    Ni4+2 0.618740 0.500000 0.629830 0.217163
Ni4   Ni    Ni4+2 0.118740 0.000000 0.629830 0.220552
Ni5   Ni    Ni4+2 0.514090 0.500000 0.370170 0.257617
Ni6   Ni    Ni4+2 0.014090 0.000000 0.370170 0.199960
Ni7   Ni    Ni4+2 0.487550 0.500000 0.629830 0.216160
Ni8   Ni    Ni4+2 0.987550 0.000000 0.629830 0.220671
O1    O     O_2   0.841942 0.557123 0.526028 -0.564744
O2    O     O_2   0.532062 0.568536 0.215903 -0.604723
O3    O     O_2   0.129920 0.896965 0.273567 -0.608642
O4    O     O_2   0.086257 0.151575 0.240785 -0.583959
O5    O     O_2   0.879297 0.368530 0.636108 -0.556600
O6    O     O_2   0.337376 0.045041 0.498409 -0.566602
O7    O     O_2   0.388288 0.863754 0.652432 -0.568838
O8    O     O_2   0.695348 0.227806 0.830518 -0.581481
O9    O     O_2   0.761455 0.523766 0.997608 -0.606264
O10   O     O_2   0.203664 0.729741 0.836683 -0.580213
O11   O     O_2   0.260465 0.024783 0.998569 -0.604654
O12   O     O_2   0.617741 0.370410 0.261515 -0.606775

loop_
_geom_bond_atom_site_label_1
_geom_bond_atom_site_label_2
_ccdc_geom_bond_type
C58   C62   D    
C99   C103  A    
C13   C79   A    
C24   H2    S    
C35   H19   S    
C45   H36   S    
N31   Ni4   S    
C106  H80   S    
N5    Ni7   S    
C27   H9    S    
C99   N24   A    
C26   C44   S    
C47   H16   S    
C15   C81   A    
N21   Ni8   S    
N7    N16   A    
C18   C25   S    
C6    O10   D    
N12   N24   A    
C57   H30   S    
C23   H89   S    
C51   N30   A    
C86   H60   S    
N5    N14   A    
C92   N17   A    
C47   H38   S    
C68   C102  S    
N6    Ni7   S    
C84   H58   S    
C25   H3    S    
C76   C95   A    
C14   C36   S    
C43   N27   A    
C51   H33   S    
C5    O9    D    
C79   N4    A    
C61   H52   S    
C4    C62   S    
C18   H75   S    
C100  C104  A    
C60   H51   S    
C88   N13   A    
C5    C63   S    
C2    C85   A    
C43   C105  A    
C64   C71   S    
C6    C64   S    
C91   N16   A    
C19   C26   S    
C17   C39   S    
C86   N11   A    
C41   C55   S    
C54   C93   A    
N20   N30   A    
N19   N29   A    
C42   C56   S    
C89   N14   A    
C78   N3    A    
C53   C106  S    
C30   F4    S    
C56   C108  S    
N24   Ni5   S    
N19   Ni7   S    
C12   C78   A    
C73   H42   S    
C70   C74   D    
N28   Ni3   S    
C41   C46   S    
C32   C104  A    
C62   C73   S    
C69   C73   D    
C101  N26   A    
C14   C80   A    
C31   C56   S    
C22   H78   S    
N9    N32   A    
C1    N1    A    
C10   H91   S    
C45   H14   S    
C70   H48   S    
C83   N8    A    
C82   H55   S    
N2    N10   A    
C81   N6    A    
C29   H11   S    
C30   H13   S    
N18   N28   A    
C49   C54   A    
C53   H27   S    
C101  C105  A    
C24   C41   S    
N16   Ni2   S    
C17   C92   A    
C1    H1    S    
C89   H62   S    
C31   H22   S    
C68   H46   S    
C61   C66   D    
C16   C82   A    
C13   C42   S    
C50   H32   S    
C97   H71   S    
C20   H67   S    
C26   H4    S    
N8    N17   A    
C10   C78   S    
C40   C45   S    
C66   C72   S    
C24   H8    S    
C107  O5    D    
C35   C55   S    
N21   N31   A    
C46   H15   S    
N1    N22   A    
C51   C76   A    
C4    O8    D    
C92   H65   S    
N3    Ni6   S    
C96   H70   S    
C20   H77   S    
C6    H86   S    
C69   C105  S    
N20   Ni8   S    
N22   Ni5   S    
C9    C77   S    
C35   H26   S    
C28   F2    S    
C67   C103  S    
N23   Ni2   S    
C90   H63   S    
C8    O12   D    
C75   C98   A    
C3    H83   S    
C55   H28   S    
C29   C45   S    
C67   H44   S    
C17   C83   A    
C21   C103  A    
N32   Ni5   S    
C29   C38   S    
C50   N29   A    
C35   C39   S    
C14   C89   A    
N12   Ni1   S    
C31   H20   S    
N26   Ni6   S    
C2    C40   S    
C19   H76   S    
C20   C38   S    
C71   H40   S    
C20   C23   S    
C44   C57   S    
C68   C72   D    
N18   Ni7   S    
C87   C96   A    
C46   H37   S    
N3    N11   A    
C99   H72   S    
C21   N12   A    
C75   N32   A    
N30   Ni4   S    
N1    Ni1   S    
C9    O2    D    
N13   Ni4   S    
C34   H18   S    
C90   N15   A    
C93   N18   A    
C11   C79   S    
C34   C53   S    
C56   H29   S    
C3    O7    D    
C65   C94   A    
N23   N25   A    
C52   H35   S    
N27   Ni2   S    
C18   H45   S    
C94   N19   A    
C22   C24   S    
C48   H17   S    
C8    H88   S    
N2    Ni5   S    
C19   C37   S    
C19   H56   S    
C11   O4    D    
C108  H82   S    
C101  H74   S    
C3    C57   S    
C80   H53   S    
C107  H81   S    
C84   N9    A    
C61   C87   S    
C82   N7    A    
C54   C58   S    
C28   H10   S    
C27   C47   S    
N4    N13   A    
C4    H84   S    
C100  N25   A    
C33   C57   S    
C72   H41   S    
C49   H31   S    
C7    O11   D    
C97   C102  A    
C34   C38   S    
C70   C104  S    
N7    Ni8   S    
C29   F3    S    
C52   C87   A    
C95   H69   S    
C26   H6    S    
N4    Ni6   S    
N9    Ni3   S    
C25   H5    S    
C25   C42   S    
C32   H23   S    
C5    H85   S    
C93   H66   S    
N11   Ni4   S    
C63   C74   S    
C12   C86   A    
C27   C36   S    
C94   H68   S    
C34   H25   S    
C59   C63   D    
C95   N20   A    
C30   C46   S    
N17   Ni2   S    
C60   C64   D    
C84   C98   A    
C96   N21   A    
N15   Ni1   S    
C49   N28   A    
C100  H73   S    
N29   Ni3   S    
C91   H64   S    
N8    Ni8   S    
C43   H34   S    
C15   C37   S    
C77   N2    A    
C59   C65   S    
C7    C66   S    
C23   H7    S    
N25   Ni6   S    
C88   H61   S    
C33   H24   S    
C48   H39   S    
C28   C37   S    
C21   H12   S    
C22   C39   S    
C83   H57   S    
C13   C88   A    
C69   H47   S    
C28   C48   S    
C60   C76   S    
C30   C39   S    
N10   Ni3   S    
C67   C71   D    
C11   H92   S    
C8    C75   S    
C106  O1    D    
C7    H87   S    
N26   N27   A    
C50   C65   A    
C33   C37   S    
C1    C102  A    
C9    H90   S    
N6    N15   A    
C85   H59   S    
C44   C48   S    
C33   H21   S    
C42   C47   S    
C97   N22   A    
C27   F1    S    
C16   C91   A    
C12   C44   S    
C40   C53   S    
C32   N23   A    
C108  O6    D    
C81   H54   S    
C59   H50   S    
C2    C77   A    
C31   C36   S    
C10   O3    D    
C55   C107  S    
N14   Ni1   S    
C22   H79   S    
C85   N10   A    
C58   H49   S    
C18   C36   S    
C74   H43   S    
C41   C98   S    
C23   C40   S    
C52   N31   A    
C16   C38   S    
C80   N5    A    
C15   C90   A    
