data_mof_unit_2960.cif
_audit_creation_date              2012-12-11T16:24:11-0500
_audit_creation_method            fapswitch 2.2
_symmetry_space_group_name_H-M    P1
_symmetry_Int_Tables_number       1
_space_group_crystal_system       triclinic
_cell_length_a                    14.695717
_cell_length_b                    14.706222
_cell_length_c                    33.217503
_cell_angle_alpha                 96.085402
_cell_angle_beta                  96.328303
_cell_angle_gamma                 61.204966
_cell_volume                      6241.34636862

loop_
_atom_site_label
_atom_site_type_symbol
_atom_type_description
_atom_site_fract_x
_atom_site_fract_y
_atom_site_fract_z
_atom_type_partial_charge
C1    C     C_R   0.389946 0.701809 0.446469 0.558447
C2    C     C_R   0.330139 0.339247 0.309680 0.006315
C3    C     C_R   0.401745 0.249698 0.330077 0.038368
C4    C     C_R   0.416065 0.257976 0.373359 0.016449
C5    C     C_R   0.400430 0.291699 0.164025 0.064151
C6    C     C_R   0.390707 0.271598 0.121103 0.035155
C7    C     C_R   0.202897 0.343499 0.125217 -0.134418
C8    C     C_R   0.213011 0.361193 0.166706 -0.125484
C9    C     C_R   0.310572 0.332649 0.186319 0.042547
C10   C     C_1   0.316711 0.339023 0.229873 -0.024381
C11   C     C_1   0.321877 0.340593 0.266234 -0.025013
C12   C     C_R   0.403504 0.384226 0.434579 0.549596
C13   C     C_R   0.290492 0.295109 0.102151 0.020035
C14   C     C_R   0.762206 0.372912 0.410937 -0.019045
C15   C     C_R   0.778520 0.446089 0.393068 -0.123299
C16   C     C_R   0.805699 0.431068 0.353038 0.012925
C17   C     C_R   0.814044 0.341492 0.330010 0.021117
C18   C     C_R   0.811373 0.262189 0.348946 -0.141827
C19   C     C_R   0.788524 0.275355 0.389749 0.040037
C20   C     C_R   0.823373 0.324889 0.204473 0.326134
C21   C     C_R   0.816764 0.333244 0.285907 0.326269
C22   C     C_R   0.808910 0.406865 0.138262 -0.021548
C23   C     C_R   0.702916 0.408999 0.447916 0.559294
C24   C     C_R   0.840885 0.388768 0.097958 0.046422
C25   C     C_R   0.902217 0.202048 0.101141 -0.030992
C26   C     C_R   0.870448 0.221389 0.140562 -0.126606
C27   C     C_R   0.831257 0.319984 0.160269 0.008171
C28   C     C_R   0.897340 0.285132 0.080774 -0.004364
C29   C     C_R   0.365784 0.762383 0.410116 -0.018653
C30   C     C_R   0.273968 0.781627 0.386066 -0.120348
C31   C     C_R   0.258109 0.812471 0.346375 0.011517
C32   C     C_R   0.338137 0.820951 0.329977 0.019773
C33   C     C_R   0.423719 0.814410 0.355212 -0.138777
C34   C     C_R   0.392757 0.702940 0.561031 0.539479
C35   C     C_R   0.437420 0.787886 0.395577 0.036787
C36   C     C_R   0.350407 0.832584 0.205845 0.372213
C37   C     C_R   0.339396 0.827459 0.286342 0.334095
C38   C     C_R   0.277553 0.818598 0.136102 -0.146366
C39   C     C_R   0.255290 0.845048 0.095540 0.030029
C40   C     C_R   0.379194 0.912073 0.105651 -0.147904
C41   C     C_R   0.404469 0.881729 0.145567 0.047585
C42   C     C_R   0.347522 0.841164 0.161822 -0.019020
C43   C     C_R   0.301020 0.899845 0.081003 -0.028290
C44   C     C_R   0.367410 0.368547 0.583865 0.021249
C45   C     C_R   0.406809 0.388610 0.548827 0.543567
C46   C     C_R   0.279485 0.449412 0.601725 -0.123819
C47   C     C_R   0.254744 0.439979 0.639725 -0.113410
C48   C     C_R   0.316476 0.349066 0.660222 0.035408
C49   C     C_R   0.398315 0.264396 0.640806 -0.116950
C50   C     C_R   0.424101 0.274296 0.602901 -0.129695
C51   C     C_R   0.294115 0.346761 0.784252 0.338593
C52   C     C_R   0.303372 0.347878 0.703251 0.345169
C53   C     C_R   0.212729 0.420988 0.852649 -0.010690
C54   C     C_R   0.212463 0.401917 0.893802 0.062874
C55   C     C_R   0.370964 0.237202 0.886278 -0.142242
C56   C     C_R   0.705330 0.411448 0.561899 0.538657
C57   C     C_R   0.373182 0.256072 0.846623 -0.124282
C58   C     C_R   0.292569 0.343731 0.828547 0.023903
C59   C     C_R   0.287733 0.305339 0.909378 -0.012402
C60   C     C_R   0.768072 0.375155 0.600822 -0.010178
C61   C     C_R   0.790413 0.446637 0.625801 -0.135202
C62   C     C_R   0.822960 0.431603 0.666944 0.054569
C63   C     C_R   0.827627 0.344942 0.683630 -0.004466
C64   C     C_R   0.815767 0.268631 0.658360 -0.109621
C65   C     C_R   0.793402 0.278684 0.616395 0.005893
C66   C     C_R   0.932276 0.209708 0.819555 0.043919
C67   C     C_R   0.361502 0.358169 0.394306 -0.001363
C68   C     C_R   0.951031 0.198099 0.861213 -0.154459
C69   C     C_R   0.842883 0.384079 0.875577 0.066293
C70   C     C_R   0.819915 0.397660 0.833145 -0.021271
C71   C     C_R   0.868776 0.310082 0.805415 -0.002704
C72   C     C_1   0.853370 0.322426 0.762389 0.064480
C73   C     C_1   0.842135 0.332496 0.726486 0.067092
C74   C     C_R   0.912028 0.283982 0.889193 -0.028400
C75   C     C_R   0.375818 0.758184 0.601768 0.008376
C76   C     C_R   0.275516 0.820147 0.616719 0.013214
C77   C     C_R   0.268022 0.847700 0.658480 -0.121818
C78   C     C_R   0.275426 0.438600 0.373395 0.027478
C79   C     C_R   0.356953 0.816858 0.685103 0.001272
C80   C     C_R   0.456692 0.763865 0.669961 0.053671
C81   C     C_R   0.464498 0.736095 0.628330 -0.144756
C82   C     C_R   0.395198 0.881498 0.832444 -0.113200
C83   C     C_R   0.385510 0.896903 0.874422 0.017649
C84   C     C_R   0.235302 0.865241 0.864638 0.033190
C85   C     C_R   0.247315 0.850166 0.822756 -0.103422
C86   C     C_R   0.323810 0.862857 0.806714 -0.019985
C87   C     C_1   0.333505 0.849919 0.763788 0.037861
C88   C     C_1   0.343277 0.836988 0.727870 0.048023
C89   C     C_R   0.264092 0.429468 0.331219 -0.141392
C90   C     C_R   0.297583 0.900503 0.890477 -0.020962
C91   C     C_R   0.961689 0.264587 0.045490 0.551616
C92   C     C_R   0.273358 0.260158 0.059916 0.533895
C93   C     C_R   0.260161 0.958372 0.043699 0.572905
C94   C     C_R   0.961377 0.268071 0.930929 0.577405
C95   C     C_R   0.270977 0.265134 0.945478 0.548805
C96   C     C_R   0.258615 0.960569 0.929743 0.580880
Cr1   Cr    Cr6+3 0.576280 0.580550 0.506370 1.063438
Cr2   Cr    Cr6+3 0.346780 0.572400 0.496520 1.047186
Cr3   Cr    Cr6+3 0.576960 0.347070 0.497150 1.043308
Cr4   Cr    Cr6+3 0.087320 0.083240 0.984860 1.060693
Cr5   Cr    Cr6+3 0.087720 0.316210 0.996740 1.108728
Cr6   Cr    Cr6+3 0.317350 0.090340 0.995890 1.063740
H1    H     H_    0.824356 0.190970 0.331383 0.155206
H2    H     H_    0.879676 0.157285 0.157054 0.132706
H3    H     H_    0.215688 0.767801 0.397438 0.182769
H4    H     H_    0.481876 0.826970 0.342910 0.156457
H5    H     H_    0.237331 0.783097 0.148125 0.176955
H6    H     H_    0.418748 0.949071 0.094247 0.171399
H7    H     H_    0.233539 0.522694 0.587618 0.135364
H8    H     H_    0.491757 0.210480 0.589649 0.132058
H9    H     H_    0.190230 0.505677 0.653906 0.140719
H10   H     H_    0.446820 0.193299 0.656065 0.141422
H11   H     H_    0.431373 0.164708 0.897828 0.182381
H12   H     H_    0.436679 0.198474 0.829253 0.159893
H13   H     H_    0.004356 0.121628 0.871807 0.175588
H14   H     H_    0.824421 0.200397 0.671605 0.134685
H15   H     H_    0.777705 0.517529 0.613558 0.190390
H16   H     H_    0.459467 0.882608 0.819676 0.178736
H17   H     H_    0.541333 0.690064 0.617096 0.165850
H18   H     H_    0.197779 0.827163 0.802543 0.171837
H19   H     H_    0.192051 0.891540 0.670668 0.113081
H20   H     H_    0.144353 0.393481 0.183869 0.124298
H21   H     H_    0.125971 0.362127 0.111509 0.155208
H22   H     H_    0.203048 0.493670 0.314819 0.146462
H23   H     H_    0.764190 0.518974 0.409477 0.173381
N1    N     N_R   0.741593 0.402562 0.223341 -0.256727
N2    N     N_R   0.266008 0.437797 0.726836 -0.226511
N3    N     N_R   0.336771 0.257086 0.720861 -0.219249
N4    N     N_R   0.331670 0.256702 0.760570 -0.215653
N5    N     N_R   0.738427 0.406871 0.263364 -0.233236
N6    N     N_R   0.897067 0.253515 0.267115 -0.228638
N7    N     N_R   0.900277 0.249642 0.227078 -0.226187
N8    N     N_R   0.333706 0.759032 0.219992 -0.232109
N9    N     N_R   0.329085 0.756072 0.259562 -0.226400
N10   N     N_R   0.356754 0.900627 0.272357 -0.226482
N11   N     N_R   0.360997 0.903755 0.232761 -0.181489
N12   N     N_R   0.261984 0.437092 0.766557 -0.238923
O1    O     O_R   0.679450 0.499830 0.463150 -0.514721
O2    O     O_R   0.356040 0.477400 0.534170 -0.497193
O3    O     O_R   0.495910 0.323070 0.537100 -0.523211
O4    O     O_R   0.663920 0.359620 0.542290 -0.500692
O5    O     O_3   0.500010 0.500010 0.500010 -0.254179
O6    O     O_R   0.170070 0.978950 0.027680 -0.485471
O7    O     O_R   0.001760 0.175230 0.026640 -0.519199
O8    O     O_R   0.984760 0.333570 0.037150 -0.475930
O9    O     O_R   0.183410 0.309240 0.041890 -0.492366
O10   O     O_R   0.340240 0.172500 0.045430 -0.524466
O11   O     O_R   0.309670 0.000990 0.032050 -0.499446
O12   O     O_R   0.480650 0.664000 0.464630 -0.454122
O13   O     O_R   0.168330 0.982130 0.939200 -0.474068
O14   O     O_R   0.000140 0.178170 0.944610 -0.509247
O15   O     O_R   0.983010 0.336750 0.948660 -0.457515
O16   O     O_R   0.181800 0.312190 0.959860 -0.468060
O17   O     O_R   0.338500 0.175680 0.956950 -0.513233
O18   O     O_R   0.308050 0.003930 0.950020 -0.465734
O19   O     O_3   0.164130 0.163270 0.992500 -0.273855
O20   O     O_R   0.323930 0.675950 0.455370 -0.514526
O21   O     O_R   0.354700 0.475360 0.451930 -0.454404
O22   O     O_R   0.494470 0.320860 0.448390 -0.523762
O23   O     O_R   0.662580 0.357570 0.460050 -0.457675
O24   O     O_R   0.680900 0.502040 0.551870 -0.517510
O25   O     O_R   0.481990 0.666040 0.546870 -0.493906
O26   O     O_R   0.325370 0.678160 0.544080 -0.523612
C97   C     C_3   0.483835 0.231635 0.095473 -0.266215
C98   C     C_3   0.552171 0.113522 0.096015 -0.393049
H24   H     H_    0.586004 0.088997 0.126932 0.158985
H25   H     H_    0.506946 0.072487 0.084873 0.205170
H26   H     H_    0.617056 0.088249 0.076052 0.130199
H27   H     H_    0.458117 0.252543 0.063530 0.164071
H28   H     H_    0.531063 0.271230 0.105759 0.137714
C99   C     C_2   0.794054 0.185836 0.408813 0.579833
O27   O     O_2   0.822898 0.172223 0.444668 -0.519604
O28   O     O_R   0.771268 0.113854 0.385221 -0.742842
H29   H     H_    0.778882 0.055687 0.401469 0.332811
C100  C     C_2   0.815280 0.477996 0.073505 0.587110
O29   O     O_2   0.764823 0.487487 0.040942 -0.493743
O30   O     O_R   0.851290 0.549010 0.087113 -0.710381
H30   H     H_    0.829443 0.605595 0.067582 0.347148
C101  C     C_3   0.822357 0.513353 0.335968 -0.269469
C102  C     C_3   0.918928 0.516840 0.356642 -0.415923
H31   H     H_    0.930844 0.575495 0.342804 0.160710
H32   H     H_    0.909825 0.538821 0.389548 0.172683
H33   H     H_    0.988891 0.439792 0.352624 0.169292
H34   H     H_    0.832938 0.499335 0.302964 0.169763
H35   H     H_    0.752867 0.590597 0.340474 0.183249
C103  C     C_3   0.753762 0.517291 0.157527 -0.235669
C104  C     C_3   0.828579 0.543383 0.185727 -0.390908
H36   H     H_    0.861751 0.491606 0.211340 0.161301
H37   H     H_    0.893368 0.535157 0.168731 0.185129
H38   H     H_    0.786232 0.624908 0.198363 0.173748
H39   H     H_    0.716754 0.576180 0.134477 0.182715
H40   H     H_    0.686653 0.529392 0.173799 0.180476
C105  C     C_3   0.943235 0.090797 0.083442 -0.245431
C106  C     C_3   0.869507 0.081735 0.048971 -0.388753
H41   H     H_    0.854857 0.134141 0.024605 0.178927
H42   H     H_    0.903985 0.000476 0.035709 0.156202
H43   H     H_    0.793844 0.102047 0.060893 0.139136
H44   H     H_    0.023185 0.059057 0.074018 0.197186
H45   H     H_    0.951105 0.038009 0.106755 0.156119
C107  C     C_2   0.526389 0.788281 0.421299 0.581724
O31   O     O_2   0.609755 0.758655 0.406735 -0.549292
O32   O     O_R   0.513644 0.826746 0.461785 -0.690461
H46   H     H_    0.579486 0.824046 0.476035 0.331119
C108  C     C_2   0.184410 0.814120 0.069754 0.585587
O33   O     O_2   0.199342 0.787002 0.033929 -0.453900
O34   O     O_R   0.102722 0.812021 0.086883 -0.723205
H47   H     H_    0.060185 0.789160 0.066373 0.346216
C109  C     C_3   0.503967 0.270887 0.186753 -0.283421
C110  C     C_3   0.507749 0.372094 0.199023 -0.415568
H48   H     H_    0.501867 0.412234 0.171587 0.164234
H49   H     H_    0.443599 0.424773 0.218490 0.176992
H50   H     H_    0.582698 0.354351 0.216414 0.180474
H51   H     H_    0.515914 0.228389 0.214219 0.148163
H52   H     H_    0.572008 0.220554 0.169076 0.141659
C111  C     C_3   0.156123 0.833809 0.322644 -0.269028
C112  C     C_3   0.064233 0.928307 0.341412 -0.417227
H53   H     H_    0.055260 0.914245 0.372564 0.170313
H54   H     H_    0.075675 0.997941 0.342551 0.169769
H55   H     H_    0.991364 0.944090 0.322642 0.160246
H56   H     H_    0.155093 0.849659 0.290694 0.173440
H57   H     H_    0.144370 0.764477 0.322164 0.184083
C113  C     C_2   0.490272 0.893877 0.169186 0.589086
O35   O     O_2   0.547052 0.830879 0.193940 -0.508256
O36   O     O_R   0.507975 0.976055 0.162287 -0.725785
H58   H     H_    0.568476 0.976179 0.180163 0.331259
C114  C     C_2   0.132989 0.481312 0.920390 0.577156
O37   O     O_2   0.160514 0.516285 0.951558 -0.491770
O38   O     O_R   0.027391 0.513498 0.910440 -0.679875
H59   H     H_    0.981235 0.566948 0.931188 0.364225
C115  C     C_3   0.463423 0.148108 0.305173 -0.269112
C116  C     C_3   0.575798 0.125073 0.302765 -0.428256
H60   H     H_    0.616946 0.115418 0.333297 0.196405
H61   H     H_    0.617800 0.052244 0.283745 0.152793
H62   H     H_    0.577445 0.189597 0.288800 0.159236
H63   H     H_    0.459831 0.082338 0.317047 0.155014
H64   H     H_    0.429073 0.150161 0.273619 0.169148
C117  C     C_3   0.126230 0.520287 0.834738 -0.254846
C118  C     C_3   0.044244 0.499945 0.808978 -0.364533
H65   H     H_    0.078691 0.443860 0.782899 0.189551
H66   H     H_    0.008928 0.468348 0.827648 0.196332
H67   H     H_    0.981746 0.573905 0.797035 0.178659
H68   H     H_    0.086261 0.581924 0.858476 0.187322
H69   H     H_    0.157969 0.557172 0.817193 0.181389
C119  C     C_2   0.983905 0.115073 0.791824 0.572390
O39   O     O_2   0.999735 0.030850 0.801990 -0.493757
O40   O     O_R   0.017113 0.120937 0.754769 -0.702448
H70   H     H_    0.051986 0.050938 0.739160 0.332039
C120  C     C_3   0.797562 0.185748 0.590055 -0.255255
C121  C     C_3   0.900708 0.086738 0.597231 -0.453095
H71   H     H_    0.967146 0.101431 0.594569 0.166132
H72   H     H_    0.907139 0.058299 0.627584 0.149530
H73   H     H_    0.905452 0.024459 0.574130 0.144481
H74   H     H_    0.732098 0.172802 0.596353 0.151138
H75   H     H_    0.792191 0.197176 0.557359 0.189631
C122  C     C_3   0.742475 0.504030 0.817519 -0.266359
C123  C     C_3   0.630400 0.531613 0.823767 -0.409065
H76   H     H_    0.611537 0.472090 0.807554 0.164791
H77   H     H_    0.618022 0.536539 0.856430 0.187381
H78   H     H_    0.576290 0.608240 0.811406 0.175715
H79   H     H_    0.760432 0.565335 0.832123 0.204178
H80   H     H_    0.747077 0.507734 0.784742 0.180952
C124  C     C_2   0.794004 0.472153 0.906178 0.595703
O41   O     O_2   0.795978 0.553554 0.903859 -0.501683
O42   O     O_R   0.748182 0.460118 0.938532 -0.666781
H81   H     H_    0.717776 0.524847 0.957491 0.377011
C125  C     C_3   0.484474 0.160815 0.397072 -0.258887
C126  C     C_3   0.422820 0.144257 0.427110 -0.413077
H82   H     H_    0.393874 0.208909 0.450801 0.168472
H83   H     H_    0.355597 0.138161 0.410806 0.161392
H84   H     H_    0.473663 0.070912 0.442348 0.159780
H85   H     H_    0.553967 0.163107 0.412577 0.194597
H86   H     H_    0.518450 0.088433 0.377620 0.141413
C127  C     C_2   0.849321 0.508597 0.691053 0.604887
O43   O     O_2   0.867592 0.505201 0.727816 -0.555033
O44   O     O_R   0.855325 0.584758 0.671270 -0.672187
H87   H     H_    0.874388 0.632016 0.690634 0.354712
C128  C     C_2   0.471050 0.904486 0.900179 0.600437
O45   O     O_2   0.499386 0.865131 0.932969 -0.480229
O46   O     O_R   0.523025 0.951913 0.885965 -0.716580
H88   H     H_    0.580655 0.951153 0.905984 0.343579
C129  C     C_2   0.554262 0.733302 0.696528 0.579329
O47   O     O_2   0.632420 0.722642 0.682370 -0.495501
O48   O     O_R   0.558203 0.715215 0.737329 -0.712811
H89   H     H_    0.629317 0.694472 0.751749 0.345448
C130  C     C_3   0.175396 0.858159 0.589720 -0.266774
C131  C     C_3   0.168996 0.931585 0.558946 -0.416896
H90   H     H_    0.174122 0.999437 0.574918 0.158594
H91   H     H_    0.232445 0.891454 0.537946 0.172689
H92   H     H_    0.093510 0.960144 0.540656 0.144710
H93   H     H_    0.166592 0.792144 0.574132 0.176189
H94   H     H_    0.106734 0.901388 0.608197 0.127943
C132  C     C_2   0.161036 0.838451 0.880457 0.597065
O49   O     O_2   0.081505 0.851471 0.860133 -0.486210
O50   O     O_R   0.184307 0.793982 0.917927 -0.640875
H95   H     H_    0.128565 0.777845 0.925171 0.357083
C133  C     C_2   0.193584 0.531700 0.394429 0.587392
O51   O     O_2   0.153924 0.616234 0.379602 -0.560761
O52   O     O_R   0.158163 0.521617 0.430242 -0.689204
H96   H     H_    0.101347 0.590086 0.441414 0.329921

loop_
_geom_bond_atom_site_label_1
_geom_bond_atom_site_label_2
_ccdc_geom_bond_type
C66   C68   A    
C99   O27   D    
C109  H51   S    
C64   H14   S    
Cr3   O3    S    
C55   C59   A    
C85   H18   S    
C41   C42   A    
C74   C94   S    
C23   O1    A    
C36   C42   S    
O44   H87   S    
C112  H55   S    
C45   O2    A    
C87   C88   T    
C36   N8    A    
Cr2   O26   S    
C52   N3    A    
C82   C86   A    
C7    C8    A    
C100  O30   S    
Cr3   O23   S    
C53   C54   A    
C44   C45   S    
C25   C28   A    
C5    C9    A    
C99   O28   S    
C118  H67   S    
Cr5   O8    S    
C121  H71   S    
C98   H24   S    
C59   C95   S    
C117  H68   S    
C132  O49   D    
C112  H54   S    
C101  H34   S    
Cr3   O22   S    
C125  H85   S    
O50   H95   S    
C80   C81   A    
C126  H84   S    
C120  H75   S    
C106  H43   S    
C31   C111  S    
N1    N5    A    
C4    C125  S    
C15   C16   A    
C37   N9    A    
C123  H78   S    
C36   N11   A    
C50   H8    S    
C110  H50   S    
Cr1   O25   S    
C119  O39   D    
C129  O47   D    
C93   O11   A    
C18   C19   A    
C38   H5    S    
C49   C50   A    
C21   N6    A    
C104  H38   S    
Cr3   O5    S    
C26   H2    S    
C127  O44   S    
C46   C47   A    
C97   H28   S    
C40   C43   A    
C54   C114  S    
C122  H80   S    
C102  H32   S    
C109  C110  S    
C6    C13   A    
C123  H77   S    
C107  O31   D    
O46   H88   S    
C37   N10   A    
C1    O12   A    
C70   C71   A    
Cr5   O16   S    
C116  H62   S    
C9    C10   S    
O40   H70   S    
C41   C113  S    
C93   O6    A    
C102  H33   S    
C34   C75   S    
C40   H6    S    
Cr6   O11   S    
Cr4   O19   S    
C133  O52   S    
C106  H41   S    
C122  H79   S    
C80   C129  S    
C98   H25   S    
O28   H29   S    
C117  C118  S    
N3    N4    A    
C92   O10   A    
C116  H60   S    
Cr1   O12   S    
C97   H27   S    
C115  C116  S    
C67   C78   A    
C84   C90   A    
C20   N7    A    
C132  O50   S    
C2    C11   S    
C111  H57   S    
C3    C115  S    
C79   C88   S    
C52   N2    A    
C44   C46   A    
C35   C107  S    
C17   C18   A    
C57   C58   A    
C54   C59   A    
C77   C79   A    
C78   C89   A    
C51   N4    A    
C38   C39   A    
Cr1   O5    S    
C12   C67   S    
C118  H66   S    
Cr5   O9    S    
C121  H72   S    
O32   H46   S    
C117  H69   S    
C63   C64   A    
C61   H15   S    
C47   C48   A    
Cr2   O21   S    
N10   N11   A    
C12   O22   A    
C84   C85   A    
C110  H48   S    
C34   O26   A    
Cr4   O7    S    
C53   C117  S    
C120  H74   S    
C8    C9    A    
C125  H86   S    
C39   C43   A    
C55   H11   S    
O36   H58   S    
C34   O25   A    
C25   C26   A    
C85   C86   A    
O42   H81   S    
C92   O9    A    
C56   O24   A    
C82   C83   A    
C45   O3    A    
C17   C21   S    
C56   C60   S    
C32   C33   A    
C120  C121  S    
C60   C61   A    
C95   O16   A    
C62   C127  S    
C14   C23   S    
C22   C103  S    
C2    C89   A    
C75   C76   A    
C47   H9    S    
C20   N1    A    
C29   C30   A    
Cr6   O10   S    
C4    C67   A    
C78   C133  S    
C66   C71   A    
C84   C132  S    
Cr2   O20   S    
C48   C52   S    
C30   C31   A    
C126  H82   S    
C96   O13   A    
C23   O23   A    
Cr6   O18   S    
C62   C63   A    
C1    C29   S    
C106  H42   S    
C26   C27   A    
C131  H90   S    
C115  H63   S    
C116  H61   S    
C51   C58   S    
C32   C37   S    
C112  H53   S    
C113  O36   S    
C124  O41   D    
O30   H30   S    
C49   H10   S    
C56   O4    A    
C51   N12   A    
C123  H76   S    
C107  O32   S    
C40   C41   A    
C89   H22   S    
C65   C120  S    
C108  O34   S    
C60   C65   A    
C114  O37   D    
C98   H26   S    
Cr1   O24   S    
C22   C27   A    
C128  O46   S    
C13   C92   S    
N8    N9    A    
C128  O45   D    
C22   C24   A    
C76   C130  S    
O52   H96   S    
C82   H16   S    
C122  C123  S    
Cr6   O19   S    
Cr1   O1    S    
C91   O8    A    
C25   C105  S    
C102  H31   S    
C86   C87   S    
C91   O7    A    
C103  H39   S    
C44   C50   A    
C83   C90   A    
Cr6   O17   S    
C118  H65   S    
C97   C98   S    
C121  H73   S    
C109  H52   S    
C131  H92   S    
O34   H47   S    
C14   C19   A    
Cr3   O4    S    
C31   C32   A    
C75   C81   A    
C33   H4    S    
C24   C28   A    
C19   C99   S    
C72   C73   T    
C83   C128  S    
Cr4   O6    S    
C70   C122  S    
C130  C131  S    
C124  O42   S    
C53   C58   A    
C16   C101  S    
C90   C96   S    
C69   C124  S    
C101  H35   S    
C20   C27   S    
C101  C102  S    
C129  O48   S    
C63   C73   S    
C29   C35   A    
C81   H17   S    
Cr5   O15   S    
C114  O38   S    
Cr5   O19   S    
C105  H44   S    
Cr2   O2    S    
C43   C93   S    
C95   O17   A    
Cr4   O13   S    
C115  H64   S    
C55   C57   A    
C2    C3    A    
C94   O14   A    
C71   C72   S    
C30   H3    S    
C100  O29   D    
C105  H45   S    
N6    N7    A    
C64   C65   A    
C5    C109  S    
C131  H91   S    
C76   C77   A    
C126  H83   S    
C8    H20   S    
Cr4   O14   S    
C5    C6    A    
C57   H12   S    
C66   C119  S    
C48   C49   A    
C130  H93   S    
C10   C11   T    
C1    O20   A    
C111  H56   S    
C33   C35   A    
C119  O40   S    
C28   C91   S    
C18   H1    S    
C111  C112  S    
C103  H40   S    
C61   C62   A    
C113  O35   D    
C69   C70   A    
C21   N5    A    
C104  H37   S    
C77   H19   S    
C125  C126  S    
C68   H13   S    
O38   H59   S    
C79   C80   A    
C96   O18   A    
C38   C42   A    
C133  O51   D    
C7    C13   A    
C108  O33   D    
C6    C97   S    
C105  C106  S    
C15   H23   S    
C46   H7    S    
O48   H89   S    
C110  H49   S    
C14   C15   A    
C104  H36   S    
N2    N12   A    
C12   O21   A    
C103  C104  S    
C39   C108  S    
C24   C100  S    
C94   O15   A    
C130  H94   S    
C69   C74   A    
Cr2   O5    S    
C3    C4    A    
C16   C17   A    
C7    H21   S    
C68   C74   A    
C127  O43   D    
