data_mof_unit_5000.cif
_audit_creation_date              2012-12-11T17:10:33-0500
_audit_creation_method            fapswitch 2.2
_symmetry_space_group_name_H-M    P1
_symmetry_Int_Tables_number       1
_space_group_crystal_system       triclinic
_cell_length_a                    14.786869
_cell_length_b                    14.885608
_cell_length_c                    14.883738
_cell_angle_alpha                 109.55787
_cell_angle_beta                  109.708772
_cell_angle_gamma                 109.062264
_cell_volume                      2524.49800325

loop_
_atom_site_label
_atom_site_type_symbol
_atom_type_description
_atom_site_fract_x
_atom_site_fract_y
_atom_site_fract_z
_atom_type_partial_charge
C1    C     C_R   0.185373 0.278997 0.253669 -0.143106
C2    C     C_R   0.405015 0.496390 0.195391 -0.140341
C3    C     C_R   0.563985 0.815228 0.591240 -0.129678
C4    C     C_R   0.521513 0.429348 0.742460 -0.134243
C5    C     C_R   0.723679 0.477601 0.409239 -0.109110
C6    C     C_R   0.548077 0.824874 0.497903 0.069761
C7    C     C_R   0.827516 0.556429 0.502229 0.055339
C8    C     C_R   0.434770 0.434057 0.131679 0.112030
C9    C     C_R   0.801863 0.803461 0.867985 0.077569
C10   C     C_R   0.100313 0.599528 0.184983 -0.126003
C11   C     C_R   0.102179 0.625465 0.285232 -0.140176
C12   C     C_R   0.446728 0.446101 0.771966 0.077176
C13   C     C_R   0.021589 0.549746 0.291909 0.123934
C14   C     C_R   0.938434 0.448506 0.196520 -0.181910
C15   C     C_R   0.936928 0.423023 0.096498 -0.111238
C16   C     C_R   0.504995 0.200915 0.407914 -0.156948
C17   C     C_R   0.017845 0.498391 0.090762 -0.093016
C18   C     C_R   0.930442 0.572236 0.402475 -0.219492
C19   C     C_R   0.931832 0.607714 0.502767 0.051803
C20   C     C_R   0.035254 0.676418 0.601196 0.032280
C21   C     C_R   0.127290 0.672473 0.597783 -0.233709
C22   C     C_R   0.118401 0.610935 0.496946 0.054374
C23   C     C_R   0.565949 0.197115 0.498285 0.083989
C24   C     C_R   0.024467 0.577091 0.398419 0.021499
C25   C     C_R   0.999454 0.822875 0.697917 -0.138587
C26   C     C_R   0.017811 0.904495 0.793942 -0.102599
C27   C     C_R   0.087844 0.923257 0.896743 -0.087852
C28   C     C_R   0.291429 0.598519 0.589752 -0.135159
C29   C     C_R   0.137823 0.858900 0.903762 -0.124667
C30   C     C_R   0.119629 0.776949 0.807892 -0.176553
C31   C     C_R   0.050702 0.758569 0.703830 0.110425
C32   C     C_R   0.439877 0.337340 0.868413 0.157036
C33   C     C_R   0.400274 0.397075 0.827406 0.056782
C34   C     C_R   0.198545 0.571597 0.497547 0.067775
C35   C     C_R   0.332521 0.428657 0.862079 -0.196154
C36   C     C_R   0.332158 0.428578 0.956072 -0.196521
C37   C     C_R   0.399556 0.396937 0.015389 0.050829
C38   C     C_R   0.442627 0.340681 0.962963 0.120546
C39   C     C_3   0.547948 0.335682 0.000911 -0.277165
C40   C     C_R   0.595951 0.290217 0.590515 -0.146758
C41   C     C_3   0.544381 0.331053 0.896525 -0.574475
C42   C     C_R   0.547541 0.925243 0.394140 0.178078
C43   C     C_R   0.592717 0.925510 0.493607 0.033178
C44   C     C_R   0.666730 0.027633 0.591214 -0.203555
C45   C     C_R   0.474322 0.721089 0.407003 -0.139074
C46   C     C_R   0.670755 0.123114 0.591754 -0.203860
C47   C     C_R   0.601427 0.115876 0.494430 0.029896
C48   C     C_R   0.552319 0.019429 0.394628 0.163902
C49   C     C_3   0.439271 0.957360 0.295326 -0.531216
C50   C     C_3   0.433513 0.854437 0.295011 -0.530388
C51   C     C_R   0.967376 0.075000 0.121026 0.169536
C52   C     C_R   0.199733 0.504880 0.407625 -0.155071
C53   C     C_R   0.066872 0.074716 0.167748 0.025211
C54   C     C_R   0.062242 0.972531 0.140712 -0.217261
C55   C     C_R   0.967623 0.876984 0.048345 -0.185759
C56   C     C_R   0.815491 0.566525 0.593210 -0.136665
C57   C     C_R   0.878222 0.884492 0.984599 0.028561
C58   C     C_R   0.874149 0.980869 0.030819 0.171398
C59   C     C_3   0.838069 0.042945 0.979452 -0.539030
C60   C     C_3   0.940128 0.145889 0.077571 -0.525968
C61   C     C_R   0.433406 0.525668 0.748763 -0.118376
C62   C     C_R   0.275887 0.184776 0.248956 -0.136796
C63   C     C_R   0.172415 0.175206 0.223750 0.069330
C64   C     C_2   0.649171 0.437356 0.102047 0.611343
C65   C     C_R   0.494174 0.402523 0.195348 -0.118776
C66   C     C_R   0.707040 0.799336 0.803423 -0.163325
C67   C     C_R   0.801371 0.710315 0.805041 -0.111342
H1    H     H_    0.123800 0.302987 0.250736 0.112936
H2    H     H_    0.162841 0.657779 0.180326 0.106727
H3    H     H_    0.166667 0.704007 0.357710 0.114173
H4    H     H_    0.545180 0.368173 0.740869 0.110103
H5    H     H_    0.876066 0.388754 0.200068 0.103305
H6    H     H_    0.873249 0.344644 0.023518 0.111051
H7    H     H_    0.855465 0.537354 0.326756 0.133626
H8    H     H_    0.204874 0.716158 0.673929 0.118241
H9    H     H_    0.946457 0.810856 0.618978 0.121045
H10   H     H_    0.978469 0.953889 0.788702 0.110519
H11   H     H_    0.103417 0.987844 0.970898 0.122421
H12   H     H_    0.878097 0.616435 0.678957 0.117284
H13   H     H_    0.191246 0.872997 0.983609 0.107435
H14   H     H_    0.159044 0.727891 0.814994 0.106955
H15   H     H_    0.291605 0.466548 0.826622 0.122910
H16   H     H_    0.485547 0.153639 0.324332 0.100254
H17   H     H_    0.289820 0.465243 0.988162 0.119532
H18   H     H_    0.536137 0.258599 0.002412 0.103308
H19   H     H_    0.615024 0.403883 0.912938 0.209865
H20   H     H_    0.529330 0.250827 0.837787 0.183289
H21   H     H_    0.710200 0.032744 0.669146 0.125393
H22   H     H_    0.717083 0.198324 0.670133 0.124587
H23   H     H_    0.512795 0.337698 0.166680 0.063705
H24   H     H_    0.377887 0.975406 0.312960 0.200361
H25   H     H_    0.441460 0.961088 0.222669 0.189120
H26   H     H_    0.369006 0.814886 0.312922 0.195785
H27   H     H_    0.325165 0.659835 0.673882 0.084820
H28   H     H_    0.431625 0.798676 0.221779 0.195163
H29   H     H_    0.135281 0.967560 0.180214 0.130220
H30   H     H_    0.971062 0.801772 0.019963 0.132366
H31   H     H_    0.839839 0.025010 0.901431 0.197246
H32   H     H_    0.760423 0.039015 0.975757 0.191396
H33   H     H_    0.999331 0.185846 0.054499 0.200579
H34   H     H_    0.670112 0.846397 0.830990 0.105205
H35   H     H_    0.921054 0.201363 0.129845 0.194589
H36   H     H_    0.657299 0.322006 0.674498 0.087024
H37   H     H_    0.148101 0.475949 0.322147 0.119610
H38   H     H_    0.379973 0.558065 0.759506 0.092476
H39   H     H_    0.296880 0.120346 0.237371 0.092842
H40   H     H_    0.447087 0.696892 0.321784 0.113690
H41   H     H_    0.714394 0.428520 0.152124 -0.056453
H42   H     H_    0.854398 0.678999 0.834471 0.088969
H43   H     H_    0.344041 0.520111 0.166936 0.083629
H44   H     H_    0.616936 0.879617 0.676405 0.093242
H45   H     H_    0.701533 0.447443 0.324002 0.088095
H46   H     H_    0.016656 0.478416 0.013295 0.097039
N1    N     N_R   0.291070 0.347930 0.293870 -0.041148
N2    N     N_R   0.497240 0.291100 0.443210 -0.036708
N3    N     N_R   0.347890 0.554050 0.556810 -0.038873
N4    N     N_R   0.554050 0.347900 0.556830 -0.038981
N5    N     N_R   0.291070 0.497250 0.443190 -0.039500
N6    N     N_R   0.497240 0.554030 0.706140 -0.040880
N7    N     N_R   0.347890 0.291110 0.293870 -0.040452
N8    N     N_R   0.445950 0.652100 0.443170 -0.039698
N9    N     N_R   0.708930 0.502750 0.556810 -0.042466
N10   N     N_R   0.502760 0.445970 0.293860 -0.041106
N11   N     N_R   0.652110 0.708890 0.706130 -0.038414
N12   N     N_R   0.708930 0.652070 0.706130 -0.041295
N13   N     N_R   0.445950 0.502780 0.293850 -0.039704
N14   N     N_R   0.502760 0.708900 0.556790 -0.039599
N15   N     N_R   0.652110 0.445950 0.443190 -0.042729
N16   N     N_R   0.554050 0.497220 0.706150 -0.041572
Ni1   Ni    Ni4+2 0.369690 0.500010 0.369700 0.212359
Ni2   Ni    Ni4+2 0.630310 0.499990 0.630300 0.211124
Ni3   Ni    Ni4+2 0.500000 0.369720 0.369720 0.206278
Ni4   Ni    Ni4+2 0.500000 0.630280 0.630280 0.210002
O1    O     O_2   0.660762 0.528777 0.125472 -0.573974

loop_
_geom_bond_atom_site_label_1
_geom_bond_atom_site_label_2
_ccdc_geom_bond_type
C25   C31   A    
C6    C45   A    
N10   Ni3   S    
C61   N6    A    
C59   H32   S    
C35   C36   A    
N8    Ni1   S    
C3    C6    A    
C11   H3    S    
C17   H46   S    
C39   C41   S    
C46   H22   S    
C53   C54   A    
C39   C64   S    
C26   C27   A    
N6    Ni4   S    
C56   H12   S    
N11   Ni4   S    
C18   C24   A    
C36   C37   A    
C37   C38   A    
N8    N14   A    
C67   N12   A    
C30   C31   A    
C3    N14   A    
C50   H28   S    
C27   C29   A    
N13   Ni1   S    
C10   C17   A    
C23   C40   A    
N15   Ni3   S    
C1    H1    S    
C28   H27   S    
C18   C19   A    
C9    C66   A    
C53   C63   S    
C28   N3    A    
C13   C14   A    
C33   C35   A    
C46   C47   A    
C67   H42   S    
C60   H35   S    
C2    H43   S    
C19   C20   A    
C3    H44   S    
N2    N4    A    
C32   C41   S    
C32   C38   A    
C4    C12   A    
C61   H38   S    
C42   C43   A    
C54   H29   S    
C27   H11   S    
C40   N4    A    
C28   C34   A    
C59   C60   S    
C18   H7    S    
C21   C22   A    
N1    Ni1   S    
C66   H34   S    
C7    C56   A    
C49   H24   S    
C22   C34   S    
C1    C63   A    
C35   H15   S    
C44   C46   A    
C64   H41   S    
N2    Ni3   S    
C65   H23   S    
C41   H20   S    
C64   O1    D    
C26   H10   S    
C23   C47   S    
C9    C57   S    
C5    C7    A    
N10   N13   A    
N3    Ni4   S    
C45   N8    A    
C25   C26   A    
C16   H16   S    
C13   C24   S    
C51   C53   A    
C56   N9    A    
C43   C44   A    
C9    C67   A    
C29   C30   A    
C41   H19   S    
N12   Ni2   S    
C47   C48   A    
C55   H30   S    
C62   C63   A    
C50   H26   S    
C51   C58   A    
C42   C48   A    
C42   C50   S    
C2    N13   A    
C48   C49   S    
C15   H6    S    
C16   C23   A    
C7    C19   S    
C6    C43   S    
C55   C57   A    
C22   C24   A    
C1    N1    A    
C39   H18   S    
C49   H25   S    
C16   N2    A    
N9    Ni2   S    
C15   C17   A    
C54   C55   A    
C52   H37   S    
N7    Ni3   S    
C14   H5    S    
C2    C8    A    
N14   Ni4   S    
C60   H33   S    
N5    Ni1   S    
C4    N16   A    
C62   H39   S    
C5    H45   S    
C21   H8    S    
C34   C52   A    
C25   H9    S    
C32   C33   A    
C30   H14   S    
C58   C59   S    
C62   N7    A    
C40   H36   S    
C12   C61   A    
C11   C13   A    
C57   C58   A    
C38   C39   S    
C29   H13   S    
C36   H17   S    
C5    N15   A    
N6    N16   A    
N3    N5    A    
C66   N11   A    
C65   N10   A    
N9    N15   A    
N4    Ni2   S    
C10   C11   A    
C10   H2    S    
C8    C65   A    
C20   C21   A    
C49   C50   S    
C8    C37   S    
C59   H31   S    
C14   C15   A    
C51   C60   S    
C12   C33   S    
C44   H21   S    
C4    H4    S    
N1    N7    A    
C45   H40   S    
N11   N12   A    
N16   Ni2   S    
C20   C31   S    
C52   N5    A    
