data_mof_unit_2561.cif
_audit_creation_date              2012-12-11T14:49:25-0500
_audit_creation_method            fapswitch 2.2
_symmetry_space_group_name_H-M    P1
_symmetry_Int_Tables_number       1
_space_group_crystal_system       triclinic
_cell_length_a                    16.801501
_cell_length_b                    16.670991
_cell_length_c                    19.619325
_cell_angle_alpha                 117.766669
_cell_angle_beta                  63.769021
_cell_angle_gamma                 100.492854
_cell_volume                      4359.84313465

loop_
_atom_site_label
_atom_site_type_symbol
_atom_type_description
_atom_site_fract_x
_atom_site_fract_y
_atom_site_fract_z
_atom_type_partial_charge
C1    C     C_R   0.025446 0.762008 0.025641 -0.117814
C2    C     C_R   0.744049 0.511717 0.251000 0.108462
C3    C     C_R   0.734959 0.469520 0.945099 0.043737
C4    C     C_R   0.055028 0.739085 0.245014 -0.071448
C5    C     C_R   0.258912 0.509375 0.956341 -0.143355
C6    C     C_R   0.979227 0.247253 0.830177 -0.109048
C7    C     C_R   0.155622 0.513631 0.762472 -0.102181
C8    C     C_R   0.024934 0.313188 0.076840 -0.056289
C9    C     C_R   0.947044 0.244667 0.001237 -0.124915
C10   C     C_R   0.236980 0.578736 0.837095 -0.141427
C11   C     C_R   0.192939 0.432090 0.032505 -0.085638
C12   C     C_R   0.749364 0.464362 0.169983 -0.029177
C13   C     C_R   0.049666 0.325248 0.754812 -0.042550
C14   C     C_R   0.272099 0.437427 0.967933 0.094025
C15   C     C_R   0.041437 0.239334 0.751582 0.027947
C16   C     C_R   0.232558 0.558807 0.763134 0.007002
C17   C     C_R   0.985500 0.231694 0.045120 0.068904
C18   C     C_R   0.056960 0.071456 0.679694 -0.183544
C19   C     C_R   0.085573 0.155041 0.677660 0.115745
C20   C     C_R   0.145985 0.156877 0.601114 -0.228479
C21   C     C_R   0.161934 0.079016 0.525282 0.144067
C22   C     C_R   0.119364 0.998696 0.527073 0.037454
C23   C     C_R   0.811973 0.514711 0.917676 -0.097337
C24   C     C_R   0.071493 0.993506 0.604675 0.066654
C25   C     C_R   0.211177 0.083442 0.448194 -0.247199
C26   C     C_R   0.209684 0.012819 0.373121 -0.087295
C27   C     C_R   0.158870 0.935370 0.375917 0.048935
C28   C     C_R   0.117001 0.927204 0.452818 -0.009328
C29   C     C_R   0.066320 0.850847 0.457235 -0.052562
C30   C     C_R   0.028044 0.841286 0.533048 0.608936
C31   C     C_R   0.030098 0.913501 0.606720 -0.367716
C32   C     C_R   0.145630 0.867613 0.305382 -0.178614
C33   C     C_R   0.084973 0.798936 0.312809 0.108292
C34   C     C_R   0.009065 0.660383 0.241246 -0.258009
C35   C     C_R   0.049484 0.788672 0.387711 -0.194213
C36   C     C_R   0.337260 0.470127 0.623847 -0.186776
C37   C     C_R   0.307733 0.555589 0.690289 0.150137
C38   C     C_R   0.353134 0.633863 0.689185 -0.258221
C39   C     C_R   0.427781 0.627070 0.617085 0.128890
C40   C     C_R   0.455931 0.540769 0.547708 0.068477
C41   C     C_R   0.411295 0.461965 0.552251 0.124370
C42   C     C_R   0.473959 0.704494 0.612556 -0.190103
C43   C     C_R   0.547011 0.696741 0.538690 -0.169096
C44   C     C_R   0.573154 0.611752 0.468914 0.149526
C45   C     C_R   0.746471 0.436480 0.993219 -0.148597
C46   C     C_R   0.527544 0.533233 0.473354 -0.027028
C47   C     C_R   0.552681 0.447181 0.403157 -0.049858
C48   C     C_R   0.511850 0.368857 0.411093 -0.151795
C49   C     C_R   0.440737 0.376371 0.485243 -0.190026
C50   C     C_R   0.644664 0.603519 0.394771 -0.329180
C51   C     C_R   0.666525 0.519372 0.324681 -0.074202
C52   C     C_R   0.618409 0.441490 0.326451 0.547450
C53   C     C_R   0.662229 0.445805 0.916966 0.130046
C54   C     C_R   0.356520 0.383673 0.925007 0.018313
C55   C     C_R   0.447157 0.333312 0.965275 -0.278940
C56   C     C_R   0.076355 0.740040 0.167973 0.601867
C57   C     C_R   0.367430 0.329622 0.958482 -0.085052
C58   C     C_R   0.433467 0.408070 0.868979 -0.166260
C59   C     C_R   0.514115 0.413737 0.877070 0.082706
C60   C     C_R   0.517209 0.381993 0.931351 0.175044
C61   C     C_R   0.590392 0.398151 0.950766 -0.235840
C62   C     C_R   0.663015 0.470241 0.857258 -0.175943
C63   C     C_R   0.590458 0.452890 0.836229 -0.168843
C64   C     C_R   0.784832 0.178201 0.169705 0.176023
C65   C     C_R   0.929400 0.864731 0.022210 -0.104712
C66   C     C_R   0.861281 0.948906 0.986499 0.664760
C67   C     C_R   0.828685 0.532416 0.248465 -0.146995
C68   C     C_R   0.902901 0.870456 0.966159 -0.415341
C69   C     C_R   0.916001 0.941182 0.100186 0.545696
C70   C     C_R   0.875309 0.021594 0.121030 -0.054887
C71   C     C_R   0.841100 0.023607 0.067057 -0.158067
C72   C     C_R   0.790865 0.101790 0.095034 -0.159061
C73   C     C_R   0.824420 0.178177 0.218641 -0.224570
C74   C     C_R   0.867544 0.099990 0.195793 -0.115400
C75   C     C_R   0.945775 0.691462 0.949260 -0.125840
C76   C     C_R   0.966865 0.776875 0.999312 0.113547
H1    H     H_    0.058540 0.813087 0.062099 0.214336
H2    H     H_    0.955883 0.193835 0.849756 0.095725
H3    H     H_    0.051237 0.331436 0.123306 0.089988
H4    H     H_    0.901416 0.199154 0.977121 0.129307
H5    H     H_    0.285332 0.620355 0.859945 0.109228
H6    H     H_    0.179899 0.388683 0.062679 0.103937
H7    H     H_    0.093518 0.344091 0.705172 0.093153
H8    H     H_    0.014941 0.067715 0.738598 0.106875
H9    H     H_    0.173588 0.220101 0.599196 0.118070
H10   H     H_    0.245153 0.145132 0.447322 0.150396
H11   H     H_    0.696456 0.436775 0.149508 0.106162
H12   H     H_    0.180829 0.869941 0.245732 0.209055
H13   H     H_    0.004482 0.735029 0.394345 0.167406
H14   H     H_    0.994127 0.908980 0.666201 0.155889
H15   H     H_    0.302210 0.409992 0.628307 0.127769
H16   H     H_    0.329548 0.699056 0.743415 0.134149
H17   H     H_    0.453251 0.770746 0.665704 0.139619
H18   H     H_    0.582232 0.757116 0.535652 0.134661
H19   H     H_    0.682807 0.662408 0.390815 0.157437
H20   H     H_    0.831493 0.537544 0.869374 0.113937
H21   H     H_    0.534209 0.301711 0.360191 0.172159
H22   H     H_    0.407972 0.315566 0.489753 0.140739
H23   H     H_    0.588530 0.376289 0.995337 0.114940
H24   H     H_    0.718755 0.504169 0.827538 0.123840
H25   H     H_    0.454497 0.299213 0.997742 0.176931
H26   H     H_    0.594537 0.473619 0.790366 0.182968
H27   H     H_    0.994211 0.628394 0.282168 0.135292
H28   H     H_    0.819164 0.238275 0.275938 0.140734
H29   H     H_    0.895203 0.101371 0.236788 0.173578
H30   H     H_    0.915258 0.813643 0.904987 0.178946
H31   H     H_    0.708136 0.385865 0.013020 0.107424
H32   H     H_    0.848001 0.564806 0.300895 0.118037
H33   H     H_    0.902963 0.676461 0.917124 0.116143
H34   H     H_    0.306170 0.538004 0.915814 0.127804
N1    N     N_R   0.036080 0.671900 0.995420 -0.065782
N2    N     N_R   0.954660 0.334720 0.880230 -0.045830
N3    N     N_R   0.116260 0.502360 0.832930 -0.052312
N4    N     N_R   0.012950 0.371090 0.051890 -0.046087
N5    N     N_R   0.963920 0.328100 0.004580 -0.040464
N6    N     N_R   0.165290 0.545350 0.880240 -0.043425
N7    N     N_R   0.132570 0.490700 0.051900 -0.050970
N8    N     N_R   0.996640 0.382750 0.832930 -0.025439
N9    N     N_R   0.834710 0.454650 0.119760 -0.051488
N10   N     N_R   0.867430 0.509300 0.948100 -0.036845
N11   N     N_R   0.003360 0.617250 0.167070 -0.066326
N12   N     N_R   0.825450 0.461270 0.995400 -0.049062
N13   N     N_R   0.045340 0.665280 0.119770 -0.105236
N14   N     N_R   0.883740 0.497640 0.167070 -0.047019
N15   N     N_R   0.987050 0.628910 0.948110 -0.040116
N16   N     N_R   0.174550 0.538730 0.004600 -0.061273
Ni1   Ni    Ni4+2 0.104370 0.604370 0.000010 0.205943
Ni2   Ni    Ni4+2 0.895630 0.395630 0.999990 0.249749
Ni3   Ni    Ni4+2 0.991920 0.505780 0.891500 0.264116
Ni4   Ni    Ni4+2 0.008080 0.494220 0.108500 0.207382
C77   C     C_2   0.109952 0.507429 0.710825 0.953021
O1    O     O_2   0.150854 0.518627 0.646774 -0.641849
O2    O     O_R   0.019111 0.491184 0.736742 -0.824684
H35   H     H_    0.995051 0.489220 0.696861 0.318916
C78   C     C_2   0.255759 0.026992 0.295499 0.989596
O3    O     O_2   0.332182 0.052612 0.276626 -0.634144
O4    O     O_R   0.210774 0.016010 0.246522 -0.779478
H36   H     H_    0.249285 0.028676 0.195885 0.334700
O5    O     O_3   0.979245 0.766169 0.537502 -0.620903
C79   C     C_3   0.030053 0.709893 0.540110 -0.223255
H37   H     H_    0.094531 0.688594 0.483573 0.132664
H38   H     H_    0.992741 0.647625 0.539723 0.180043
H39   H     H_    0.041360 0.743621 0.599033 0.143745
O6    O     O_3   0.639739 0.359532 0.254313 -0.623690
C80   C     C_3   0.574311 0.341512 0.222256 -0.241222
H40   H     H_    0.550839 0.403339 0.227407 0.108555
H41   H     H_    0.516583 0.308180 0.253938 0.159505
H42   H     H_    0.603353 0.293931 0.154251 0.209219
C81   C     C_2   0.299548 0.265825 0.982163 0.986976
O7    O     O_2   0.248055 0.233898 0.947887 -0.638419
O8    O     O_R   0.296180 0.239687 0.041539 -0.807565
H43   H     H_    0.247394 0.195472 0.051795 0.328618
C82   C     C_2   0.427620 0.423268 0.802282 0.977239
O9    O     O_2   0.387219 0.369854 0.761282 -0.621985
O10   O     O_R   0.462823 0.500339 0.789504 -0.832922
H44   H     H_    0.451909 0.503263 0.743819 0.326318
C83   C     C_2   0.736331 0.104967 0.054218 1.079118
O11   O     O_2   0.734024 0.173302 0.046846 -0.691045
O12   O     O_R   0.683090 0.032135 0.028966 -0.742443
H45   H     H_    0.647771 0.043126 0.003334 0.327756
O13   O     O_3   0.841067 0.951472 0.926476 -0.583235
C84   C     C_3   0.918237 0.972619 0.868970 -0.262294
H46   H     H_    0.967758 0.915218 0.828842 0.147079
H47   H     H_    0.948458 0.035662 0.901724 0.118154
H48   H     H_    0.899627 0.984582 0.826735 0.175548
O14   O     O_3   0.943136 0.937980 0.156026 -0.617248
C85   C     C_3   0.872377 0.907391 0.210893 -0.236126
H49   H     H_    0.852385 0.838332 0.175679 0.136227
H50   H     H_    0.814129 0.955474 0.249856 0.138030
H51   H     H_    0.894803 0.903287 0.254579 0.185296
O15   O     O_3   0.131192 0.800968 0.140279 -0.628143
C86   C     C_3   0.210210 0.755976 0.071441 -0.287744
H52   H     H_    0.199011 0.715941 0.013060 0.147464
H53   H     H_    0.239954 0.712702 0.084173 0.137598
H54   H     H_    0.259327 0.807793 0.060463 0.192616

loop_
_geom_bond_atom_site_label_1
_geom_bond_atom_site_label_2
_ccdc_geom_bond_type
C66   C68   A    
O15   C86   S    
C83   O11   D    
O2    H35   S    
C42   H17   S    
C1    H1    S    
C73   C74   A    
C3    C23   A    
C19   C20   A    
C79   H39   S    
N11   Ni4   S    
C43   C44   A    
C2    C12   A    
C67   N14   A    
N4    N5    A    
C78   O3    D    
C85   H50   S    
N9    N14   A    
C40   C46   A    
C48   H21   S    
C26   C27   A    
N16   Ni1   S    
C65   C76   S    
N3    Ni3   S    
C18   C24   A    
C28   C29   A    
C79   H38   S    
C81   O8    S    
C38   C39   A    
C11   C14   A    
C65   C69   A    
C50   H19   S    
C6    H2    S    
C5    H34   S    
C12   N9    A    
C38   H16   S    
C43   H18   S    
C23   H20   S    
C18   C19   A    
C69   O14   S    
C21   C25   A    
C26   C78   S    
C49   H22   S    
C4    C33   S    
C53   C61   A    
C73   H28   S    
C47   C48   A    
C86   H53   S    
N6    Ni1   S    
C57   C81   S    
C5    N16   A    
N1    N15   A    
C8    H3    S    
C18   H8    S    
C64   C73   A    
C70   C71   A    
C82   O10   S    
C29   C30   A    
N7    N16   A    
C7    C77   S    
C86   H54   S    
C8    N4    A    
C16   C37   S    
N3    N6    A    
N9    Ni2   S    
C31   H14   S    
C6    C15   A    
C59   C60   A    
C83   O12   S    
C22   C28   A    
C21   C22   A    
C4    C56   A    
N4    Ni4   S    
C36   C41   A    
C61   H23   S    
C68   H30   S    
C63   H26   S    
C41   C49   A    
C80   H41   S    
C44   C46   A    
C80   H40   S    
C39   C42   A    
C84   H47   S    
C11   H6    S    
C4    C34   A    
C75   H33   S    
N2    Ni2   S    
N10   Ni3   S    
C9    N5    A    
C56   N13   A    
C13   N8    A    
C79   H37   S    
C2    C67   A    
C85   H49   S    
C58   C59   A    
C3    C45   A    
N5    Ni2   S    
C51   C52   A    
C66   O13   S    
C60   C61   A    
C75   N15   A    
C9    H4    S    
C15   C19   S    
C75   C76   A    
C66   C71   A    
C70   C74   A    
C37   C38   A    
C58   C82   S    
C84   H48   S    
C53   C62   A    
N13   Ni1   S    
O12   H45   S    
O8    H43   S    
C65   C68   A    
C20   H9    S    
C62   C63   A    
C50   C51   A    
N14   Ni4   S    
C52   O6    S    
N7    Ni4   S    
C5    C14   A    
C62   H24   S    
C85   H51   S    
C35   H13   S    
C36   H15   S    
C9    C17   A    
C40   C41   A    
C14   C54   S    
C34   N11   A    
C13   C15   A    
C56   O15   S    
N1    Ni1   S    
O14   C85   S    
C22   C24   A    
C42   C43   A    
C77   O1    D    
C11   N7    A    
C23   N10   A    
C80   H42   S    
C10   N6    A    
C86   H52   S    
N10   N12   A    
C84   H46   S    
C54   C58   A    
C44   C50   A    
C78   O4    S    
C29   C35   A    
C46   C47   A    
C36   C37   A    
C30   O5    S    
C12   H11   S    
C27   C32   A    
C1    C76   A    
C6    N2    A    
C7    C16   A    
C34   H27   S    
O6    C80   S    
C77   O2    S    
O5    C79   S    
C47   C52   A    
C45   N12   A    
O4    H36   S    
C55   H25   S    
C10   H5    S    
C59   C63   A    
C8    C17   A    
C32   C33   A    
C7    N3    A    
C55   C57   A    
C25   C26   A    
C24   C31   A    
C71   C72   A    
N8    Ni3   S    
C10   C16   A    
C81   O7    D    
C1    N1    A    
C74   H29   S    
N2    N8    A    
C3    C53   S    
C30   C31   A    
O13   C84   S    
C48   C49   A    
C25   H10   S    
C33   C35   A    
C64   C72   A    
N12   Ni2   S    
C69   C70   A    
C67   H32   S    
N11   N13   A    
C2    C51   S    
C72   C83   S    
C39   C40   A    
N15   Ni3   S    
C20   C21   A    
O10   H44   S    
C82   O9    D    
C55   C60   A    
C45   H31   S    
C13   H7    S    
C27   C28   A    
C54   C57   A    
C32   H12   S    
