data_mof_unit_3889.cif
_audit_creation_date              2012-12-10T20:57:47-0500
_audit_creation_method            fapswitch 2.2
_symmetry_space_group_name_H-M    P1
_symmetry_Int_Tables_number       1
_space_group_crystal_system       triclinic
_cell_length_a                    15.069949
_cell_length_b                    15.448685
_cell_length_c                    15.85699
_cell_angle_alpha                 90.003821
_cell_angle_beta                  90.497268
_cell_angle_gamma                 67.905723
_cell_volume                      3420.43676488

loop_
_atom_site_label
_atom_site_type_symbol
_atom_type_description
_atom_site_fract_x
_atom_site_fract_y
_atom_site_fract_z
_atom_type_partial_charge
C1    C     C_R   0.499629 0.499750 0.338840 0.912646
C2    C     C_R   0.499387 0.494765 0.086709 0.004004
C3    C     C_R   0.430321 0.478433 0.953554 -0.399740
C4    C     C_R   0.570242 0.516353 0.045993 -0.383769
C5    C     C_1   0.501572 0.500704 0.824200 0.037582
C6    C     C_1   0.498620 0.496191 0.175650 0.041864
C7    C     C_1   0.499030 0.497908 0.250462 -0.191863
C8    C     C_1   0.501032 0.500867 0.749421 -0.190072
C9    C     C_R   0.956315 0.488835 0.424762 -0.341944
C10   C     C_R   0.045060 0.507622 0.575244 -0.385325
C11   C     C_R   0.905706 0.498360 0.500603 -0.102038
C12   C     C_R   0.500266 0.500368 0.661109 0.908932
C13   C     C_R   0.095788 0.497866 0.499522 -0.090783
C14   C     C_R   0.951394 0.506415 0.576595 0.524524
C15   C     C_R   0.050811 0.487042 0.423493 0.511686
C16   C     C_R   0.559163 0.323169 0.498254 0.868380
C17   C     C_R   0.440831 0.676802 0.498303 0.876111
C18   C     C_1   0.807353 0.499501 0.500099 0.120194
C19   C     C_1   0.192991 0.499700 0.500221 0.102398
C20   C     C_R   0.595706 0.222177 0.484916 -0.060077
C21   C     C_R   0.404877 0.777274 0.482199 -0.064869
C22   C     C_R   0.724340 0.071743 0.467803 -0.169959
C23   C     C_R   0.617157 0.893065 0.439188 -0.328596
C24   C     C_R   0.281710 0.922633 0.436515 -0.173163
C25   C     C_R   0.693757 0.167623 0.482511 -0.220215
C26   C     C_R   0.309243 0.829063 0.460442 -0.212531
C27   C     C_R   0.529147 0.181188 0.469439 -0.234880
C28   C     C_R   0.472110 0.818937 0.478836 -0.222635
C29   C     C_R   0.557847 0.086427 0.451170 0.059477
C30   C     C_R   0.447709 0.909924 0.449574 0.055140
C31   C     C_R   0.657050 0.029793 0.454368 0.067093
C32   C     C_R   0.350077 0.964495 0.432499 0.067179
C33   C     C_R   0.489061 0.046148 0.436408 0.011525
C34   C     C_R   0.392267 0.099779 0.415750 -0.336101
C35   C     C_R   0.518331 0.948785 0.442101 0.006597
C36   C     C_3   0.816228 0.810600 0.503132 0.094151
C37   C     C_3   0.856649 0.849408 0.576389 -0.396091
C38   C     C_3   0.901065 0.775166 0.644216 -0.891052
C39   C     C_3   0.181594 0.182786 0.442525 0.063013
C40   C     C_3   0.124645 0.148630 0.504587 -0.350591
C41   C     C_3   0.061706 0.227997 0.560327 -0.972020
C42   C     C_3   0.734632 0.482739 0.934966 0.065107
C43   C     C_3   0.790032 0.540329 0.969522 -0.315721
C44   C     C_3   0.894238 0.479088 0.988943 -0.973810
C45   C     C_R   0.686761 0.932536 0.445986 0.465027
C46   C     C_3   0.330156 0.387476 0.049974 0.059029
C47   C     C_3   0.228159 0.431926 0.014163 -0.333178
C48   C     C_3   0.194790 0.358545 0.975992 -0.963780
C49   C     C_3   0.171639 0.401463 0.333767 0.033903
C50   C     C_3   0.249097 0.422079 0.285669 -0.258997
C51   C     C_3   0.343334 0.337592 0.284251 -0.940164
C52   C     C_3   0.939493 0.445587 0.706677 0.071504
C53   C     C_3   0.879193 0.385050 0.702643 -0.332604
C54   C     C_3   0.917180 0.302512 0.763656 -0.991181
C55   C     C_R   0.322895 0.059641 0.413121 0.469638
C56   C     C_R   0.573508 0.516352 0.958160 0.511869
C57   C     C_R   0.429778 0.473197 0.041807 0.522454
C58   C     C_R   0.501795 0.499093 0.913054 0.003268
H1    H     H_    0.544177 0.779641 0.500789 0.159840
H2    H     H_    0.375241 0.467438 0.915934 0.167954
H3    H     H_    0.922035 0.483472 0.365727 0.182638
H4    H     H_    0.077624 0.517563 0.633756 0.170476
H5    H     H_    0.874726 0.748573 0.477197 0.185487
H6    H     H_    0.761260 0.784909 0.527070 0.128811
H7    H     H_    0.912259 0.874015 0.552489 0.231023
H8    H     H_    0.798255 0.909763 0.604726 0.217253
H9    H     H_    0.846641 0.749741 0.669384 0.280483
H10   H     H_    0.928722 0.805586 0.696860 0.258535
H11   H     H_    0.961530 0.715297 0.617796 0.270419
H12   H     H_    0.454028 0.223628 0.475270 0.152752
H13   H     H_    0.130276 0.241611 0.405475 0.162851
H14   H     H_    0.228746 0.211512 0.477698 0.118151
H15   H     H_    0.078367 0.119525 0.469016 0.228859
H16   H     H_    0.174824 0.092530 0.545134 0.214489
H17   H     H_    0.106452 0.256503 0.598635 0.263151
H18   H     H_    0.020286 0.201023 0.603298 0.271845
H19   H     H_    0.010568 0.284862 0.521158 0.264082
H20   H     H_    0.768351 0.449209 0.875373 0.170416
H21   H     H_    0.741197 0.424878 0.979884 0.122070
H22   H     H_    0.788005 0.594323 0.922383 0.237939
H23   H     H_    0.256319 0.797255 0.461260 0.164563
H24   H     H_    0.755604 0.576293 0.028176 0.221393
H25   H     H_    0.898159 0.425214 0.036779 0.270579
H26   H     H_    0.932082 0.522987 0.014239 0.274581
H27   H     H_    0.930944 0.444250 0.930758 0.253492
H28   H     H_    0.329983 0.338273 0.100881 0.171656
H29   H     H_    0.380623 0.343533 0.001840 0.126997
H30   H     H_    0.178474 0.468851 0.065394 0.231023
H31   H     H_    0.224787 0.484171 0.964930 0.220218
H32   H     H_    0.242484 0.321706 0.923574 0.263729
H33   H     H_    0.120823 0.392995 0.950688 0.267581
H34   H     H_    0.746442 0.198682 0.493081 0.159530
H35   H     H_    0.194893 0.306924 0.024800 0.270223
H36   H     H_    0.147555 0.354094 0.295287 0.154839
H37   H     H_    0.203507 0.363773 0.393356 0.113157
H38   H     H_    0.223965 0.443116 0.220038 0.228739
H39   H     H_    0.261897 0.481194 0.316055 0.252371
H40   H     H_    0.372695 0.320577 0.349221 0.263477
H41   H     H_    0.396323 0.353857 0.245800 0.282570
H42   H     H_    0.332413 0.276240 0.256592 0.255747
H43   H     H_    0.936051 0.473428 0.771665 0.167192
H44   H     H_    0.016293 0.401627 0.695165 0.125564
H45   H     H_    0.800482 0.030496 0.468669 0.175215
H46   H     H_    0.803737 0.428194 0.718525 0.239417
H47   H     H_    0.880233 0.358156 0.637573 0.220015
H48   H     H_    0.992306 0.257935 0.748450 0.272381
H49   H     H_    0.872441 0.259707 0.758617 0.270218
H50   H     H_    0.914724 0.327373 0.829545 0.259859
H51   H     H_    0.207094 0.961855 0.421422 0.174621
H52   H     H_    0.641488 0.818718 0.428188 0.160231
H53   H     H_    0.369726 0.172277 0.397746 0.153982
H54   H     H_    0.622176 0.534073 0.082448 0.173442
N1    N     N_1   0.270550 0.499970 0.500020 -0.099747
N2    N     N_1   0.729450 0.500030 0.499980 -0.096004
O1    O     O_R   0.573650 0.500000 0.378020 -0.607893
O2    O     O_3   0.230567 0.110982 0.384894 -0.651307
O3    O     O_3   0.639350 0.542876 0.915611 -0.632988
O4    O     O_3   0.357982 0.457328 0.086470 -0.646320
O5    O     O_3   0.092795 0.486510 0.346038 -0.636855
O6    O     O_3   0.900574 0.522786 0.651162 -0.644884
O7    O     O_R   0.426350 0.500000 0.621980 -0.607675
O8    O     O_R   0.426300 0.500040 0.378020 -0.607579
O9    O     O_R   0.573700 0.499960 0.621980 -0.600633
O10   O     O_R   0.615760 0.367720 0.500000 -0.613836
O11   O     O_R   0.384240 0.632280 0.500000 -0.609562
O12   O     O_R   0.468410 0.367760 0.500000 -0.621325
O13   O     O_R   0.531590 0.632240 0.500000 -0.611864
O14   O     O_3   0.783367 0.877803 0.437488 -0.647857
Zn1   Zn    Zn3+2 0.598380 0.499970 0.500000 0.971237
Zn2   Zn    Zn3+2 0.401620 0.500030 0.500000 0.960417

loop_
_geom_bond_atom_site_label_1
_geom_bond_atom_site_label_2
_ccdc_geom_bond_type
C21   C26   A    
C11   C18   S    
C20   C25   A    
C23   C45   A    
C27   C29   A    
C56   O3    S    
O7    Zn2   S    
C44   H25   S    
C17   O11   A    
C18   N2    T    
O13   Zn1   S    
C2    C57   A    
C2    C6    S    
C53   C54   S    
C52   H44   S    
C5    C58   S    
C9    H3    S    
C36   C37   S    
C24   C26   A    
C41   H19   S    
C11   C14   A    
C55   O2    S    
C19   N1    T    
C45   O14   S    
C29   C33   A    
C40   H15   S    
C46   O4    S    
C1    O8    A    
O11   Zn2   S    
C12   O7    A    
C40   H16   S    
C3    C57   A    
C48   H33   S    
C37   H7    S    
C39   H14   S    
C15   O5    S    
C49   H36   S    
C36   H5    S    
C32   C55   A    
C8    C12   S    
C3    H2    S    
C51   H40   S    
C4    H54   S    
C38   H11   S    
C34   C55   A    
C48   H32   S    
O9    Zn1   S    
C34   H53   S    
C47   H31   S    
C10   H4    S    
C50   C51   S    
C51   H41   S    
C52   H43   S    
C22   C31   A    
C13   C19   S    
C1    O1    A    
N1    Zn2   S    
C39   C40   S    
O12   Zn2   S    
C54   H48   S    
C17   O13   A    
C43   H22   S    
C22   C25   A    
C17   C21   S    
C22   H45   S    
C2    C4    A    
C43   C44   S    
C24   C32   A    
C37   C38   S    
C41   H17   S    
C47   C48   S    
C16   C20   S    
C37   H8    S    
C33   C34   A    
C49   H37   S    
C9    C11   A    
C27   H12   S    
C54   H49   S    
C40   C41   S    
C21   C28   A    
C38   H10   S    
C42   H20   S    
C26   H23   S    
C23   C35   A    
C13   C15   A    
C10   C14   A    
N2    Zn1   S    
C42   C43   S    
C44   H27   S    
C52   O6    S    
C36   O14   S    
C52   C53   S    
C46   H29   S    
O1    Zn1   S    
C28   H1    S    
C51   H42   S    
C23   H52   S    
C46   C47   S    
C25   H34   S    
C50   H39   S    
C1    C7    S    
C24   H51   S    
C44   H26   S    
C10   C13   A    
C5    C8    T    
C42   O3    S    
C6    C7    T    
C20   C27   A    
C30   C35   A    
C14   O6    S    
C54   H50   S    
C47   H30   S    
C28   C30   A    
C16   O10   A    
C29   C31   A    
C41   H18   S    
C30   C32   A    
C50   H38   S    
C49   O5    S    
C12   O9    A    
C39   O2    S    
C33   C35   A    
C56   C58   A    
O10   Zn1   S    
C9    C15   A    
C48   H35   S    
C3    C58   A    
C53   H47   S    
C42   H21   S    
C38   H9    S    
C49   C50   S    
C31   C45   A    
C43   H24   S    
C39   H13   S    
C53   H46   S    
C36   H6    S    
C16   O12   A    
O8    Zn2   S    
C4    C56   A    
C57   O4    S    
C46   H28   S    
