data_mof_unit_505.cif
_audit_creation_date              2012-12-10T19:07:02-0500
_audit_creation_method            fapswitch 2.2
_symmetry_space_group_name_H-M    P1
_symmetry_Int_Tables_number       1
_space_group_crystal_system       triclinic
_cell_length_a                    27.820991
_cell_length_b                    10.816662
_cell_length_c                    9.537651
_cell_angle_alpha                 90.039987
_cell_angle_beta                  90.132264
_cell_angle_gamma                 90.146942
_cell_volume                      2870.14996127

loop_
_atom_site_label
_atom_site_type_symbol
_atom_type_description
_atom_site_fract_x
_atom_site_fract_y
_atom_site_fract_z
_atom_type_partial_charge
C1    C     C_R   0.499054 0.262312 0.499906 0.803766
C2    C     C_R   0.278804 0.511066 0.624942 -0.097164
C3    C     C_R   0.253674 0.500282 0.498188 0.342982
C4    C     C_R   0.101992 0.501831 0.495743 -0.121606
C5    C     C_R   0.127477 0.391470 0.471506 0.004198
C6    C     C_R   0.102279 0.281946 0.446138 -0.115897
C7    C     C_R   0.127761 0.612236 0.521046 -0.156807
C8    C     C_R   0.354515 0.499817 0.499337 -0.039343
C9    C     C_R   0.645448 0.499619 0.498841 -0.034875
C10   C     C_R   0.974463 0.387616 0.479566 0.041959
C11   C     C_R   0.974526 0.614705 0.507004 0.078922
C12   C     C_R   0.407459 0.499895 0.499820 0.793834
C13   C     C_R   0.949246 0.501041 0.493054 0.071560
C14   C     C_R   0.947478 0.276553 0.473406 -0.204162
C15   C     C_R   0.897566 0.277388 0.475154 -0.139501
C16   C     C_R   0.872461 0.388692 0.483597 -0.019517
C17   C     C_R   0.898123 0.500795 0.492736 -0.048924
C18   C     C_R   0.872530 0.612646 0.501725 -0.022412
C19   C     C_R   0.822068 0.610365 0.501383 0.539968
C20   C     C_R   0.821996 0.390427 0.484621 0.536101
C21   C     C_R   0.720481 0.463421 0.375886 -0.090744
C22   C     C_R   0.670361 0.463325 0.377592 -0.195830
C23   C     C_R   0.499230 0.737722 0.499949 0.823820
C24   C     C_R   0.671591 0.536285 0.617965 -0.214983
C25   C     C_R   0.721697 0.536375 0.616124 -0.093552
C26   C     C_R   0.746337 0.499939 0.495139 0.347047
C27   C     C_R   0.025528 0.388642 0.473856 0.062425
C28   C     C_R   0.050838 0.501563 0.494663 0.068380
C29   C     C_R   0.025582 0.614123 0.514447 -0.045400
C30   C     C_R   0.052404 0.280316 0.447004 -0.197742
C31   C     C_R   0.102369 0.721927 0.545582 0.664304
C32   C     C_R   0.947606 0.725548 0.512062 -0.199884
C33   C     C_R   0.897696 0.724228 0.509802 -0.144683
C34   C     C_R   0.592528 0.499972 0.499965 0.813446
C35   C     C_R   0.052448 0.722547 0.542539 -0.284910
C36   C     C_R   0.493945 0.063747 0.625563 0.112983
C37   C     C_R   0.494211 0.129232 0.499584 -0.094724
C38   C     C_R   0.487784 0.064290 0.373126 -0.203073
C39   C     C_R   0.487950 0.935423 0.373151 -0.158951
C40   C     C_R   0.494532 0.870816 0.499636 -0.098237
C41   C     C_R   0.494190 0.936529 0.625570 0.113144
C42   C     C_3   0.528004 0.930877 0.747270 -0.435091
C43   C     C_3   0.527529 0.071202 0.747692 -0.438934
C44   C     C_R   0.522101 0.593172 0.074090 0.207797
C45   C     C_R   0.177891 0.393122 0.472583 0.543406
C46   C     C_R   0.474184 0.415255 0.074200 -0.086961
C47   C     C_R   0.474152 0.415310 0.925258 -0.069241
C48   C     C_R   0.522424 0.592581 0.926523 0.173064
C49   C     C_3   0.574614 0.623834 0.922267 -0.554182
C50   C     C_3   0.573987 0.626752 0.081031 0.425857
C51   C     C_R   0.178386 0.609308 0.521613 0.583205
C52   C     C_R   0.278903 0.489107 0.372038 -0.095560
C53   C     C_R   0.329022 0.489115 0.372410 -0.209170
C54   C     C_R   0.328929 0.510562 0.625713 -0.208208
Cu1   Cu    Cu3+1 0.500000 0.499980 0.640670 0.951414
Cu2   Cu    Cu3+1 0.500000 0.500020 0.359330 0.967177
H1    H     H_    0.347582 0.519031 0.725057 0.160921
H2    H     H_    0.259603 0.480889 0.273732 0.142417
H3    H     H_    0.963922 0.815852 0.515072 0.140956
H4    H     H_    0.653463 0.566620 0.711731 0.151556
H5    H     H_    0.878872 0.811706 0.514440 0.189851
H6    H     H_    0.741443 0.564856 0.708691 0.146658
H7    H     H_    0.035952 0.810051 0.565872 0.167937
H8    H     H_    0.484992 0.112356 0.273858 0.162548
H9    H     H_    0.485249 0.887155 0.273885 0.185466
H10   H     H_    0.510954 0.889678 0.841692 0.210305
H11   H     H_    0.259425 0.519550 0.722795 0.143355
H12   H     H_    0.563521 0.891467 0.718527 0.201904
H13   H     H_    0.509967 0.111026 0.842011 0.196067
H14   H     H_    0.562801 0.113137 0.720065 0.207899
H15   H     H_    0.454037 0.345216 0.129878 0.141998
H16   H     H_    0.453966 0.345342 0.869202 0.140369
H17   H     H_    0.596467 0.546272 0.881154 0.169633
H18   H     H_    0.581692 0.715225 0.873535 0.220217
H19   H     H_    0.597101 0.555556 0.130582 0.093114
H20   H     H_    0.121064 0.196271 0.425287 0.205786
H21   H     H_    0.651165 0.433784 0.284526 0.146713
H22   H     H_    0.739278 0.435347 0.281855 0.145096
H23   H     H_    0.878694 0.189738 0.470078 0.189071
H24   H     H_    0.963745 0.186424 0.470041 0.140265
H25   H     H_    0.036075 0.192407 0.423344 0.145649
H26   H     H_    0.347742 0.480465 0.273471 0.159160
N1    N     N_R   0.202151 0.500897 0.497519 -0.482247
N2    N     N_R   0.797910 0.500254 0.493414 -0.469512
N3    N     N_R   0.500300 0.500930 0.147930 -0.221047
N4    N     N_R   0.500310 0.500890 0.852020 -0.176777
O1    O     O_R   0.500000 0.319640 0.618810 -0.583615
O2    O     O_2   0.797176 0.283186 0.478124 -0.529045
O3    O     O_2   0.203820 0.713724 0.544902 -0.442250
O4    O     O_2   0.797308 0.717347 0.508119 -0.524883
O5    O     O_R   0.500010 0.319680 0.381230 -0.590453
O6    O     O_R   0.430260 0.500000 0.618780 -0.584117
O7    O     O_R   0.430270 0.500040 0.381190 -0.585194
O8    O     O_R   0.499990 0.680320 0.618770 -0.579373
O9    O     O_R   0.500000 0.680360 0.381190 -0.556763
O10   O     O_R   0.569730 0.499960 0.618810 -0.582380
O11   O     O_R   0.569740 0.500000 0.381220 -0.582372
O12   O     O_2   0.202551 0.287707 0.449852 -0.515037
F1    F     F_    0.125434 0.830101 0.573195 -0.610479
F2    F     F_    0.580532 0.744739 0.134120 -0.639853

loop_
_geom_bond_atom_site_label_1
_geom_bond_atom_site_label_2
_ccdc_geom_bond_type
C10   C27   A    
C1    O1    A    
Cu2   O9    S    
C21   C26   A    
C40   C41   A    
C41   C42   S    
Cu1   Cu2   S    
Cu1   O6    S    
C16   C20   A    
C34   O10   A    
C45   O12   S    
C4    C7    A    
C5    C6    A    
C9    C22   A    
C23   C40   S    
C19   N2    A    
C34   O11   A    
C18   C19   A    
Cu2   O5    S    
C15   H23   S    
C16   C17   A    
C21   H22   S    
C14   H24   S    
C1    C37   S    
C46   N3    A    
C1    O5    A    
C21   C22   A    
C27   C30   A    
C42   H12   S    
C39   H9    S    
C36   C41   A    
C45   N1    A    
Cu2   O11   S    
Cu1   O8    S    
C4    C28   A    
C38   H8    S    
Cu2   O7    S    
C7    C31   A    
C47   N4    A    
C24   C25   A    
C2    H11   S    
C10   C14   A    
C8    C54   A    
C39   C40   A    
C4    C5    A    
C48   N4    A    
C25   C26   A    
C5    C45   A    
C53   H26   S    
C37   C38   A    
C8    C12   S    
C17   C18   A    
C46   H15   S    
C52   H2    S    
C33   H5    S    
C48   C49   S    
C6    C30   A    
C11   C32   A    
C43   H14   S    
C31   F1    S    
C20   N2    A    
C2    C54   A    
C9    C34   S    
C31   C35   A    
C12   O7    A    
C42   C43   S    
C44   N3    A    
C51   N1    A    
C52   C53   A    
C44   C50   S    
C46   C47   A    
C28   C29   A    
C26   N2    S    
C14   C15   A    
C12   O6    A    
C22   H21   S    
Cu1   O10   S    
C10   C13   A    
C8    C53   A    
C3    C52   A    
C9    C24   A    
C6    H20   S    
C29   C35   A    
C50   F2    S    
C23   O8    A    
C13   C17   A    
C32   C33   A    
C30   H25   S    
C2    C3    A    
C7    C51   A    
C19   O4    S    
C50   H19   S    
C51   O3    S    
C3    N1    S    
C11   C13   A    
Cu2   N3    S    
C38   C39   A    
Cu1   N4    S    
C20   O2    S    
C23   O9    A    
C49   H17   S    
C25   H6    S    
Cu1   O1    S    
C18   C33   A    
C47   H16   S    
C44   C48   A    
C11   C29   A    
C36   C37   A    
C49   C50   S    
C27   C28   A    
C42   H10   S    
C49   H18   S    
C36   C43   S    
C35   H7    S    
C24   H4    S    
C32   H3    S    
C43   H13   S    
C15   C16   A    
C54   H1    S    
