data_mof_unit_3554.cif
_audit_creation_date              2012-12-10T18:29:38-0500
_audit_creation_method            fapswitch 2.2
_symmetry_space_group_name_H-M    P1
_symmetry_Int_Tables_number       1
_space_group_crystal_system       triclinic
_cell_length_a                    11.552302
_cell_length_b                    14.958099
_cell_length_c                    15.542184
_cell_angle_alpha                 82.274226
_cell_angle_beta                  89.554096
_cell_angle_gamma                 104.160136
_cell_volume                      2578.14358767

loop_
_atom_site_label
_atom_site_type_symbol
_atom_type_description
_atom_site_fract_x
_atom_site_fract_y
_atom_site_fract_z
_atom_type_partial_charge
C1    C     C_R   0.485052 0.441797 0.662005 0.863799
C2    C     C_R   0.518678 0.558264 0.337974 0.863498
C3    C     C_R   0.534909 0.356572 0.927997 0.174803
C4    C     C_R   0.592949 0.652691 0.068134 0.172543
C5    C     C_R   0.566948 0.519495 0.953042 0.069768
C6    C     C_R   0.568411 0.490348 0.043131 0.069713
C7    C     C_R   0.566771 0.396107 0.072654 -0.237166
C8    C     C_R   0.593787 0.616153 0.922029 -0.229993
C9    C     C_R   0.552235 0.330722 0.015438 -0.229917
C10   C     C_R   0.609142 0.681682 0.979025 -0.227054
C11   C     C_R   0.660432 0.836575 0.649507 0.074339
C12   C     C_R   0.351261 0.170103 0.341661 0.057027
C13   C     C_R   0.638732 0.750106 0.619117 -0.008929
C14   C     C_R   0.371531 0.254849 0.375127 -0.002779
C15   C     C_R   0.515949 0.795426 0.509313 -0.047966
C16   C     C_R   0.475278 0.201114 0.493501 -0.048332
C17   C     C_R   0.534669 0.884941 0.533693 -0.054968
C18   C     C_R   0.452470 0.111476 0.468852 -0.051288
C19   C     C_R   0.599414 0.903134 0.610099 -0.005106
C20   C     C_R   0.392720 0.096002 0.389743 -0.019350
C21   C     C_R   0.487323 0.954901 0.485821 0.029148
C22   C     C_R   0.493636 0.039229 0.518770 0.034391
C23   C     C_R   0.718002 0.500797 0.500108 0.902522
C24   C     C_R   0.282001 0.499213 0.499878 0.904291
C25   C     C_R   0.539097 0.048727 0.601692 -0.324649
C26   C     C_R   0.434613 0.942971 0.405519 -0.316851
C27   C     C_R   0.597590 0.985465 0.645388 0.461001
C28   C     C_R   0.379826 0.007910 0.361324 0.456436
C29   C     C_1   0.838990 0.501997 0.500406 -0.191489
C30   C     C_1   0.161018 0.498050 0.499555 -0.192719
C31   C     C_1   0.940936 0.501057 0.500201 -0.002095
C32   C     C_1   0.059081 0.499024 0.499747 -0.001967
C33   C     C_R   0.491907 0.407863 0.753916 -0.055880
C34   C     C_R   0.542973 0.593353 0.245659 -0.056699
C35   C     C_R   0.512513 0.289500 0.871006 -0.202646
C36   C     C_R   0.595891 0.718236 0.125321 -0.199002
C37   C     C_R   0.493028 0.315401 0.783704 -0.199613
C38   C     C_R   0.571688 0.688684 0.214039 -0.195385
C39   C     C_R   0.510213 0.473322 0.811380 -0.263900
C40   C     C_R   0.542282 0.528627 0.188867 -0.262552
C41   C     C_R   0.539211 0.450860 0.896942 0.092713
C42   C     C_R   0.570514 0.556559 0.100538 0.093102
H1    H     H_    0.551330 0.259244 0.040197 0.151334
H2    H     H_    0.628923 0.755024 0.953059 0.152204
H3    H     H_    0.525583 0.103571 0.635869 0.138947
H4    H     H_    0.435347 0.883558 0.373553 0.150988
H5    H     H_    0.514642 0.455670 0.214131 0.157635
H6    H     H_    0.499866 0.542084 0.788414 0.162434
H7    H     H_    0.573874 0.739952 0.257417 0.159023
H8    H     H_    0.480023 0.263742 0.739742 0.152165
H9    H     H_    0.511257 0.217514 0.893755 0.142301
H10   H     H_    0.614870 0.791989 0.101242 0.141401
H11   H     H_    0.580246 0.371546 0.139440 0.152622
H12   H     H_    0.606286 0.643204 0.853793 0.148193
H13   H     H_    0.529770 0.221142 0.547001 0.128520
H14   H     H_    0.457559 0.772187 0.458871 0.132971
H15   H     H_    0.341622 0.313068 0.342925 0.164272
H16   H     H_    0.676887 0.695116 0.648976 0.157770
N1    N     N_R   0.566020 0.731700 0.552730 -0.121517
N2    N     N_R   0.433980 0.268300 0.447270 -0.122245
O1    O     O_R   0.466720 0.383110 0.605620 -0.619711
O2    O     O_R   0.533280 0.616890 0.394380 -0.619679
O3    O     O_R   0.509090 0.531900 0.639510 -0.624156
O4    O     O_R   0.490910 0.468100 0.360490 -0.629884
O5    O     O_R   0.644370 0.425610 0.483050 -0.607447
O6    O     O_R   0.355630 0.574390 0.516950 -0.608196
O7    O     O_R   0.686740 0.574390 0.516930 -0.612385
O8    O     O_R   0.313260 0.425610 0.483070 -0.610251
Zn1   Zn    Zn3+2 0.471710 0.400660 0.477370 0.937099
Zn2   Zn    Zn3+2 0.528290 0.599340 0.522630 0.938473
O9    O     O_3   0.634267 0.996079 0.729161 -0.628459
C43   C     C_3   0.716919 0.083095 0.730500 0.071330
H17   H     H_    0.670227 0.140113 0.727071 0.150074
H18   H     H_    0.785673 0.098693 0.676168 0.133778
C44   C     C_3   0.780564 0.081128 0.815828 -0.835060
H19   H     H_    0.830649 0.026164 0.821879 0.247480
H20   H     H_    0.844428 0.149528 0.818128 0.214941
H21   H     H_    0.714453 0.066851 0.871346 0.260467
O10   O     O_3   0.324696 0.987005 0.285244 -0.635166
C45   C     C_3   0.216755 0.917790 0.305635 0.071441
H22   H     H_    0.157315 0.940540 0.350464 0.136073
H23   H     H_    0.233941 0.850734 0.335900 0.149982
C46   C     C_3   0.151622 0.900548 0.222440 -0.819299
H24   H     H_    0.208080 0.876358 0.176922 0.262877
H25   H     H_    0.066616 0.846318 0.237695 0.211987
H26   H     H_    0.131117 0.965629 0.190668 0.248289
C47   C     C_3   0.749384 0.857792 0.720667 -0.349350
C48   C     C_3   0.835363 0.794414 0.736414 -0.951797
H27   H     H_    0.787369 0.723486 0.766916 0.257763
H28   H     H_    0.881546 0.790767 0.674489 0.271093
H29   H     H_    0.904021 0.823212 0.781720 0.265537
H30   H     H_    0.807002 0.929069 0.701710 0.232332
H31   H     H_    0.699927 0.854744 0.783005 0.250169
C49   C     C_3   0.290055 0.160842 0.255187 -0.336616
C50   C     C_3   0.257324 0.247622 0.208374 -0.952713
H32   H     H_    0.191089 0.268746 0.248292 0.263829
H33   H     H_    0.338426 0.305830 0.193123 0.264605
H34   H     H_    0.216275 0.231633 0.146076 0.268091
H35   H     H_    0.350660 0.141435 0.209141 0.257097
H36   H     H_    0.205749 0.105425 0.266731 0.235541

loop_
_geom_bond_atom_site_label_1
_geom_bond_atom_site_label_2
_ccdc_geom_bond_type
C40   H5    S    
C47   C48   S    
C4    C36   A    
C50   H32   S    
C21   C26   A    
C50   H34   S    
C1    C33   S    
C39   C41   A    
C38   H7    S    
C11   C19   A    
C33   C39   A    
C34   C40   A    
C23   C29   S    
C35   C37   A    
C45   C46   S    
C5    C6    A    
O2    Zn2   S    
C7    C9    A    
C16   N2    A    
C23   O7    A    
C28   O10   S    
C31   C32   S    
C11   C47   S    
O8    Zn1   S    
C22   C25   A    
C48   H29   S    
C49   H36   S    
C19   C27   A    
C36   H10   S    
C24   O6    A    
C2    C34   S    
C40   C42   A    
C34   C38   A    
C21   C22   A    
C12   C49   S    
C43   C44   S    
C1    O3    A    
C2    O4    A    
C24   C30   S    
C9    H1    S    
C10   H2    S    
C43   H18   S    
C8    H12   S    
C24   O8    A    
C43   H17   S    
C13   H16   S    
C20   C28   A    
C33   C37   A    
C44   H19   S    
C3    C9    A    
C46   H24   S    
O3    Zn2   S    
C3    C35   A    
C12   C20   A    
C16   C18   A    
O4    Zn1   S    
C44   H20   S    
N2    Zn1   S    
C46   H25   S    
C48   H28   S    
C35   H9    S    
C7    H11   S    
C4    C10   A    
C25   H3    S    
C27   O9    S    
O1    Zn1   S    
C15   C17   A    
C14   H15   S    
C5    C41   A    
C3    C41   A    
C18   C22   A    
C15   N1    A    
C12   C14   A    
C45   H22   S    
C1    O1    A    
C5    C8    A    
C50   H33   S    
C6    C7    A    
C13   N1    A    
C25   C27   A    
C14   N2    A    
C26   C28   A    
O7    Zn2   S    
C15   H14   S    
C23   O5    A    
C36   C38   A    
C16   H13   S    
O9    C43   S    
C29   C31   T    
C30   C32   T    
C37   H8    S    
C11   C13   A    
O6    Zn2   S    
C4    C42   A    
C49   H35   S    
O5    Zn1   S    
C47   H31   S    
C17   C19   A    
C45   H23   S    
C18   C20   A    
C49   C50   S    
C44   H21   S    
C17   C21   A    
C26   H4    S    
N1    Zn2   S    
O10   C45   S    
C46   H26   S    
C48   H27   S    
C8    C10   A    
C6    C42   A    
C47   H30   S    
C2    O2    A    
C39   H6    S    
