data_mof_unit_2252.cif
_audit_creation_date              2012-12-11T17:36:14-0500
_audit_creation_method            fapswitch 2.2
_symmetry_space_group_name_H-M    P1
_symmetry_Int_Tables_number       1
_space_group_crystal_system       triclinic
_cell_length_a                    25.861984
_cell_length_b                    6.903503
_cell_length_c                    21.689591
_cell_angle_alpha                 90.018638
_cell_angle_beta                  96.062449
_cell_angle_gamma                 90.01757
_cell_volume                      3850.76492372

loop_
_atom_site_label
_atom_site_type_symbol
_atom_type_description
_atom_site_fract_x
_atom_site_fract_y
_atom_site_fract_z
_atom_type_partial_charge
O1    O     O_R   0.208650 0.594520 0.175450 -0.534776
O2    O     O_R   0.791350 0.405480 0.824550 -0.534776
O3    O     O_R   0.291350 0.094520 0.324550 -0.534752
O4    O     O_R   0.708650 0.905480 0.675450 -0.534753
O5    O     O_R   0.192980 0.260780 0.300160 -0.540733
O6    O     O_R   0.807020 0.739220 0.699840 -0.540733
O7    O     O_R   0.307020 0.760780 0.199840 -0.540743
O8    O     O_R   0.692980 0.239220 0.800160 -0.540743
C1    C     C_R   0.178786 0.432877 0.318416 0.685677
C2    C     C_R   0.821214 0.567123 0.681584 0.685678
C3    C     C_R   0.321215 0.932881 0.181586 0.685485
C4    C     C_R   0.678785 0.067119 0.818414 0.685485
O9    O     O_R   0.202550 0.264660 0.174420 -0.536161
O10   O     O_R   0.797450 0.735340 0.825580 -0.536161
O11   O     O_R   0.297450 0.764660 0.325580 -0.536130
O12   O     O_R   0.702550 0.235340 0.674420 -0.536130
O13   O     O_R   0.300990 0.096480 0.197920 -0.539832
O14   O     O_R   0.699010 0.903520 0.802080 -0.539831
O15   O     O_R   0.199010 0.596480 0.302080 -0.539823
O16   O     O_R   0.800990 0.403520 0.697920 -0.539823
C5    C     C_R   0.191099 0.433224 0.151077 0.699987
C6    C     C_R   0.808901 0.566776 0.848923 0.699986
C7    C     C_R   0.308897 0.933341 0.348914 0.699983
C8    C     C_R   0.691103 0.066659 0.651086 0.699983
O17   O     O_3   0.282290 0.427760 0.257860 -0.364506
O18   O     O_3   0.717710 0.572240 0.742140 -0.364506
O19   O     O_3   0.217710 0.927760 0.242140 -0.364540
O20   O     O_3   0.782290 0.072240 0.757860 -0.364540
V1    V     V_3+5 0.244010 0.152080 0.248540 1.426703
V2    V     V_3+5 0.755990 0.847920 0.751460 1.426703
V3    V     V_3+5 0.255990 0.652080 0.251460 1.426665
V4    V     V_3+5 0.744010 0.347920 0.748540 1.426665
C9    C     C_R   0.657567 0.061255 0.591730 -0.049565
C10   C     C_R   0.342433 0.938745 0.408270 -0.049566
C11   C     C_R   0.842447 0.561993 0.908294 -0.050013
C12   C     C_R   0.157553 0.438007 0.091706 -0.050012
C13   C     C_R   0.646781 0.126503 0.481788 -0.111277
C14   C     C_R   0.353219 0.873496 0.518212 -0.111277
C15   C     C_R   0.853651 0.633978 0.017816 -0.111430
C16   C     C_R   0.146349 0.366022 0.982183 -0.111430
C17   C     C_R   0.678315 0.116072 0.537710 -0.172338
C18   C     C_R   0.321685 0.883928 0.462290 -0.172338
C19   C     C_R   0.821989 0.621370 0.962038 -0.171933
C20   C     C_R   0.178011 0.378630 0.037962 -0.171932
C21   C     C_R   0.604392 0.016990 0.589548 -0.188490
C22   C     C_R   0.395608 0.983010 0.410452 -0.188490
C23   C     C_R   0.895474 0.515240 0.910631 -0.188475
C24   C     C_R   0.104526 0.484760 0.089369 -0.188475
C25   C     C_R   0.570751 0.029430 0.533049 0.074236
C26   C     C_R   0.429249 0.970570 0.466951 0.074236
C27   C     C_R   0.929263 0.529991 0.966969 0.074293
C28   C     C_R   0.070737 0.470009 0.033031 0.074293
C29   C     C_R   0.593175 0.085565 0.478536 0.079960
C30   C     C_R   0.406825 0.914435 0.521464 0.079960
C31   C     C_R   0.907129 0.590911 0.021178 0.080154
C32   C     C_R   0.092871 0.409089 0.978822 0.080154
C33   C     C_R   0.515784 0.990837 0.529049 0.020349
C34   C     C_R   0.484216 0.009163 0.470951 0.020349
C35   C     C_R   0.984124 0.489389 0.971064 0.020521
C36   C     C_R   0.015876 0.510611 0.028936 0.020521
C37   C     C_R   0.508612 0.065076 0.418609 -0.186150
C38   C     C_R   0.491388 0.934924 0.581391 -0.186150
C39   C     C_R   0.991766 0.571335 0.080966 -0.185825
C40   C     C_R   0.008234 0.428665 0.919034 -0.185825
C41   C     C_R   0.561664 0.102085 0.421879 0.141787
C42   C     C_R   0.438335 0.897915 0.578121 0.141787
C43   C     C_R   0.938814 0.610216 0.077618 0.141847
C44   C     C_R   0.061186 0.389784 0.922381 0.141847
H1    H     H_    0.409320 0.021508 0.366929 0.099372
H2    H     H_    0.590680 0.978492 0.633071 0.099372
H3    H     H_    0.091001 0.526535 0.132700 0.099730
H4    H     H_    0.908999 0.473465 0.867300 0.099730
H5    H     H_    0.280826 0.847414 0.461062 0.113769
H6    H     H_    0.719174 0.152586 0.538938 0.113769
H7    H     H_    0.218731 0.339995 0.039322 0.113958
H8    H     H_    0.781269 0.660005 0.960678 0.113958
H9    H     H_    0.665008 0.169808 0.441400 0.164050
H10   H     H_    0.334992 0.830192 0.558600 0.164050
H11   H     H_    0.835642 0.680905 0.057971 0.164030
H12   H     H_    0.164357 0.319095 0.942029 0.164030
H13   H     H_    0.487462 0.082550 0.373585 0.149524
H14   H     H_    0.512537 0.917450 0.626414 0.149524
H15   H     H_    0.013076 0.591336 0.125785 0.149454
H16   H     H_    0.986924 0.408664 0.874215 0.149454
C45   C     C_R   0.427170 0.793622 0.079148 -0.115250
C46   C     C_R   0.572830 0.206378 0.920852 -0.115250
C47   C     C_R   0.072843 0.293600 0.420874 -0.115297
C48   C     C_R   0.927157 0.706400 0.579125 -0.115297
H17   H     H_    0.445202 0.663036 0.063838 0.109267
H18   H     H_    0.554798 0.336963 0.936162 0.109267
H19   H     H_    0.054822 0.163007 0.436203 0.109272
H20   H     H_    0.945177 0.836993 0.563797 0.109272
C49   C     C_R   0.387918 0.778665 0.119108 -0.157661
C50   C     C_R   0.612082 0.221334 0.880892 -0.157661
C51   C     C_R   0.112095 0.278643 0.380915 -0.157639
C52   C     C_R   0.887904 0.721357 0.619085 -0.157639
H21   H     H_    0.376570 0.636239 0.133639 0.119377
H22   H     H_    0.623430 0.363761 0.866361 0.119377
H23   H     H_    0.123455 0.136208 0.366402 0.119366
H24   H     H_    0.876545 0.863792 0.633598 0.119366
C53   C     C_R   0.363590 0.945837 0.139746 -0.058248
C54   C     C_R   0.636410 0.054163 0.860254 -0.058249
C55   C     C_R   0.136410 0.445827 0.360255 -0.058229
C56   C     C_R   0.863590 0.554173 0.639745 -0.058229
C57   C     C_R   0.379858 0.127887 0.119304 -0.158139
C58   C     C_R   0.620142 0.872113 0.880696 -0.158139
C59   C     C_R   0.120129 0.627889 0.380675 -0.158059
C60   C     C_R   0.879871 0.372111 0.619325 -0.158058
H25   H     H_    0.362236 0.260152 0.133884 0.122104
H26   H     H_    0.637764 0.739848 0.866116 0.122104
H27   H     H_    0.137739 0.760163 0.366077 0.122088
H28   H     H_    0.862261 0.239837 0.633923 0.122088
C61   C     C_R   0.418993 0.142343 0.079482 -0.119489
C62   C     C_R   0.581007 0.857657 0.920518 -0.119489
C63   C     C_R   0.080993 0.642345 0.420497 -0.119516
C64   C     C_R   0.919006 0.357655 0.579503 -0.119516
H29   H     H_    0.430538 0.284145 0.064498 0.108122
H30   H     H_    0.569462 0.715855 0.935502 0.108122
H31   H     H_    0.069437 0.784157 0.435463 0.108119
H32   H     H_    0.930562 0.215842 0.564537 0.108119
C65   C     C_R   0.442869 0.975615 0.059040 0.129781
C66   C     C_R   0.557131 0.024385 0.940960 0.129780
C67   C     C_R   0.057131 0.475606 0.440961 0.129719
C68   C     C_R   0.942869 0.524394 0.559039 0.129719
C69   C     C_1   0.483190 0.992343 0.017403 -0.037729
C70   C     C_1   0.516810 0.007657 0.982596 -0.037729
C71   C     C_1   0.016810 0.492340 0.482597 -0.037824
C72   C     C_1   0.983190 0.507660 0.517403 -0.037824
I1    I     I_    0.590282 0.185380 0.337110 -0.373847
I2    I     I_    0.409718 0.814620 0.662890 -0.373846
I3    I     I_    0.910642 0.700980 0.161894 -0.374332
I4    I     I_    0.089358 0.299020 0.838106 -0.374332

loop_
_geom_bond_atom_site_label_1
_geom_bond_atom_site_label_2
_ccdc_geom_bond_type
O17   V3    S    
C48   C52   A    
O1    C5    A    
C47   H19   S    
O19   V1    S    
C9    C21   A    
O3    C7    A    
C10   C18   A    
C48   C68   A    
C11   C23   A    
C25   C33   A    
C33   C38   A    
C5    C12   S    
C4    C54   S    
C6    C11   S    
O5    C1    A    
C26   C30   A    
C58   C62   A    
C36   C39   A    
C40   C44   A    
C57   C61   A    
C14   C18   A    
C58   H26   S    
O4    C8    A    
C51   H23   S    
C50   H22   S    
O1    V3    S    
O13   V1    S    
C31   C43   A    
O2    V4    S    
O3    V1    S    
C40   H16   S    
C22   H1    S    
C46   C50   A    
C17   H6    S    
C45   C49   A    
C1    O15   A    
C15   C31   A    
C48   H20   S    
C2    O16   A    
C16   C32   A    
C47   C51   A    
O2    C6    A    
C16   H12   S    
C45   C65   A    
C10   C22   A    
C11   C19   A    
C16   C20   A    
C1    C55   S    
C68   C72   S    
C13   C29   A    
C34   C37   A    
O11   C7    A    
C38   H14   S    
O15   V3    S    
C35   C36   A    
O12   C8    A    
C53   C57   A    
O10   V2    S    
C51   C55   A    
O5    V1    S    
O17   V1    S    
C39   C43   A    
C63   C67   A    
C38   C42   A    
O19   V3    S    
O8    V4    S    
O20   V4    S    
O7    V3    S    
C46   H18   S    
C49   C53   A    
C45   H17   S    
O18   V4    S    
C23   C27   A    
C14   H10   S    
C32   C44   A    
C13   H9    S    
C60   H28   S    
C39   H15   S    
C26   C34   A    
C66   C70   S    
C20   H7    S    
O7    C3    A    
C65   C69   S    
C37   C41   A    
C41   I1    S    
C14   C30   A    
C21   C25   A    
O8    C4    A    
C7    C10   S    
C35   C40   A    
O9    C5    A    
C3    C53   S    
C44   I4    S    
C59   C63   A    
C62   H30   S    
C61   H29   S    
O6    V2    S    
O18   V2    S    
C63   H31   S    
C52   C56   A    
C69   C70   T    
C12   C20   A    
C27   C35   A    
C24   H3    S    
C71   C72   T    
C49   H21   S    
C67   C71   S    
C56   C60   A    
C29   C41   A    
O16   V4    S    
O9    V1    S    
C19   H8    S    
C57   H25   S    
C3    O13   A    
C18   H5    S    
C64   C68   A    
C21   H2    S    
C59   H27   S    
C43   I3    S    
O6    C2    A    
C15   C19   A    
O11   V3    S    
C30   C42   A    
O12   V4    S    
C22   C26   A    
C8    C9    S    
C9    C17   A    
O10   C6    A    
C2    C56   S    
C37   H13   S    
C47   C67   A    
C60   C64   A    
C33   C34   A    
C25   C29   A    
C52   H24   S    
O20   V2    S    
C12   C24   A    
C27   C31   A    
C13   C17   A    
C46   C66   A    
C23   H4    S    
O14   V2    S    
C62   C66   A    
C64   H32   S    
C24   C28   A    
C61   C65   A    
C50   C54   A    
C28   C36   A    
C54   C58   A    
C4    O14   A    
C55   C59   A    
O4    V2    S    
C28   C32   A    
C15   H11   S    
C42   I2    S    
