data_mof_unit_323.cif
_audit_creation_date              2012-12-10T17:44:32-0500
_audit_creation_method            fapswitch 2.2
_symmetry_space_group_name_H-M    P1
_symmetry_Int_Tables_number       1
_space_group_crystal_system       triclinic
_cell_length_a                    9.889781
_cell_length_b                    10.749905
_cell_length_c                    15.578423
_cell_angle_alpha                 92.103948
_cell_angle_beta                  68.91523
_cell_angle_gamma                 90.031631
_cell_volume                      1544.13923836

loop_
_atom_site_label
_atom_site_type_symbol
_atom_type_description
_atom_site_fract_x
_atom_site_fract_y
_atom_site_fract_z
_atom_type_partial_charge
C1    C     C_R   0.503925 0.739092 0.491159 0.874118
C2    C     C_R   0.408987 0.554677 0.914097 0.095269
C3    C     C_R   0.263243 0.525469 0.966722 0.187069
C4    C     C_R   0.508905 0.582647 0.958497 0.072825
C5    C     C_R   0.464387 0.567243 0.054364 0.078455
C6    C     C_R   0.315889 0.547558 0.105319 -0.240456
C7    C     C_R   0.217462 0.526536 0.062022 -0.255295
C8    C     C_R   0.652242 0.622726 0.910597 -0.243899
C9    C     C_R   0.752025 0.636233 0.954365 -0.262030
C10   C     C_R   0.713786 0.606416 0.046157 0.185447
C11   C     C_R   0.570334 0.569793 0.096008 0.097868
C12   C     C_R   0.410085 0.501770 0.675291 0.860252
C13   C     C_R   0.817277 0.610600 0.088786 -0.223595
C14   C     C_R   0.781273 0.571760 0.178823 -0.215839
C15   C     C_R   0.538503 0.529848 0.184957 -0.270583
C16   C     C_R   0.270028 0.881080 0.453093 -0.292981
C17   C     C_R   0.131438 0.937725 0.478708 0.551499
C18   C     C_R   0.108748 0.052192 0.526802 -0.185959
C19   C     C_R   0.222297 0.113801 0.542103 -0.184895
C20   C     C_R   0.363701 0.061045 0.510552 0.102202
C21   C     C_R   0.380845 0.936687 0.479201 0.059043
C22   C     C_R   0.505695 0.871689 0.479944 -0.100059
C23   C     C_R   0.495633 0.260110 0.505923 0.885420
C24   C     C_R   0.624183 0.935911 0.486921 -0.218325
C25   C     C_R   0.618030 0.062801 0.498038 -0.209137
C26   C     C_R   0.489181 0.126443 0.509781 -0.123870
C27   C     C_R   0.795710 0.670971 0.616157 -0.190038
C28   C     C_R   0.835116 0.757570 0.671210 -0.317761
C29   C     C_R   0.975383 0.755198 0.674369 0.535148
C30   C     C_R   0.074130 0.666549 0.618559 -0.173365
C31   C     C_R   0.039641 0.582713 0.558162 -0.023383
C32   C     C_R   0.895649 0.583538 0.557645 0.158322
C33   C     C_R   0.958331 0.418407 0.446222 -0.270660
C34   C     C_R   0.589861 0.504180 0.324740 0.869068
C35   C     C_R   0.103612 0.418299 0.445118 0.520422
C36   C     C_R   0.355624 0.511903 0.775347 -0.046000
C37   C     C_R   0.640980 0.530742 0.226924 -0.057191
C38   C     C_R   0.165466 0.493111 0.923223 -0.221315
C39   C     C_R   0.211116 0.487561 0.827738 -0.195952
C40   C     C_R   0.452446 0.546100 0.818389 -0.270383
H1    H     H_    0.925524 0.643872 0.052594 0.145762
H2    H     H_    0.721309 0.888176 0.485403 0.205175
H3    H     H_    0.292144 0.794452 0.413665 0.162291
H4    H     H_    0.001598 0.094600 0.552229 0.143428
H5    H     H_    0.195218 0.199921 0.582853 0.173209
H6    H     H_    0.714219 0.110653 0.498618 0.175818
H7    H     H_    0.925554 0.351619 0.404356 0.161805
H8    H     H_    0.685616 0.676112 0.621509 0.218110
H9    H     H_    0.433312 0.495800 0.223121 0.145138
H10   H     H_    0.178121 0.666083 0.624341 0.220885
H11   H     H_    0.861301 0.575885 0.211270 0.153974
H12   H     H_    0.861078 0.665649 0.915258 0.152859
H13   H     H_    0.134904 0.461038 0.795064 0.157363
H14   H     H_    0.563317 0.561016 0.775568 0.158043
H15   H     H_    0.271578 0.550057 0.179342 0.130220
H16   H     H_    0.690261 0.646383 0.839438 0.147956
N1    N     N_R   0.856800 0.501200 0.500850 -0.133860
N2    N     N_R   0.142390 0.501280 0.500880 -0.153350
O1    O     O_R   0.385310 0.683220 0.500000 -0.644183
O2    O     O_R   0.614640 0.683250 0.500010 -0.646973
O3    O     O_R   0.319840 0.499980 0.632240 -0.644014
O4    O     O_R   0.549160 0.500000 0.632250 -0.631003
O5    O     O_R   0.385360 0.316750 0.499990 -0.575382
O6    O     O_R   0.614690 0.316780 0.500000 -0.616661
O7    O     O_R   0.450840 0.500000 0.367750 -0.600224
O8    O     O_R   0.680160 0.500020 0.367760 -0.618327
Zn1   Zn    Zn3+2 0.346880 0.499980 0.499990 0.955577
Zn2   Zn    Zn3+2 0.653120 0.500020 0.500010 0.925244
H17   H     H_    0.105833 0.507602 0.103371 0.143595
O9    O     O_3   0.008524 0.879489 0.473285 -0.668099
C41   C     C_3   0.032590 0.798714 0.395267 0.064623
H18   H     H_    0.928603 0.750597 0.406309 0.194365
H19   H     H_    0.111137 0.722366 0.388941 0.116534
C42   C     C_3   0.070978 0.870693 0.306784 -0.401088
H20   H     H_    0.006254 0.958422 0.321704 0.243826
H21   H     H_    0.188138 0.892976 0.281499 0.213744
C43   C     C_3   0.037059 0.796182 0.231974 -0.938879
H22   H     H_    0.084097 0.701139 0.223608 0.259223
H23   H     H_    0.082903 0.843042 0.165518 0.269655
H24   H     H_    0.917885 0.789647 0.250744 0.266001
H25   H     H_    0.753678 0.825048 0.710891 0.147457
O10   O     O_3   0.028140 0.839642 0.724751 -0.657575
C44   C     C_3   0.921049 0.905627 0.798130 0.084260
H26   H     H_    0.965960 0.921941 0.853426 0.167010
H27   H     H_    0.820584 0.852001 0.830622 0.122843
C45   C     C_3   0.890225 0.032942 0.767328 -0.349351
H28   H     H_    0.991983 0.087094 0.743673 0.228213
H29   H     H_    0.851853 0.021310 0.708821 0.222895
C46   C     C_3   0.775907 0.106177 0.845760 -0.952299
H30   H     H_    0.672243 0.054807 0.869287 0.267557
H31   H     H_    0.756682 0.198007 0.821460 0.269511
H32   H     H_    0.813238 0.121838 0.904510 0.265702
O11   O     O_3   0.203801 0.327116 0.396234 -0.608286
C47   C     C_3   0.214350 0.313639 0.303312 0.076116
H33   H     H_    0.330971 0.314482 0.259908 0.168286
H34   H     H_    0.160620 0.390054 0.280326 0.100768
C48   C     C_3   0.157567 0.187104 0.285403 -0.370180
H35   H     H_    0.224443 0.112934 0.299125 0.227088
H36   H     H_    0.043821 0.176208 0.332375 0.210658
C49   C     C_3   0.165170 0.172369 0.185901 -0.944848
H37   H     H_    0.097084 0.244896 0.171389 0.266390
H38   H     H_    0.124496 0.079534 0.174114 0.269114
H39   H     H_    0.278898 0.180545 0.137604 0.269870
H40   H     H_    0.054906 0.468688 0.962857 0.146963

loop_
_geom_bond_atom_site_label_1
_geom_bond_atom_site_label_2
_ccdc_geom_bond_type
C27   H8    S    
O8    Zn2   S    
O11   C47   S    
C34   C37   S    
C24   H2    S    
C19   C20   A    
C6    H15   S    
C4    C8    A    
C8    H16   S    
C13   H1    S    
C48   H35   S    
C39   H13   S    
C43   H22   S    
C16   C21   A    
C42   H21   S    
C35   N2    A    
O6    Zn2   S    
C31   N2    A    
C28   C29   A    
C5    C11   A    
C3    C7    A    
C1    O1    A    
C14   H11   S    
C30   C31   A    
C45   H29   S    
C18   C19   A    
C23   C26   S    
C15   C37   A    
C38   H40   S    
O1    Zn1   S    
C11   C15   A    
C44   H26   S    
C3    C38   A    
C8    C9    A    
O7    Zn1   S    
C42   C43   S    
O9    C41   S    
C12   C36   S    
C9    C10   A    
C43   H23   S    
C30   H10   S    
C1    C22   S    
C21   C22   A    
C34   O8    A    
C9    H12   S    
C32   N1    A    
C34   O7    A    
C48   H36   S    
C35   O11   S    
C38   C39   A    
O5    Zn1   S    
C42   H20   S    
C36   C40   A    
C24   C25   A    
C1    O2    A    
C41   H19   S    
C45   H28   S    
C16   C17   A    
C47   C48   S    
C25   C26   A    
C45   C46   S    
C49   H39   S    
C2    C4    A    
C29   C30   A    
C18   H4    S    
C12   O4    A    
O3    Zn1   S    
C31   C32   A    
C49   H38   S    
C17   C18   A    
C46   H32   S    
C47   H34   S    
C16   H3    S    
C23   O6    A    
C44   H27   S    
C40   H14   S    
C33   H7    S    
C22   C24   A    
C46   H31   S    
N1    Zn2   S    
C48   C49   S    
C43   H24   S    
C33   N1    A    
C28   H25   S    
C36   C39   A    
C4    C5    A    
C10   C13   A    
C7    H17   S    
C41   C42   S    
C19   H5    S    
C6    C7    A    
O4    Zn2   S    
C2    C3    A    
C41   H18   S    
C14   C37   A    
C12   O3    A    
C5    C6    A    
C20   C26   A    
C23   O5    A    
C49   H37   S    
C33   C35   A    
C15   H9    S    
C47   H33   S    
C29   O10   S    
C10   C11   A    
C27   C32   A    
C2    C40   A    
N2    Zn1   S    
C17   O9    S    
C44   C45   S    
C20   C21   A    
O2    Zn2   S    
O10   C44   S    
C27   C28   A    
C46   H30   S    
C13   C14   A    
C25   H6    S    
