data_mof_unit_1179.cif
_audit_creation_date              2012-12-10T17:44:37-0500
_audit_creation_method            fapswitch 2.2
_symmetry_space_group_name_H-M    P1
_symmetry_Int_Tables_number       1
_space_group_crystal_system       triclinic
_cell_length_a                    9.954373
_cell_length_b                    10.75901
_cell_length_c                    15.513008
_cell_angle_alpha                 93.048407
_cell_angle_beta                  67.153966
_cell_angle_gamma                 88.24525
_cell_volume                      1526.55283646

loop_
_atom_site_label
_atom_site_type_symbol
_atom_type_description
_atom_site_fract_x
_atom_site_fract_y
_atom_site_fract_z
_atom_type_partial_charge
C1    C     C_R   0.501668 0.738867 0.492539 0.878639
C2    C     C_R   0.706035 0.600043 0.045630 0.024342
C3    C     C_R   0.574001 0.541995 0.093519 0.057736
C4    C     C_R   0.408126 0.501373 0.676152 0.853830
C5    C     C_R   0.806407 0.616490 0.088492 -0.171022
C6    C     C_R   0.774254 0.579253 0.178778 -0.144524
C7    C     C_R   0.553828 0.492032 0.178535 -0.221057
C8    C     C_R   0.246658 0.898202 0.488418 -0.193721
C9    C     C_R   0.112882 0.966486 0.526868 -0.200734
C10   C     C_R   0.100410 0.079216 0.579195 0.148355
C11   C     C_R   0.226722 0.129598 0.581580 -0.151014
C12   C     C_R   0.402141 0.537533 0.919007 0.057583
C13   C     C_R   0.365727 0.067873 0.531789 0.032861
C14   C     C_R   0.371312 0.943523 0.499813 0.088411
C15   C     C_R   0.501547 0.870965 0.481840 -0.174132
C16   C     C_R   0.499339 0.260307 0.504678 0.869921
C17   C     C_R   0.631443 0.927523 0.468349 -0.199711
C18   C     C_R   0.633757 0.054547 0.477240 0.084481
C19   C     C_R   0.499579 0.126728 0.509898 -0.164899
C20   C     C_R   0.776716 0.673703 0.616809 -0.158256
C21   C     C_R   0.801496 0.766940 0.671658 -0.288329
C22   C     C_R   0.935181 0.770664 0.676287 -0.174432
C23   C     C_R   0.260851 0.498033 0.972767 0.040266
C24   C     C_R   0.047643 0.681388 0.626092 0.127503
C25   C     C_R   0.031340 0.587868 0.560226 0.124244
C26   C     C_R   0.887667 0.586498 0.558286 0.149455
C27   C     C_R   0.965806 0.418234 0.443746 -0.136265
C28   C     C_R   0.591752 0.500389 0.324099 0.855773
C29   C     C_R   0.108427 0.418285 0.443674 -0.124839
C30   C     C_R   0.350056 0.507453 0.778578 -0.077453
C31   C     C_R   0.646648 0.517860 0.224092 -0.083260
C32   C     C_R   0.163273 0.471983 0.929146 -0.149019
C33   C     C_R   0.207645 0.477004 0.832462 -0.204377
C34   C     C_R   0.501420 0.564857 0.961995 -0.009770
C35   C     C_R   0.444053 0.540074 0.822233 -0.229785
C36   C     C_3   0.082384 0.329167 0.149995 -0.347387
C37   C     C_3   0.833872 0.830039 0.925259 -0.377801
C38   C     C_R   0.466088 0.534344 0.055308 -0.003341
C39   C     C_R   0.322514 0.501013 0.108815 -0.318024
C40   C     C_R   0.221090 0.481591 0.068288 0.494872
C41   C     C_R   0.634114 0.622586 0.915151 -0.311098
C42   C     C_R   0.733196 0.643492 0.957250 0.509347
H1    H     H_    0.906626 0.662802 0.054218 0.188821
H2    H     H_    0.951038 0.842120 0.722780 0.161434
H3    H     H_    0.191863 0.351185 0.397507 0.145980
H4    H     H_    0.845872 0.602231 0.214220 0.192630
H5    H     H_    0.054423 0.443195 0.968946 0.188119
H6    H     H_    0.132979 0.452394 0.799642 0.165698
H7    H     H_    0.553793 0.560055 0.778377 0.159878
H8    H     H_    0.283909 0.494199 0.183621 0.164824
H9    H     H_    0.661569 0.658317 0.847213 0.172610
H10   H     H_    0.134880 0.322089 0.201191 0.158916
H11   H     H_    0.137258 0.261699 0.088125 0.162245
H12   H     H_    0.733361 0.872815 0.449779 0.183815
H13   H     H_    0.967964 0.302580 0.185237 0.195304
H14   H     H_    0.877728 0.091613 0.624838 0.179808
H15   H     H_    0.960562 0.225577 0.593612 0.189237
H16   H     H_    0.793674 0.161510 0.396194 0.196049
H17   H     H_    0.778609 0.156244 0.510405 0.206634
H18   H     H_    0.132105 0.668276 0.723020 0.200836
H19   H     H_    0.203775 0.777193 0.648180 0.174761
H20   H     H_    0.794143 0.859268 0.001390 0.167272
H21   H     H_    0.754562 0.863758 0.896006 0.170183
H22   H     H_    0.937704 0.875512 0.889421 0.192309
H23   H     H_    0.250937 0.811986 0.448276 0.182218
H24   H     H_    0.018431 0.929259 0.518540 0.159152
H25   H     H_    0.215065 0.217151 0.622261 0.160809
H26   H     H_    0.942879 0.351264 0.397453 0.135279
H27   H     H_    0.666770 0.673813 0.624370 0.216247
H28   H     H_    0.714283 0.833999 0.713970 0.158467
H29   H     H_    0.462953 0.435371 0.212542 0.145029
N1    N     N_R   0.856800 0.501200 0.500850 -0.112832
N2    N     N_R   0.142390 0.501280 0.500880 -0.109094
N3    N     N_3   0.961639 0.145120 0.628330 -0.471330
N4    N     N_3   0.774389 0.105421 0.452324 -0.474384
N5    N     N_3   0.168841 0.686164 0.652075 -0.363314
O1    O     O_R   0.385310 0.683220 0.500000 -0.610904
O2    O     O_3   0.861317 0.699811 0.908625 -0.618679
O3    O     O_R   0.614640 0.683250 0.500010 -0.642507
O4    O     O_R   0.319840 0.499980 0.632240 -0.597790
O5    O     O_R   0.549160 0.500000 0.632250 -0.635984
O6    O     O_R   0.385360 0.316750 0.499990 -0.618135
O7    O     O_R   0.614690 0.316780 0.500000 -0.623681
O8    O     O_R   0.450840 0.500000 0.367750 -0.613681
O9    O     O_R   0.680160 0.500020 0.367760 -0.606044
O10   O     O_3   0.080346 0.452126 0.123039 -0.626749
Zn1   Zn    Zn3+2 0.346880 0.499980 0.499990 0.941091
Zn2   Zn    Zn3+2 0.653120 0.500020 0.500010 0.926083

loop_
_geom_bond_atom_site_label_1
_geom_bond_atom_site_label_2
_ccdc_geom_bond_type
C18   N4    S    
C28   O8    A    
C1    O1    A    
C41   C42   A    
O8    Zn1   S    
C37   H20   S    
C12   C23   A    
C30   C35   A    
C4    O4    A    
O4    Zn1   S    
C3    C7    A    
C7    H29   S    
C38   C39   A    
C27   C29   A    
O6    Zn1   S    
C11   C13   A    
C26   N1    A    
C18   C19   A    
C40   O10   S    
C9    H24   S    
N2    Zn1   S    
C27   H26   S    
C37   H21   S    
C22   H2    S    
C4    O5    A    
C3    C38   A    
C8    C9    A    
C35   H7    S    
C1    C15   S    
C9    C10   A    
C36   H10   S    
O7    Zn2   S    
C5    H1    S    
C8    H23   S    
C13   C14   A    
C34   C41   A    
O3    Zn2   S    
N1    Zn2   S    
C11   H25   S    
H16   N4    S    
H19   N5    S    
C7    C31   A    
C13   C19   A    
H14   N3    S    
C24   C25   A    
C39   C40   A    
C24   N5    S    
C36   O10   S    
C25   C26   A    
H18   N5    S    
C16   O7    A    
C29   H3    S    
H15   N3    S    
C16   O6    A    
C17   C18   A    
C12   C35   A    
C36   H11   S    
C42   O2    S    
C1    O3    A    
C32   H5    S    
C22   C24   A    
C20   H27   S    
C2    C5    A    
C12   C34   A    
H17   N4    S    
C37   H22   S    
O9    Zn2   S    
C15   C17   A    
C8    C14   A    
C6    H4    S    
C30   C33   A    
C34   C38   A    
C28   C31   S    
C37   O2    S    
C21   H28   S    
C23   C32   A    
C2    C3    A    
C36   H13   S    
C32   C33   A    
C10   N3    S    
C5    C6    A    
C20   C26   A    
C2    C42   A    
C16   C19   S    
C6    C31   A    
C25   N2    A    
O5    Zn2   S    
C10   C11   A    
C39   H8    S    
C29   N2    A    
C20   C21   A    
O1    Zn1   S    
C28   O9    A    
C33   H6    S    
C14   C15   A    
C21   C22   A    
C17   H12   S    
C41   H9    S    
C4    C30   S    
C27   N1    A    
C23   C40   A    
