data_mof_unit_380.cif
_audit_creation_date              2012-12-11T14:54:41-0500
_audit_creation_method            fapswitch 2.2
_symmetry_space_group_name_H-M    P1
_symmetry_Int_Tables_number       1
_space_group_crystal_system       triclinic
_cell_length_a                    18.991956
_cell_length_b                    10.866409
_cell_length_c                    18.844867
_cell_angle_alpha                 90.2488
_cell_angle_beta                  90.098776
_cell_angle_gamma                 89.726547
_cell_volume                      3889.01079562

loop_
_atom_site_label
_atom_site_type_symbol
_atom_type_description
_atom_site_fract_x
_atom_site_fract_y
_atom_site_fract_z
_atom_type_partial_charge
C1    C     C_R   0.730125 0.376331 0.645784 0.547502
C2    C     C_R   0.291937 0.847974 0.459196 -0.156253
C3    C     C_R   0.937120 0.556342 0.480775 -0.151974
C4    C     C_2   0.626453 0.833190 0.073877 0.265117
C5    C     C_2   0.372272 0.870149 0.922502 0.280498
C6    C     C_2   0.126450 0.333199 0.073879 0.265128
C7    C     C_2   0.872269 0.370103 0.922511 0.280490
C8    C     C_R   0.192828 0.377254 0.537572 -0.141315
C9    C     C_R   0.791944 0.347984 0.459198 -0.156251
C10   C     C_R   0.697553 0.866918 0.464178 -0.145860
C11   C     C_R   0.290007 0.832230 0.532307 -0.142476
C12   C     C_R   0.197554 0.366912 0.464179 -0.145864
C13   C     C_R   0.790013 0.332244 0.532309 -0.142475
C14   C     C_R   0.760095 0.900018 0.430290 0.031609
C15   C     C_R   0.249444 0.912590 0.574689 0.026163
C16   C     C_R   0.260094 0.400020 0.430289 0.031609
C17   C     C_R   0.271752 0.373447 0.355845 0.542518
C18   C     C_R   0.749443 0.412593 0.574689 0.026163
C19   C     C_R   0.818375 0.938606 0.470467 -0.135292
C20   C     C_R   0.214344 0.012150 0.544236 -0.141551
C21   C     C_R   0.318373 0.438616 0.470465 -0.135295
C22   C     C_R   0.714334 0.512139 0.544233 -0.141554
C23   C     C_R   0.814654 0.943967 0.542991 -0.136559
C24   C     C_R   0.215388 0.026517 0.471774 -0.130396
C25   C     C_R   0.314653 0.443976 0.542990 -0.136561
C26   C     C_R   0.715377 0.526500 0.471771 -0.130399
C27   C     C_R   0.751068 0.919240 0.576880 0.030279
C28   C     C_R   0.230124 0.876331 0.645784 0.547504
C29   C     C_R   0.253261 0.943709 0.428668 0.027500
C30   C     C_R   0.251069 0.419240 0.576880 0.030279
C31   C     C_R   0.753259 0.443704 0.428667 0.027500
C32   C     C_R   0.498278 0.051273 0.961649 -0.111735
C33   C     C_R   0.476696 0.049841 0.030666 -0.135156
C34   C     C_R   0.998257 0.551273 0.961642 -0.111722
C35   C     C_R   0.976675 0.549841 0.030660 -0.135153
C36   C     C_R   0.457804 0.159328 0.064801 0.032257
C37   C     C_R   0.500605 0.161805 0.923701 0.035192
C38   C     C_R   0.957798 0.659329 0.064799 0.032254
C39   C     C_R   0.771752 0.873447 0.355845 0.542518
C40   C     C_R   0.000600 0.661806 0.923699 0.035176
C41   C     C_R   0.458547 0.270940 0.027287 -0.077621
C42   C     C_R   0.480879 0.272289 0.956683 -0.105019
C43   C     C_R   0.958555 0.770943 0.027290 -0.077609
C44   C     C_R   0.980888 0.772292 0.956687 -0.105010
C45   C     C_R   0.531125 0.155235 0.646553 0.550798
C46   C     C_R   0.435166 0.151136 0.360899 0.558453
C47   C     C_R   0.031125 0.655235 0.646553 0.550798
C48   C     C_R   0.935167 0.651136 0.360899 0.558455
C49   C     C_R   0.806012 0.989566 0.969891 0.207523
C50   C     C_3   0.526083 0.356929 0.448765 -0.258456
C51   C     C_R   0.182163 0.917421 0.043937 0.218855
C52   C     C_R   0.306007 0.489586 0.969895 0.207520
C53   C     C_R   0.682161 0.417438 0.043935 0.218857
C54   C     C_R   0.803015 0.988978 0.042454 -0.126190
C55   C     C_R   0.178147 0.911003 0.971030 -0.123511
C56   C     C_R   0.303009 0.488996 0.042458 -0.126186
C57   C     C_R   0.678148 0.411025 0.971028 -0.123518
C58   C     C_R   0.749698 0.926271 0.078211 0.009725
C59   C     C_R   0.239252 0.898817 0.929274 0.002267
C60   C     C_R   0.249695 0.426279 0.078214 0.009725
C61   C     C_3   0.548564 0.359361 0.526063 -0.260370
C62   C     C_R   0.739253 0.398817 0.929274 0.002263
C63   C     C_R   0.690920 0.881514 0.039853 -0.010949
C64   C     C_R   0.305479 0.884837 0.962145 -0.001024
C65   C     C_R   0.190917 0.381521 0.039855 -0.010949
C66   C     C_R   0.805476 0.384812 0.962150 -0.001030
C67   C     C_R   0.692051 0.887701 0.965852 -0.200868
C68   C     C_R   0.308940 0.889611 0.035855 -0.196661
C69   C     C_R   0.192049 0.387710 0.965854 -0.200868
C70   C     C_R   0.808933 0.389581 0.035860 -0.196673
C71   C     C_R   0.749269 0.940729 0.930184 0.028808
C72   C     C_3   0.026081 0.856936 0.448766 -0.258452
C73   C     C_R   0.248479 0.914780 0.076453 0.028726
C74   C     C_R   0.249266 0.440741 0.930187 0.028802
C75   C     C_R   0.748475 0.414775 0.076455 0.028727
C76   C     C_R   0.741509 0.967795 0.647825 0.542589
C77   C     C_R   0.259499 0.972997 0.354102 0.540778
C78   C     C_R   0.241509 0.467795 0.647825 0.542589
C79   C     C_R   0.759499 0.472996 0.354102 0.540778
C80   C     C_R   0.728086 0.375148 0.854206 0.590636
C81   C     C_R   0.269048 0.381366 0.148633 0.565198
C82   C     C_R   0.228086 0.875148 0.854206 0.590643
C83   C     C_3   0.048562 0.859368 0.526064 -0.260365
C84   C     C_R   0.769049 0.881364 0.148632 0.565200
C85   C     C_R   0.532324 0.156941 0.853647 0.563832
C86   C     C_R   0.437259 0.152916 0.138991 0.560443
C87   C     C_R   0.032324 0.656941 0.853647 0.563822
C88   C     C_R   0.937257 0.652916 0.138991 0.560453
C89   C     C_R   0.741019 0.973906 0.855706 0.568131
C90   C     C_R   0.258148 0.967494 0.146745 0.574646
C91   C     C_R   0.241019 0.473909 0.855707 0.568131
C92   C     C_R   0.758147 0.467493 0.146746 0.574637
C93   C     C_R   0.448497 0.159095 0.437325 0.013816
C94   C     C_R   0.692826 0.877262 0.537571 -0.141313
C95   C     C_R   0.489408 0.164462 0.581339 0.018700
C96   C     C_R   0.948498 0.659095 0.437325 0.013818
C97   C     C_R   0.989409 0.664462 0.581339 0.018701
C98   C     C_R   0.469657 0.269011 0.469800 0.009992
C99   C     C_R   0.490053 0.271543 0.540396 0.006809
C100  C     C_R   0.969656 0.769012 0.469801 0.009986
C101  C     C_R   0.990052 0.771544 0.540397 0.006807
C102  C     C_R   0.456953 0.059083 0.552424 -0.143901
C103  C     C_R   0.437115 0.056344 0.480776 -0.151976
C104  C     C_R   0.956956 0.559081 0.552423 -0.143901
Cl1   Cl    Cl    0.884263 0.051828 0.934158 -0.653108
Cl2   Cl    Cl    0.102680 0.928807 0.091973 -0.584642
Cl3   Cl    Cl    0.384256 0.551864 0.934165 -0.653096
Cl4   Cl    Cl    0.602677 0.428846 0.091967 -0.584632
Cr1   Cr    Cr6+3 0.771950 0.169480 0.750100 1.095325
Cr2   Cr    Cr6+3 0.383410 0.010620 0.249390 1.039151
Cr3   Cr    Cr6+3 0.116590 0.510620 0.750610 1.037162
Cr4   Cr    Cr6+3 0.883410 0.510620 0.249390 1.039149
Cr5   Cr    Cr6+3 0.228050 0.169480 0.249900 1.090307
Cr6   Cr    Cr6+3 0.271950 0.669480 0.750100 1.095319
Cr7   Cr    Cr6+3 0.728050 0.669480 0.249900 1.090308
Cr8   Cr    Cr6+3 0.614930 0.323340 0.749170 1.035792
Cr9   Cr    Cr6+3 0.385070 0.323340 0.250830 1.051060
Cr10  Cr    Cr6+3 0.114930 0.823340 0.749170 1.035797
Cr11  Cr    Cr6+3 0.885070 0.823340 0.250830 1.051058
Cr12  Cr    Cr6+3 0.616590 0.010620 0.750610 1.037160
H1    H     H_    0.452802 0.975292 0.583024 0.141695
H2    H     H_    0.360054 0.883912 0.061132 0.126046
H3    H     H_    0.146631 0.355798 0.936209 0.128393
H4    H     H_    0.860044 0.383859 0.061140 0.126045
H5    H     H_    0.004213 0.946297 0.430290 0.137152
H6    H     H_    0.101430 0.817784 0.535002 0.160749
H7    H     H_    0.504218 0.446291 0.430289 0.137154
H8    H     H_    0.601431 0.317772 0.535001 0.160748
H9    H     H_    0.566089 0.314506 0.413099 0.166523
H10   H     H_    0.539833 0.450163 0.552050 0.140083
H11   H     H_    0.066089 0.814516 0.413100 0.166524
H12   H     H_    0.417655 0.971376 0.458246 0.136828
H13   H     H_    0.039827 0.950170 0.552052 0.140082
H14   H     H_    0.642915 0.858356 0.562922 0.134138
H15   H     H_    0.322881 0.785604 0.426695 0.125012
H16   H     H_    0.142917 0.358340 0.562924 0.134134
H17   H     H_    0.822894 0.285624 0.426699 0.125012
H18   H     H_    0.652722 0.834008 0.434115 0.128760
H19   H     H_    0.316958 0.753589 0.555010 0.138805
H20   H     H_    0.152722 0.333995 0.434116 0.128758
H21   H     H_    0.816972 0.253614 0.555014 0.138802
H22   H     H_    0.868109 0.962347 0.446247 0.138220
H23   H     H_    0.952807 0.475289 0.583023 0.141693
H24   H     H_    0.182869 0.074918 0.576015 0.130058
H25   H     H_    0.368106 0.462364 0.446245 0.138219
H26   H     H_    0.682853 0.574897 0.576010 0.130061
H27   H     H_    0.860490 0.975639 0.572020 0.135224
H28   H     H_    0.186843 0.103800 0.449630 0.139676
H29   H     H_    0.360489 0.475653 0.572018 0.135223
H30   H     H_    0.686824 0.603771 0.449626 0.139680
H31   H     H_    0.515515 0.964445 0.939045 0.142011
H32   H     H_    0.476749 0.961950 0.057510 0.146090
H33   H     H_    0.015484 0.464443 0.939034 0.142037
H34   H     H_    0.917662 0.471372 0.458245 0.136826
H35   H     H_    0.976717 0.461949 0.057501 0.146058
H36   H     H_    0.443658 0.356534 0.052865 0.182416
H37   H     H_    0.484595 0.358592 0.928640 0.188763
H38   H     H_    0.943678 0.856538 0.052871 0.182429
H39   H     H_    0.984619 0.858595 0.928648 0.188767
H40   H     H_    0.592260 0.771265 0.044580 0.114891
H41   H     H_    0.416310 0.822796 0.947181 0.130065
H42   H     H_    0.092254 0.271284 0.044579 0.114874
H43   H     H_    0.916302 0.322743 0.947194 0.130069
H44   H     H_    0.847230 0.028688 0.070732 0.179520
H45   H     H_    0.126172 0.912740 0.947210 0.172175
H46   H     H_    0.347222 0.528710 0.070738 0.179528
H47   H     H_    0.626176 0.412782 0.947206 0.172190
H48   H     H_    0.646632 0.855792 0.936207 0.128388
O1    O     O_R   0.787510 0.042610 0.670410 -0.525092
O2    O     O_R   0.454250 0.051070 0.169440 -0.479598
O3    O     O_R   0.045750 0.551070 0.830560 -0.501517
O4    O     O_R   0.954250 0.551070 0.169440 -0.479588
O5    O     O_R   0.681210 0.959150 0.825320 -0.521222
O6    O     O_R   0.318790 0.959150 0.174680 -0.537827
O7    O     O_R   0.181210 0.459150 0.825320 -0.521218
O8    O     O_R   0.818790 0.459150 0.174680 -0.537831
O9    O     O_3   0.667820 0.167810 0.749960 -0.271163
O10   O     O_3   0.332180 0.167810 0.250040 -0.315680
O11   O     O_3   0.167820 0.667810 0.749960 -0.271164
O12   O     O_R   0.212490 0.042610 0.329590 -0.514548
O13   O     O_3   0.832180 0.667810 0.250040 -0.315680
O14   O     O_R   0.765670 0.292090 0.675090 -0.500178
O15   O     O_R   0.234330 0.292090 0.324910 -0.500661
O16   O     O_R   0.265670 0.792090 0.675090 -0.500179
O17   O     O_R   0.734330 0.792090 0.324910 -0.500660
O18   O     O_R   0.670220 0.409020 0.668560 -0.526703
O19   O     O_R   0.329780 0.409020 0.331440 -0.533017
O20   O     O_R   0.170220 0.909020 0.668560 -0.526700
O21   O     O_R   0.829780 0.909020 0.331440 -0.533017
O22   O     O_R   0.556580 0.251590 0.674980 -0.497524
O23   O     O_R   0.287510 0.542610 0.670410 -0.525096
O24   O     O_R   0.443420 0.251590 0.325020 -0.486475
O25   O     O_R   0.056580 0.751590 0.674980 -0.497523
O26   O     O_R   0.943420 0.751590 0.325020 -0.486474
O27   O     O_R   0.545890 0.049670 0.670030 -0.516533
O28   O     O_R   0.454110 0.049670 0.329970 -0.495317
O29   O     O_R   0.045890 0.549670 0.670030 -0.516534
O30   O     O_R   0.954110 0.549670 0.329970 -0.495317
O31   O     O_R   0.681340 0.957860 0.676500 -0.507933
O32   O     O_R   0.318660 0.957860 0.323500 -0.523586
O33   O     O_R   0.181340 0.457860 0.676500 -0.507931
O34   O     O_R   0.712490 0.542610 0.329590 -0.514551
O35   O     O_R   0.818660 0.457860 0.323500 -0.523587
O36   O     O_R   0.787380 0.044010 0.830940 -0.438798
O37   O     O_R   0.212620 0.044010 0.169060 -0.441716
O38   O     O_R   0.287380 0.544010 0.830940 -0.438803
O39   O     O_R   0.712620 0.544010 0.169060 -0.441714
O40   O     O_R   0.765540 0.293390 0.823910 -0.438913
O41   O     O_R   0.234460 0.293390 0.176090 -0.448423
O42   O     O_R   0.265540 0.793390 0.823910 -0.438920
O43   O     O_R   0.734460 0.793390 0.176090 -0.448422
O44   O     O_R   0.670090 0.410410 0.829090 -0.534842
O45   O     O_R   0.556450 0.252890 0.823790 -0.508764
O46   O     O_R   0.329910 0.410410 0.170910 -0.543872
O47   O     O_R   0.170090 0.910410 0.829090 -0.534837
O48   O     O_R   0.829910 0.910410 0.170910 -0.543874
O49   O     O_2   0.608613 0.867256 0.133022 -0.462432
O50   O     O_2   0.380215 0.915416 0.863886 -0.489498
O51   O     O_2   0.108613 0.367255 0.133026 -0.462425
O52   O     O_2   0.880219 0.415364 0.863895 -0.489495
O53   O     O_R   0.443550 0.252890 0.176210 -0.458739
O54   O     O_R   0.056450 0.752890 0.823790 -0.508763
O55   O     O_R   0.943550 0.752890 0.176210 -0.458743
O56   O     O_R   0.545750 0.051070 0.830560 -0.501513

loop_
_geom_bond_atom_site_label_1
_geom_bond_atom_site_label_2
_ccdc_geom_bond_type
Cr1   O14   S    
C67   H48   S    
C81   O41   A    
C45   O27   A    
C16   C21   A    
C88   O4    A    
C55   C59   A    
C8    H16   S    
C41   C42   A    
C20   H24   S    
Cr9   O53   S    
C59   C82   S    
C89   O5    A    
C43   C44   A    
C43   H38   S    
C33   C36   A    
C84   O43   A    
C57   C62   A    
C61   C99   S    
C1    O18   A    
C92   O8    A    
C46   C93   S    
C4    C63   S    
C59   C64   A    
C21   C25   A    
C13   C18   A    
C2    C29   A    
Cr3   O7    S    
C64   C68   A    
C40   C87   S    
C37   C85   S    
Cr9   O24   S    
C35   H35   S    
C73   C90   S    
Cr7   O39   S    
C28   O20   A    
C54   C58   A    
C85   O45   A    
Cr7   O17   S    
C95   C99   A    
Cr6   O16   S    
C67   C71   A    
Cr10  O54   S    
C69   H3    S    
C50   C61   S    
C49   C54   A    
Cr7   O34   S    
C58   C63   A    
Cr12  O31   S    
C104  H23   S    
C25   H29   S    
C34   C35   A    
Cr11  O13   S    
C37   C42   A    
Cr10  O25   S    
C9    C13   A    
C24   C29   A    
C11   H19   S    
C51   C73   A    
C14   C39   S    
C52   C56   A    
C9    H17   S    
C6    C65   S    
C6    H42   S    
C52   Cl3   S    
C16   C17   S    
Cr5   O37   S    
C78   O33   A    
C3    C96   A    
C86   O53   A    
C23   C27   A    
C102  H1    S    
C83   C101  S    
C103  H12   S    
C51   C55   A    
Cr1   O9    S    
C95   C102  A    
C77   O32   A    
C80   O44   A    
C41   H36   S    
C48   O26   A    
Cr10  O11   S    
Cr5   O10   S    
Cr11  O48   S    
Cr12  O56   S    
C86   O2    A    
Cr8   O9    S    
Cr3   O11   S    
Cr3   O33   S    
C36   C41   A    
C53   C75   A    
C11   C15   A    
Cr4   O4    S    
C3    C104  A    
C12   C16   A    
C2    C11   A    
Cr4   O30   S    
Cr7   O13   S    
Cr1   O1    S    
C6    O51   D    
Cr2   O6    S    
C15   C20   A    
C63   C67   A    
C50   C98   S    
C77   O12   A    
C62   C66   A    
Cr2   O32   S    
C102  C103  A    
Cr12  O27   S    
C87   O54   A    
C22   H26   S    
C26   H30   S    
C35   C38   A    
Cr9   O46   S    
Cr9   O19   S    
C68   H2    S    
Cr10  O20   S    
C49   Cl1   S    
C36   C86   S    
C68   C73   A    
C7    H43   S    
C76   O31   A    
C3    H34   S    
C56   C60   A    
C5    C64   S    
C48   O30   A    
Cr5   O15   S    
C5    H41   S    
C74   C91   S    
Cr1   O40   S    
C19   C23   A    
Cr12  O9    S    
C50   H9    S    
C58   C84   S    
C90   O37   A    
C60   C81   S    
C17   O15   A    
C5    O50   D    
C71   C89   S    
C40   C44   A    
C8    C12   A    
C79   O34   A    
C87   O3    A    
Cr5   O12   S    
C12   H20   S    
C1    C18   S    
C88   O55   A    
C91   O7    A    
C69   C74   A    
C32   C37   A    
C46   O28   A    
Cr10  O47   S    
C75   C92   S    
C7    O52   D    
Cr2   O2    S    
C80   O40   A    
C60   C65   A    
C4    O49   D    
C19   H22   S    
C79   O35   A    
C70   H4    S    
C10   C14   A    
C34   C40   A    
C42   H37   S    
C55   H45   S    
C83   H6    S    
C56   H46   S    
C27   C76   S    
C45   C95   S    
C72   C83   S    
C91   O38   A    
Cr9   O10   S    
C72   H11   S    
C72   C100  S    
C34   H33   S    
C62   C80   S    
C25   C30   A    
Cr11  O55   S    
Cr8   O22   S    
C53   C57   A    
Cr6   O23   S    
C48   C96   S    
C13   H21   S    
Cr4   O8    S    
C81   O46   A    
C18   C22   A    
C14   C19   A    
C47   O25   A    
Cr1   O36   S    
C78   O23   A    
Cr11  O21   S    
C46   O24   A    
Cr8   O45   S    
C33   H32   S    
C1    O14   A    
Cr2   O10   S    
C31   C79   S    
Cr4   O13   S    
C57   H47   S    
C61   H10   S    
C90   O6    A    
C52   C74   A    
C2    H15   S    
C47   C97   S    
Cr7   O43   S    
C72   H5    S    
Cr11  O26   S    
C8    C30   A    
C32   C33   A    
Cr6   O42   S    
Cr6   O11   S    
C28   O16   A    
Cr5   O41   S    
C38   C43   A    
Cr8   O44   S    
C92   O39   A    
C23   H27   S    
Cr3   O29   S    
C7    C66   S    
Cr2   O28   S    
C53   Cl4   S    
C15   C28   S    
C4    H40   S    
C32   H31   S    
Cr8   O18   S    
C45   O22   A    
C17   O19   A    
C51   Cl2   S    
C65   C69   A    
C96   C100  A    
C39   O17   A    
C100  C101  A    
C94   H14   S    
C61   H8    S    
Cr3   O3    S    
C76   O1    A    
C44   H39   S    
C85   O56   A    
C97   C101  A    
C83   H13   S    
C97   C104  A    
C9    C31   A    
C22   C26   A    
C82   O47   A    
C30   C78   S    
Cr6   O38   S    
Cr12  O5    S    
C26   C31   A    
C89   O36   A    
C29   C77   S    
C66   C70   A    
C98   C99   A    
C49   C71   A    
C38   C88   S    
C70   C75   A    
C39   O21   A    
C10   C94   A    
C47   O29   A    
C27   C94   A    
C50   H7    S    
C10   H18   S    
Cr4   O35   S    
C54   H44   S    
C93   C98   A    
C20   C24   A    
C24   H28   S    
C84   O48   A    
C21   H25   S    
C93   C103  A    
C82   O42   A    
