data_mof_unit_308.cif
_audit_creation_date              2013-03-05T15:51:50-0500
_audit_creation_method            fapswitch 2.2
_symmetry_space_group_name_H-M    P1
_symmetry_Int_Tables_number       1
_space_group_crystal_system       triclinic
_cell_length_a                    11.094186
_cell_length_b                    10.993768
_cell_length_c                    18.777768
_cell_angle_alpha                 90.160575
_cell_angle_beta                  89.6685
_cell_angle_gamma                 60.488409
_cell_volume                      1993.04270805

loop_
_atom_site_label
_atom_site_type_symbol
_atom_site_description
_atom_site_fract_x
_atom_site_fract_y
_atom_site_fract_z
_atom_type_partial_charge
O1    O     O_R   0.507380 0.255700 0.581440 -0.531618
O2    O     O_R   0.280320 0.527350 0.578930 -0.451643
C1    C     C_R   0.287292 0.624505 0.615765 0.549634
O3    O     O_R   0.260510 0.739590 0.584590 -0.523479
O4    O     O_R   0.532300 0.695080 0.573820 -0.533099
C2    C     C_R   0.652407 0.619831 0.601889 0.563186
O5    O     O_R   0.744840 0.503500 0.576370 -0.461003
O6    O     O_R   0.699120 0.276560 0.571960 -0.504865
C3    C     C_R   0.629760 0.224974 0.600981 0.530451
O7    O     O_R   0.498940 0.256500 0.419860 -0.521728
O8    O     O_R   0.272500 0.528080 0.429150 -0.442646
C4    C     C_R   0.225831 0.647235 0.400388 0.595204
O9    O     O_R   0.252060 0.740380 0.423010 -0.529813
O10   O     O_R   0.524480 0.695810 0.424040 -0.510992
C5    C     C_R   0.638032 0.618851 0.390250 0.561066
O11   O     O_R   0.736390 0.504290 0.414790 -0.485649
O12   O     O_R   0.691300 0.277290 0.422170 -0.512554
C6    C     C_R   0.616898 0.229563 0.394933 0.528463
Cr1   Cr    Cr6+3 0.392960 0.397920 0.502240 1.094548
Cr2   Cr    Cr6+3 0.398340 0.708480 0.501250 1.017171
Cr3   Cr    Cr6+3 0.708670 0.393570 0.496460 1.061980
O13   O     O_3   0.499990 0.499990 0.499980 -0.304344
C7    C     C_3   0.548640 0.769971 0.790967 -0.248468
H1    H     H_    0.509626 0.877903 0.809849 0.144720
H2    H     H_    0.478836 0.735395 0.814997 0.148902
C8    C     C_3   0.539717 0.768518 0.709557 -0.267815
H3    H     H_    0.449476 0.759133 0.694900 0.146567
H4    H     H_    0.525035 0.868485 0.687288 0.117962
H5    H     H_    0.782969 0.803771 0.778730 0.082427
H6    H     H_    0.772230 0.768521 0.659879 0.134783
C9    C     C_3   0.803703 0.695511 0.769571 -0.195821
C10   C     C_3   0.729170 0.519083 0.798249 -0.226341
C11   C     C_3   0.699568 0.668624 0.814074 0.019409
H7    H     H_    0.839619 0.443751 0.808947 0.207981
H8    H     H_    0.665070 0.491205 0.832965 0.186346
C12   C     C_3   0.671629 0.642934 0.677785 0.050784
C13   C     C_3   0.793230 0.672161 0.689149 0.031180
C14   C     C_3   0.698567 0.508590 0.719669 -0.206074
H9    H     H_    0.606293 0.493954 0.715796 0.120842
H10   H     H_    0.787954 0.413531 0.696840 0.192002
H11   H     H_    0.911149 0.625739 0.787989 0.168808
C15   C     C_R   0.709882 0.092371 0.814324 0.040883
C16   C     C_R   0.790883 0.140304 0.780827 0.085340
C17   C     C_R   0.775883 0.169690 0.707926 -0.020048
C18   C     C_R   0.601848 0.099344 0.701013 -0.189596
C19   C     C_R   0.611456 0.078172 0.773633 -0.154907
C20   C     C_3   0.943664 0.064337 0.775666 0.013821
C21   C     C_3   0.929325 0.096286 0.696956 -0.248067
C22   C     C_R   0.680607 0.150104 0.667547 0.004384
H12   H     H_    0.523058 0.088600 0.672429 0.139880
H13   H     H_    0.540145 0.051212 0.798090 0.147126
H14   H     H_    0.981762 0.953490 0.787894 0.129468
H15   H     H_    0.966618 0.169073 0.680380 0.187661
H16   H     H_    0.967311 0.001345 0.662822 0.137808
C23   C     C_R   0.191431 0.664589 0.838417 0.057902
C24   C     C_R   0.190453 0.557072 0.798987 0.013758
C25   C     C_R   0.224828 0.541575 0.726922 0.032040
C26   C     C_R   0.231142 0.756244 0.729301 -0.193299
C27   C     C_R   0.219693 0.759842 0.802974 -0.170217
C28   C     C_3   0.277520 0.403496 0.810918 0.085209
C29   C     C_3   0.319407 0.388587 0.732728 -0.230525
C30   C     C_R   0.244504 0.641115 0.690549 0.026058
H17   H     H_    0.232118 0.843342 0.703253 0.151484
H18   H     H_    0.217879 0.846793 0.831071 0.185154
H19   H     H_    0.214488 0.353484 0.825001 0.154525
H20   H     H_    0.427695 0.363445 0.722634 0.165427
H21   H     H_    0.283219 0.327147 0.701267 0.161909
C31   C     C_R   0.646282 0.663689 0.164493 0.026096
C32   C     C_R   0.724776 0.534719 0.198007 -0.009503
C33   C     C_R   0.718987 0.524416 0.271412 -0.029171
C34   C     C_R   0.551455 0.767873 0.280612 -0.151853
C35   C     C_R   0.552114 0.777913 0.206164 -0.155556
C36   C     C_3   0.879553 0.447828 0.198195 -0.244093
C37   C     C_3   0.871034 0.444862 0.277113 -0.207917
C38   C     C_R   0.638506 0.640721 0.313690 0.022810
H22   H     H_    0.491491 0.860401 0.312482 0.115398
H23   H     H_    0.491467 0.878025 0.181760 0.126668
H24   H     H_    0.932957 0.505274 0.181756 0.176840
H25   H     H_    0.918746 0.344565 0.172269 0.190190
H26   H     H_    0.918287 0.338822 0.299849 0.187036
H27   H     H_    0.901696 0.515380 0.302707 0.232094
C39   C     C_R   0.642517 0.161793 0.174497 0.032237
C40   C     C_R   0.572399 0.111997 0.216560 0.028313
C41   C     C_R   0.576945 0.116922 0.290210 -0.004026
C42   C     C_R   0.726096 0.216970 0.280394 -0.095535
C43   C     C_R   0.715693 0.218950 0.206621 -0.081189
C44   C     C_3   0.419326 0.170580 0.216372 -0.248833
C45   C     C_3   0.425215 0.172879 0.295973 -0.212201
C46   C     C_R   0.651893 0.172371 0.323241 0.021086
H28   H     H_    0.784652 0.258428 0.304698 0.139417
H29   H     H_    0.770136 0.257450 0.174437 0.164632
H30   H     H_    0.384417 0.099113 0.195713 0.145918
H31   H     H_    0.364320 0.276438 0.192500 0.150992
H32   H     H_    0.375338 0.280779 0.316623 0.222664
H33   H     H_    0.396961 0.100636 0.322960 0.157254
C47   C     C_R   0.168178 0.660889 0.178467 -0.005223
C48   C     C_R   0.220004 0.738776 0.212897 0.004722
C49   C     C_R   0.232753 0.733212 0.285112 -0.048889
C50   C     C_R   0.161787 0.558444 0.292499 0.163374
C51   C     C_R   0.157782 0.557428 0.217582 -0.166425
C52   C     C_3   0.183074 0.891246 0.214485 0.114139
C53   C     C_3   0.197733 0.881494 0.294264 -0.213048
C54   C     C_R   0.191090 0.655685 0.326400 0.025086
H34   H     H_    0.133081 0.485987 0.190692 0.148126
H35   H     H_    0.259381 0.912532 0.186747 0.105163
H36   H     H_    0.283959 0.893643 0.314458 0.117011
H37   H     H_    0.099518 0.943952 0.324767 0.178256
O14   O     O_R   0.089400 0.825690 0.930570 -0.521032
O15   O     O_R   0.818460 0.054440 0.929850 -0.463932
C55   C     C_R   0.724246 0.049934 0.888901 0.551561
O16   O     O_R   0.606060 0.077150 0.915510 -0.456603
O17   O     O_R   0.646550 0.806680 0.917570 -0.528657
C56   C     C_R   0.721990 0.685612 0.889731 0.535491
O18   O     O_R   0.837170 0.593410 0.915250 -0.504768
O19   O     O_R   0.065200 0.635530 0.931570 -0.493141
C57   C     C_R   0.119948 0.705517 0.906797 0.545969
O20   O     O_R   0.068260 0.828890 0.091840 -0.439337
O21   O     O_R   0.798870 0.057410 0.079340 -0.430837
C58   C     C_R   0.673218 0.109187 0.102751 0.577603
O22   O     O_R   0.584930 0.080350 0.076780 -0.508936
O23   O     O_R   0.626960 0.809650 0.067060 -0.504511
C59   C     C_R   0.694880 0.688935 0.096566 0.553489
O24   O     O_R   0.816040 0.596610 0.076510 -0.517749
O25   O     O_R   0.045610 0.638500 0.081060 -0.516105
C60   C     C_R   0.096241 0.707928 0.111427 0.578780
Cr4   Cr    Cr6+3 0.937650 0.938540 0.007610 1.135006
Cr5   Cr    Cr6+3 0.625330 0.937370 0.994520 1.060281
Cr6   Cr    Cr6+3 0.937940 0.625230 0.001190 1.062050
O26   O     O_3   0.833640 0.833710 0.001100 -0.308845
Br1   Br    Br    0.969962 0.523047 0.652083 -0.526028
Br2   Br    Br    0.027645 0.154640 0.828779 -0.559760
N1    N     N_R   0.389640 0.371327 0.861134 0.086580
O27   O     O_R   0.485162 0.403848 0.846748 -0.379241
O28   O     O_R   0.375862 0.339967 0.926291 -0.303261
N2    N     N_R   0.127550 0.468444 0.333041 0.041185
O29   O     O_R   0.058329 0.512110 0.392674 -0.317576
O30   O     O_R   0.143500 0.353108 0.304999 -0.430946
N3    N     N_R   0.040536 0.987589 0.196124 0.089080
O31   O     O_R   0.014287 0.085803 0.150308 -0.375521
O32   O     O_R   0.943330 0.961366 0.216496 -0.361984

loop_
_geom_bond_atom_site_label_1
_geom_bond_atom_site_label_2
_geom_bond_distance
_ccdc_geom_bond_type
C17   C22   1.403965 A    
C26   C30   1.400794 A    
C50   C54   1.412355 A    
C23   C24   1.397611 A    
C52   C53   1.506218 S    
C23   C27   1.401016 A    
C36   C37   1.485833 S    
C5    C38   1.458660 S    
C44   C45   1.497231 S    
Cr6   O26   1.994820 S    
C28   N1    1.464068 S    
C48   C49   1.362638 A    
O22   Cr5   2.083741 S    
C39   C43   1.387052 A    
N2    O29   1.303049 A    
O4    Cr2   1.973891 S    
C42   C43   1.390096 A    
C24   C25   1.390818 A    
C52   N3    1.448993 S    
C21   H16   1.112489 S    
O8    Cr1   1.966081 S    
C8    H3    1.092476 S    
O11   Cr3   2.074100 S    
O4    C2    1.289293 A    
C12   C13   1.548794 S    
O23   Cr5   1.952769 S    
C43   H29   1.076225 S    
C34   H22   1.077377 S    
C23   C57   1.453797 S    
C49   C54   1.388822 A    
C44   H31   1.110909 S    
C51   H34   1.076268 S    
C13   Br1   1.956362 S    
C15   C19   1.406230 A    
C7    C8    1.533009 S    
C55   O16   1.289753 A    
O17   Cr5   1.964386 S    
O21   C58   1.292393 A    
C29   H20   1.107032 S    
O1    C3    1.283247 A    
C20   C21   1.511191 S    
N1    O27   1.301668 A    
C7    C11   1.551292 S    
C33   C37   1.473419 S    
C36   H24   1.101258 S    
C9    C11   1.564306 S    
C32   C36   1.498373 S    
C10   C14   1.532746 S    
O20   Cr4   2.090628 S    
O25   Cr6   1.971971 S    
C45   H33   1.109744 S    
C37   H26   1.104276 S    
C44   H30   1.103455 S    
C39   C58   1.435888 S    
O17   C56   1.280181 A    
O6    Cr3   1.954149 S    
C52   H35   1.110628 S    
C21   H15   1.111071 S    
C45   H32   1.100887 S    
O1    Cr1   2.085012 S    
C10   H8    1.111345 S    
O10   Cr2   1.965489 S    
C25   C30   1.396238 A    
Cr1   O13   1.995826 S    
C3    C22   1.454172 S    
C4    C54   1.434943 S    
C31   C59   1.461534 S    
C42   C46   1.399157 A    
C31   C32   1.399872 A    
Cr4   O26   1.996412 S    
C26   C27   1.387162 A    
C49   C53   1.487153 S    
C19   H13   1.073418 S    
O12   Cr3   1.962948 S    
O19   Cr6   1.962692 S    
C9    C13   1.545682 S    
H6    C13   1.113645 S    
C20   Br2   1.940323 S    
C28   C29   1.521267 S    
C10   H7    1.109821 S    
C16   C17   1.399343 A    
Cr5   O26   2.015995 S    
C35   H23   1.072784 S    
O18   Cr6   2.092712 S    
C29   H21   1.110909 S    
C40   C41   1.386059 A    
C18   C22   1.394914 A    
O7    Cr1   2.087365 S    
C31   C35   1.404712 A    
C47   C48   1.402861 A    
O12   C6    1.283858 A    
O6    C3    1.279666 A    
C50   N2    1.440132 S    
C53   H37   1.113686 S    
C58   O22   1.268191 A    
O23   C59   1.288312 A    
C2    O5    1.271075 A    
N3    O32   1.301763 A    
C8    C12   1.548714 S    
Cr2   O13   1.994695 S    
C28   H19   1.112969 S    
O16   Cr5   2.073914 S    
C41   C46   1.396743 A    
C37   H27   1.098785 S    
C1    O3    1.291339 A    
O19   C57   1.279249 A    
C56   O18   1.274233 A    
C1    C30   1.461550 S    
C26   H17   1.081215 S    
N2    O30   1.300193 A    
C9    H11   1.111019 S    
O9    Cr2   2.094014 S    
O2    Cr1   1.968752 S    
C6    C46   1.451577 S    
C11   C56   1.470847 S    
C41   C45   1.483586 S    
C36   H25   1.105902 S    
C40   C44   1.490400 S    
C42   H28   1.063947 S    
C25   C29   1.485047 S    
C20   H14   1.100755 S    
C8    H4    1.111855 S    
C50   C51   1.407919 A    
C10   C11   1.537254 S    
O14   C57   1.270198 A    
C12   C14   1.569587 S    
O2    C1    1.305035 A    
C15   C55   1.461891 S    
C34   C35   1.402878 A    
H5    C9    1.108020 S    
C17   C21   1.494365 S    
O5    Cr3   2.085134 S    
O15   C55   1.321470 A    
C14   H10   1.109447 S    
O24   Cr6   2.080357 S    
C14   H9    1.114559 S    
O20   C60   1.263903 A    
C18   H12   1.083004 S    
O7    C6    1.276595 A    
C47   C51   1.406932 A    
C27   H18   1.081963 S    
C2    C12   1.481859 S    
C47   C60   1.448368 S    
C53   H36   1.098427 S    
C7    H2    1.111201 S    
C32   C33   1.387044 A    
N3    O31   1.299654 A    
C7    H1    1.100411 S    
O3    Cr2   2.087644 S    
C18   C19   1.379884 A    
O15   Cr4   1.969000 S    
C24   C28   1.493901 S    
C4    O9    1.267392 A    
N1    O28   1.300514 A    
C39   C40   1.394126 A    
C15   C16   1.393836 A    
C33   C38   1.386981 A    
O10   C5    1.281838 A    
O21   Cr4   1.968859 S    
O14   Cr4   2.090521 S    
C59   O24   1.275427 A    
Cr3   O13   2.015513 S    
C16   C20   1.477444 S    
C48   C52   1.517044 S    
C5    O11   1.282343 A    
O8    C4    1.270734 A    
O25   C60   1.283322 A    
C34   C38   1.397976 A    
