data_mof_unit_504.cif
_audit_creation_date              2012-12-10T17:50:38-0500
_audit_creation_method            fapswitch 2.2
_symmetry_space_group_name_H-M    P1
_symmetry_Int_Tables_number       1
_space_group_crystal_system       triclinic
_cell_length_a                    15.704741
_cell_length_b                    10.640697
_cell_length_c                    9.930603
_cell_angle_alpha                 89.9294
_cell_angle_beta                  89.90777
_cell_angle_gamma                 91.772481
_cell_volume                      1658.6994838

loop_
_atom_site_label
_atom_site_type_symbol
_atom_type_description
_atom_site_fract_x
_atom_site_fract_y
_atom_site_fract_z
_atom_type_partial_charge
C1    C     C_R   0.501769 0.260912 0.500084 0.868014
C2    C     C_R   0.717455 0.072500 0.657290 -0.122846
C3    C     C_R   0.716942 0.941796 0.655952 -0.133151
C4    C     C_R   0.338045 0.499344 0.500061 0.880707
C5    C     C_R   0.646935 0.874131 0.604259 -0.176226
C6    C     C_R   0.575321 0.936947 0.553723 0.063582
C7    C     C_R   0.576226 0.068552 0.554729 0.095894
C8    C     C_R   0.505873 0.128965 0.499871 -0.127808
C9    C     C_R   0.437390 0.063970 0.441831 -0.232366
C10   C     C_R   0.434700 0.934720 0.441140 0.141128
C11   C     C_R   0.503426 0.872078 0.499016 -0.134350
C12   C     C_3   0.082692 0.495273 0.500088 0.147093
C13   C     C_R   0.385263 0.339595 0.140263 -0.187780
C14   C     C_R   0.326125 0.264638 0.070464 0.164752
C15   C     C_R   0.327152 0.263120 0.930983 -0.209458
C16   C     C_R   0.500606 0.739308 0.499770 0.866935
C17   C     C_R   0.386006 0.338431 0.860688 -0.185937
C18   C     C_R   0.443917 0.420296 0.927995 0.167716
C19   C     C_R   0.443816 0.420490 0.072450 0.137372
C20   C     C_R   0.553608 0.576353 0.071198 -0.114590
C21   C     C_R   0.553571 0.576354 0.928201 -0.101924
C22   C     C_R   0.661978 0.500183 0.499924 0.875866
C23   C     C_3   0.974326 0.613222 0.480443 -0.145607
C24   C     C_3   0.970571 0.451859 0.619293 -0.197071
C25   C     C_3   0.025353 0.377986 0.519409 0.214778
C26   C     C_1   0.249048 0.497935 0.500165 -0.151387
C27   C     C_1   0.750964 0.498349 0.499781 -0.187654
C28   C     C_3   0.029489 0.569844 0.599723 -0.189168
C29   C     C_3   0.356792 0.867744 0.381317 -0.385666
C30   C     C_3   0.364822 0.856706 0.228508 -0.751964
C31   C     C_3   0.917236 0.495255 0.499881 0.151332
C32   C     C_3   0.029179 0.538540 0.380817 -0.180254
C33   C     C_3   0.970246 0.420510 0.400128 -0.175549
C34   C     C_1   0.173662 0.496599 0.500124 -0.011737
C35   C     C_1   0.826312 0.496624 0.499792 -0.052419
C36   C     C_R   0.648017 0.135879 0.606724 -0.162940
H1    H     H_    0.771223 0.892625 0.694084 0.142370
H2    H     H_    0.055259 0.574029 0.283499 0.158924
H3    H     H_    0.951215 0.709665 0.464509 0.154037
H4    H     H_    0.055793 0.630929 0.681138 0.158351
H5    H     H_    0.384833 0.114728 0.399433 0.170809
H6    H     H_    0.651726 0.237460 0.607230 0.146415
H7    H     H_    0.772113 0.124992 0.696467 0.148390
H8    H     H_    0.419280 0.797938 0.200876 0.267533
H9    H     H_    0.305636 0.812308 0.186859 0.250838
H10   H     H_    0.374637 0.951069 0.182211 0.266570
H11   H     H_    0.345781 0.772854 0.425599 0.195550
H12   H     H_    0.650255 0.772825 0.602875 0.139537
H13   H     H_    0.298828 0.920821 0.405547 0.226370
H14   H     H_    0.597385 0.638895 0.124569 0.148834
H15   H     H_    0.382993 0.332139 0.246974 0.214734
H16   H     H_    0.282021 0.203511 0.876434 0.187521
H17   H     H_    0.383780 0.330448 0.753935 0.216772
H18   H     H_    0.597331 0.638899 0.874373 0.146150
H19   H     H_    0.944557 0.416047 0.716523 0.156145
H20   H     H_    0.944002 0.359178 0.318879 0.162044
I1    I     I_    0.067894 0.191438 0.550389 -0.377808
I2    I     I_    0.233111 0.156536 0.176650 -0.408486
N1    N     N_R   0.499210 0.498800 0.142780 -0.115588
N2    N     N_R   0.499180 0.498720 0.857170 -0.115843
O1    O     O_R   0.500000 0.316780 0.614690 -0.637984
O2    O     O_R   0.499990 0.316750 0.385360 -0.627060
O3    O     O_R   0.376780 0.500000 0.614650 -0.627488
O4    O     O_R   0.376770 0.499980 0.385310 -0.627163
O5    O     O_R   0.500010 0.683250 0.614640 -0.616994
O6    O     O_R   0.500000 0.683220 0.385310 -0.613185
O7    O     O_R   0.623230 0.500020 0.614690 -0.624536
O8    O     O_R   0.623220 0.500000 0.385350 -0.603898
Zn1   Zn    Zn3+2 0.500010 0.500020 0.653130 0.938434
Zn2   Zn    Zn3+2 0.499990 0.499980 0.346870 0.942388

loop_
_geom_bond_atom_site_label_1
_geom_bond_atom_site_label_2
_ccdc_geom_bond_type
C1    O1    A    
C4    C26   S    
C31   C33   S    
C19   N1    A    
C6    C7    A    
C32   H2    S    
C1    C8    S    
C9    C10   A    
C4    O4    A    
C30   H9    S    
C36   H6    S    
C10   C29   S    
C30   H10   S    
C12   C25   S    
C3    C5    A    
C22   O8    A    
C23   C32   S    
C20   C21   A    
C33   H20   S    
C15   H16   S    
C17   C18   A    
C24   C31   S    
C7    C8    A    
C29   H13   S    
C23   C28   S    
C32   C33   S    
C24   H19   S    
C4    O3    A    
C30   H8    S    
O6    Zn2   S    
C25   I1    S    
C2    H7    S    
C29   H11   S    
C23   H3    S    
N2    Zn1   S    
C31   C35   S    
C18   N2    A    
C12   C28   S    
C2    C3    A    
O4    Zn2   S    
C22   C27   S    
C7    C36   A    
O3    Zn1   S    
C5    C6    A    
C14   I2    S    
C5    H12   S    
O5    Zn1   S    
C22   O7    A    
C16   O6    A    
C10   C11   A    
C28   H4    S    
N1    Zn2   S    
C12   C34   S    
C1    O2    A    
C17   H17   S    
C2    C36   A    
C24   C25   S    
O2    Zn2   S    
C21   N2    A    
C21   H18   S    
C18   C19   A    
C11   C16   S    
O1    Zn1   S    
C6    C11   A    
C15   C17   A    
O8    Zn2   S    
C13   C19   A    
C14   C15   A    
C20   H14   S    
C16   O5    A    
C13   C14   A    
C27   C35   T    
C13   H15   S    
C9    H5    S    
C20   N1    A    
C26   C34   T    
C12   C32   S    
C29   C30   S    
C24   C28   S    
C3    H1    S    
C25   C33   S    
C8    C9    A    
O7    Zn1   S    
C23   C31   S    
