data_mof_unit_2320.cif
_audit_creation_date              2012-12-11T14:34:01-0500
_audit_creation_method            fapswitch 2.2
_symmetry_space_group_name_H-M    P1
_symmetry_Int_Tables_number       1
_space_group_crystal_system       triclinic
_cell_length_a                    13.868321
_cell_length_b                    13.985751
_cell_length_c                    27.32583
_cell_angle_alpha                 89.919672
_cell_angle_beta                  89.859175
_cell_angle_gamma                 119.584029
_cell_volume                      4609.09400056

loop_
_atom_site_label
_atom_site_type_symbol
_atom_type_description
_atom_site_fract_x
_atom_site_fract_y
_atom_site_fract_z
_atom_type_partial_charge
C1    C     C_R   0.233871 0.786878 0.568711 0.540109
C2    C     C_R   0.212743 0.447260 0.568916 0.542362
C3    C     C_R   0.552462 0.765040 0.569044 0.539982
C4    C     C_3   0.653314 0.726438 0.790344 -0.061745
C5    C     C_3   0.262937 0.913924 0.789189 -0.053616
C6    C     C_3   0.062117 0.337536 0.788627 -0.059065
C7    C     C_3   0.631186 0.715522 0.734085 -0.192125
C8    C     C_3   0.276104 0.889446 0.734572 -0.183472
C9    C     C_3   0.088788 0.378118 0.734287 -0.192649
C10   C     C_1   0.708588 0.860658 0.860209 -0.076268
C11   C     C_1   0.118087 0.876251 0.853768 -0.083068
C12   C     C_1   0.119811 0.248563 0.854607 -0.081315
C13   C     C_1   0.627238 0.812304 0.659113 -0.076461
C14   C     C_1   0.178320 0.814108 0.657066 -0.078507
C15   C     C_1   0.181517 0.369393 0.658169 -0.076836
C16   C     C_1   0.600086 0.795155 0.616800 -0.016488
C17   C     C_1   0.199730 0.803742 0.615532 -0.015849
C18   C     C_1   0.194677 0.399019 0.616286 -0.015651
C19   C     C_R   0.064829 0.150943 0.096191 0.609654
C20   C     C_R   0.774597 0.882345 0.087164 0.588163
C21   C     C_R   0.116640 0.892967 0.087623 0.598064
C22   C     C_R   0.071285 0.163587 0.942999 0.532079
C23   C     C_R   0.780139 0.887243 0.950761 0.535993
C24   C     C_R   0.091521 0.928944 0.943251 0.530518
C25   C     C_R   0.612749 0.891436 0.359078 -0.134107
C26   C     C_R   0.098482 0.737087 0.362532 -0.135161
C27   C     C_R   0.266735 0.361271 0.363183 -0.135869
C28   C     C_R   0.633210 0.903599 0.308726 0.018661
C29   C     C_R   0.082583 0.747645 0.312646 0.018012
C30   C     C_R   0.243366 0.310286 0.317194 0.016820
C31   C     C_R   0.664270 0.919353 0.206757 0.010680
C32   C     C_R   0.060319 0.762154 0.211173 0.001399
C33   C     C_R   0.200764 0.229311 0.220702 0.002379
C34   C     C_R   0.233391 0.788248 0.431459 0.546810
C35   C     C_R   0.211990 0.444499 0.431540 0.549720
C36   C     C_R   0.554447 0.766495 0.431284 0.547292
C37   C     C_R   0.643949 0.995227 0.231683 -0.127059
C38   C     C_R   0.972325 0.681267 0.238842 -0.114307
C39   C     C_R   0.304224 0.262184 0.242304 -0.115659
C40   C     C_R   0.627745 0.986966 0.282362 -0.133489
C41   C     C_R   0.984210 0.672646 0.289167 -0.127085
C42   C     C_R   0.325810 0.303605 0.290014 -0.128419
C43   C     C_R   0.691422 0.932546 0.156929 -0.154343
C44   C     C_R   0.048023 0.774577 0.161327 -0.182658
C45   C     C_R   0.181809 0.197203 0.171571 -0.177621
C46   C     C_R   0.711725 0.855662 0.133159 0.032423
C47   C     C_R   0.136962 0.856001 0.134394 0.027817
C48   C     C_R   0.081723 0.174250 0.149042 0.020973
C49   C     C_R   0.643483 0.734674 0.360166 -0.129829
C50   C     C_R   0.277359 0.904486 0.358439 -0.126026
C51   C     C_R   0.076141 0.322512 0.370314 -0.129763
C52   C     C_R   0.659845 0.743155 0.309938 0.015589
C53   C     C_R   0.266224 0.911526 0.308553 0.014453
C54   C     C_R   0.052444 0.273858 0.324342 0.013348
C55   C     C_R   0.653071 0.826720 0.283853 0.068615
C56   C     C_R   0.169445 0.832076 0.285191 0.067315
C57   C     C_R   0.136871 0.270481 0.296888 0.066543
C58   C     C_R   0.676485 0.665197 0.285188 -0.138148
C59   C     C_R   0.353403 0.993758 0.281505 -0.135198
C60   C     C_R   0.946978 0.234211 0.304383 -0.137862
C61   C     C_R   0.682685 0.667405 0.234508 -0.132196
C62   C     C_R   0.347136 0.994815 0.230917 -0.131022
C63   C     C_R   0.927104 0.198844 0.256142 -0.125744
C64   C     C_R   0.675176 0.749612 0.207829 0.010845
C65   C     C_R   0.251860 0.915206 0.206676 0.012346
C66   C     C_R   0.012150 0.201498 0.226930 0.018412
C67   C     C_3   0.565821 0.853238 0.737549 -0.211334
C68   C     C_3   0.092280 0.714248 0.734413 -0.214907
C69   C     C_3   0.279394 0.397475 0.737045 -0.212159
C70   C     C_R   0.664193 0.831964 0.232796 0.028345
C71   C     C_R   0.160583 0.836259 0.234287 0.028399
C72   C     C_R   0.116117 0.232270 0.248306 0.028455
C73   C     C_R   0.685990 0.755825 0.156820 0.227066
C74   C     C_R   0.242436 0.917160 0.155656 0.224487
C75   C     C_R   0.996455 0.175902 0.176701 0.223300
C76   C     C_R   0.611977 0.803226 0.384292 -0.004412
C77   C     C_R   0.198430 0.812795 0.384860 -0.003014
C78   C     C_R   0.184376 0.372036 0.388749 -0.004792
C79   C     C_3   0.768539 0.916783 0.722881 -0.225941
C80   C     C_3   0.098979 0.892140 0.714795 -0.219501
C81   C     C_3   0.114067 0.215287 0.716398 -0.225095
C82   C     C_3   0.789042 0.929475 0.778806 -0.232483
C83   C     C_3   0.079918 0.904019 0.769593 -0.226355
C84   C     C_3   0.108985 0.187000 0.771134 -0.238131
C85   C     C_1   0.736071 0.872997 0.902475 -0.041527
C86   C     C_1   0.105269 0.898840 0.894862 -0.041664
C87   C     C_1   0.100752 0.210555 0.895232 -0.038575
C88   C     C_3   0.648615 0.825026 0.712088 0.048294
C89   C     C_3   0.161433 0.827247 0.708977 0.050704
C90   C     C_3   0.166350 0.340657 0.710189 0.053125
C91   C     C_3   0.588918 0.870900 0.793742 -0.075404
C92   C     C_3   0.079834 0.729074 0.790507 -0.076035
C93   C     C_3   0.262519 0.375648 0.793460 -0.072948
C94   C     C_3   0.684152 0.845612 0.807482 0.085795
C95   C     C_3   0.136276 0.855928 0.802609 0.096494
C96   C     C_3   0.137511 0.288060 0.803748 0.093807
Cr1   Cr    Cr6+3 0.164410 0.584450 0.499910 1.017657
Cr2   Cr    Cr6+3 0.415550 0.579960 0.499910 1.017207
Cr3   Cr    Cr6+3 0.420040 0.835590 0.499910 1.014374
Cr4   Cr    Cr6+3 0.155170 0.075460 0.019960 1.042780
Cr5   Cr    Cr6+3 0.924540 0.079710 0.019960 1.034317
Cr6   Cr    Cr6+3 0.920290 0.844830 0.019960 1.037217
H1    H     H_    0.620799 0.960195 0.800338 0.135131
H2    H     H_    0.989466 0.691764 0.798461 0.126239
H3    H     H_    0.315028 0.339882 0.805082 0.121385
H4    H     H_    0.480107 0.785779 0.730075 0.107249
H5    H     H_    0.132427 0.663393 0.727609 0.107914
H6    H     H_    0.323297 0.487103 0.728492 0.108041
H7    H     H_    0.701495 0.004276 0.137303 0.157906
H8    H     H_    0.967894 0.725387 0.144177 0.147579
H9    H     H_    0.246731 0.194877 0.150309 0.147939
H10   H     H_    0.589375 0.945418 0.377687 0.124052
H11   H     H_    0.036339 0.667369 0.383085 0.120721
H12   H     H_    0.350182 0.397804 0.377632 0.124674
H13   H     H_    0.642237 0.061811 0.212110 0.099260
H14   H     H_    0.894872 0.624102 0.221476 0.111445
H15   H     H_    0.369711 0.259495 0.221704 0.112661
H16   H     H_    0.611808 0.046149 0.300963 0.094177
H17   H     H_    0.916474 0.607868 0.309713 0.100462
H18   H     H_    0.407674 0.332686 0.305230 0.100974
H19   H     H_    0.697287 0.606566 0.216786 0.116580
H20   H     H_    0.415959 0.060619 0.211433 0.116121
H21   H     H_    0.845242 0.171854 0.241989 0.126097
H22   H     H_    0.682464 0.601079 0.304964 0.099345
H23   H     H_    0.427685 0.055850 0.299404 0.096482
H24   H     H_    0.880827 0.234555 0.325464 0.104490
H25   H     H_    0.572560 0.929188 0.721078 0.105568
H26   H     H_    0.008537 0.669281 0.717517 0.105295
H27   H     H_    0.333016 0.365183 0.722761 0.104947
H28   H     H_    0.644843 0.667641 0.379578 0.128563
H29   H     H_    0.353784 0.965274 0.375460 0.132469
H30   H     H_    0.011409 0.327918 0.390357 0.129949
H31   H     H_    0.828927 0.896705 0.705396 0.112250
H32   H     H_    0.146206 0.974305 0.697218 0.111818
H33   H     H_    0.028943 0.172992 0.700778 0.115866
H34   H     H_    0.782898 0.996192 0.707105 0.111513
H35   H     H_    0.017419 0.848441 0.695925 0.110005
H36   H     H_    0.163554 0.184662 0.696477 0.109096
H37   H     H_    0.811512 0.014253 0.789871 0.096843
H38   H     H_    0.989835 0.861416 0.777200 0.087702
H39   H     H_    0.171868 0.162282 0.778606 0.106732
H40   H     H_    0.861204 0.919258 0.788162 0.104792
H41   H     H_    0.111145 0.990773 0.778551 0.115923
H42   H     H_    0.026144 0.116241 0.780242 0.103748
H43   H     H_    0.544665 0.648813 0.727331 0.095229
H44   H     H_    0.316595 0.837773 0.733233 0.084898
H45   H     H_    0.129613 0.469471 0.733414 0.090138
H46   H     H_    0.686374 0.691253 0.714607 0.123445
H47   H     H_    0.331459 0.964278 0.713345 0.130967
H48   H     H_    0.011806 0.347251 0.712226 0.123320
H49   H     H_    0.575916 0.667673 0.809305 0.124838
H50   H     H_    0.297835 0.872596 0.811814 0.118633
H51   H     H_    0.083374 0.409090 0.812695 0.132487
O1    O     O_R   0.137150 0.468200 0.553200 -0.512670
O2    O     O_R   0.531800 0.668950 0.553200 -0.511696
O3    O     O_R   0.331050 0.862850 0.553200 -0.510397
O4    O     O_R   0.179100 0.982980 0.967000 -0.502932
O5    O     O_R   0.017020 0.196120 0.967000 -0.490494
O6    O     O_R   0.803880 0.820900 0.967000 -0.512347
O7    O     O_R   0.173970 0.688730 0.549930 -0.501220
O8    O     O_R   0.311270 0.485240 0.549930 -0.500468
O9    O     O_R   0.514760 0.826030 0.549930 -0.498801
O10   O     O_R   0.140110 0.470540 0.446010 -0.520595
O11   O     O_R   0.529460 0.669570 0.446010 -0.522240
O12   O     O_R   0.330430 0.859890 0.446010 -0.525220
O13   O     O_R   0.176710 0.690910 0.450560 -0.500438
O14   O     O_R   0.309090 0.485800 0.450560 -0.502346
O15   O     O_R   0.514200 0.823290 0.450560 -0.503241
O16   O     O_3   0.333333 0.666667 0.499990 -0.264459
O17   O     O_R   0.176750 0.985260 0.074180 -0.458793
O18   O     O_R   0.014740 0.191490 0.074180 -0.437949
O19   O     O_R   0.808510 0.823250 0.074180 -0.443286
O20   O     O_R   0.146100 0.172630 0.068980 -0.498311
O21   O     O_R   0.827370 0.973470 0.068980 -0.505890
O22   O     O_R   0.026530 0.853900 0.068980 -0.509489
O23   O     O_3   0.000000 0.000000 0.020040 -0.302293
O24   O     O_R   0.148270 0.170520 0.969620 -0.493836
O25   O     O_R   0.829480 0.977750 0.969620 -0.524141
O26   O     O_R   0.022250 0.851730 0.969620 -0.487150
C97   C     C_3   0.480298 0.806681 0.824432 -0.294550
C98   C     C_3   0.476186 0.870206 0.869204 -0.446282
H52   H     H_    0.539413 0.880641 0.896524 0.166229
H53   H     H_    0.489658 0.952332 0.858314 0.135946
H54   H     H_    0.393365 0.823970 0.886884 0.143183
H55   H     H_    0.407308 0.789173 0.801765 0.122737
H56   H     H_    0.467867 0.726306 0.837011 0.147042
C99   C     C_3   0.120828 0.660475 0.819787 -0.301334
C100  C     C_3   0.100124 0.654269 0.874907 -0.427285
H57   H     H_    0.164153 0.729943 0.893034 0.168061
H58   H     H_    0.016020 0.641411 0.883031 0.160393
H59   H     H_    0.106422 0.584084 0.890403 0.136915
H60   H     H_    0.074591 0.574734 0.805966 0.129957
H61   H     H_    0.209717 0.689323 0.812690 0.133318
C101  C     C_3   0.307741 0.487291 0.820557 -0.299824
C102  C     C_3   0.305783 0.479770 0.876354 -0.427033
H62   H     H_    0.220827 0.451220 0.890525 0.167816
H63   H     H_    0.336366 0.423915 0.888825 0.163773
H64   H     H_    0.360356 0.562610 0.891905 0.136459
H65   H     H_    0.395613 0.538710 0.809482 0.123120
H66   H     H_    0.264760 0.532480 0.808717 0.135301
C103  C     C_3   0.740560 0.691894 0.804066 -0.292526
C104  C     C_3   0.692503 0.567254 0.801797 -0.464076
H67   H     H_    0.622977 0.525555 0.828291 0.150823
H68   H     H_    0.662065 0.535963 0.764450 0.144125
H69   H     H_    0.757901 0.546620 0.811374 0.138083
H70   H     H_    0.812238 0.730764 0.778711 0.138223
H71   H     H_    0.772117 0.718427 0.841726 0.163957
C105  C     C_3   0.333301 0.038034 0.804427 -0.276929
C106  C     C_3   0.357669 0.125613 0.765166 -0.448680
H72   H     H_    0.427462 0.136603 0.741379 0.138011
H73   H     H_    0.284641 0.104964 0.742274 0.146273
H74   H     H_    0.383505 0.205878 0.783064 0.125176
H75   H     H_    0.294716 0.056015 0.836080 0.156031
H76   H     H_    0.415115 0.052849 0.817832 0.128981
C107  C     C_3   0.936302 0.256948 0.795844 -0.292393
C108  C     C_3   0.869276 0.316949 0.797365 -0.465320
H77   H     H_    0.895594 0.374495 0.828842 0.150351
H78   H     H_    0.880312 0.363837 0.763036 0.142997
H79   H     H_    0.779869 0.256089 0.801770 0.139519
H80   H     H_    0.904483 0.196199 0.765619 0.142299
H81   H     H_    0.920767 0.210828 0.830754 0.156655
O27   O     O_3   0.679912 0.669556 0.129718 -0.688171
H82   H     H_    0.624511 0.599566 0.145170 0.314357
O28   O     O_3   0.332089 0.983267 0.126071 -0.690367
H83   H     H_    0.399146 0.985769 0.140021 0.313305
O29   O     O_3   0.899809 0.154501 0.153319 -0.709549
H84   H     H_    0.877635 0.207836 0.165047 0.311401

loop_
_geom_bond_atom_site_label_1
_geom_bond_atom_site_label_2
_ccdc_geom_bond_type
C15   C18   T    
C40   H16   S    
C10   C85   T    
C105  H75   S    
C82   C94   S    
C7    H43   S    
C2    C18   S    
C33   C45   A    
C103  C104  S    
C93   C101  S    
C48   C75   A    
C108  H79   S    
C82   H40   S    
C27   C78   A    
C42   H18   S    
O28   H83   S    
Cr2   O8    S    
C6    C9    S    
C53   C59   A    
C92   C99   S    
C80   H32   S    
C54   C60   A    
C98   H52   S    
C25   C28   A    
C79   H34   S    
C67   C88   S    
C33   C39   A    
C5    H50   S    
C31   C43   A    
C73   O27   S    
C60   C63   A    
C100  H58   S    
C108  H78   S    
Cr3   O15   S    
C37   C40   A    
C69   C93   S    
C22   O24   A    
C34   C77   S    
C64   C70   A    
C53   C56   A    
C28   C40   A    
C11   C86   T    
Cr6   O23   S    
C80   H35   S    
C1    O3    A    
C30   C57   A    
C74   O28   S    
C36   O15   A    
C106  H74   S    
Cr1   O16   S    
C84   H42   S    
C61   H19   S    
C84   C96   S    
C80   C89   S    
C83   H38   S    
C23   O25   A    
Cr5   O25   S    
C36   C76   S    
C33   C72   A    
C93   H3    S    
Cr2   O16   S    
C34   O13   A    
Cr4   O4    S    
C28   C55   A    
C31   C70   A    
C20   O21   A    
C6    C107  S    
C7    C88   S    
C105  C106  S    
C21   O22   A    
C104  H69   S    
C23   O6    A    
Cr4   O23   S    
C35   O14   A    
C103  H70   S    
C68   H5    S    
C32   C38   A    
C39   C42   A    
C34   O12   A    
C5    C105  S    
C68   H26   S    
Cr2   O14   S    
C3    O9    A    
C52   C55   A    
C19   O18   A    
C102  H64   S    
C56   C71   A    
C58   C61   A    
C101  C102  S    
C63   C66   A    
C2    O1    A    
C99   H61   S    
C27   C30   A    
Cr6   O26   S    
C25   H10   S    
C14   C17   T    
Cr5   O21   S    
C80   C83   S    
Cr4   O24   S    
C107  H81   S    
C2    O8    A    
C3    O2    A    
C79   C88   S    
C5    C95   S    
C69   H6    S    
C68   C92   S    
C81   H33   S    
C32   C71   A    
C98   H53   S    
Cr6   O19   S    
C81   H36   S    
C79   H31   S    
C66   C72   A    
C9    H48   S    
C50   C53   A    
C104  H67   S    
Cr4   O17   S    
C26   C77   A    
Cr1   O7    S    
C108  H77   S    
C38   C41   A    
C106  H72   S    
C21   O17   A    
C50   H29   S    
C24   O4    A    
C22   O5    A    
C4    C7    S    
Cr6   O22   S    
C65   C71   A    
C9    H45   S    
C92   C95   S    
C35   O10   A    
C65   C74   A    
C31   C37   A    
C100  H57   S    
C37   H13   S    
Cr6   O6    S    
C61   C64   A    
C107  C108  S    
C19   O20   A    
C14   C89   S    
C104  H68   S    
C82   H37   S    
C67   H25   S    
C5    C8    S    
Cr3   O9    S    
C38   H14   S    
C63   H21   S    
C101  H65   S    
C64   C73   A    
C49   C52   A    
C83   C95   S    
C91   C97   S    
C24   O26   A    
C67   C91   S    
C68   C89   S    
C103  H71   S    
C49   C76   A    
Cr1   O1    S    
C41   H17   S    
Cr1   O10   S    
C99   H60   S    
C52   C58   A    
C4    C94   S    
C81   C90   S    
Cr3   O12   S    
C20   O19   A    
Cr5   O5    S    
C93   C96   S    
C6    C96   S    
C100  H59   S    
C101  H66   S    
C69   C90   S    
C50   C77   A    
C62   H20   S    
C81   C84   S    
C97   C98   S    
C7    H46   S    
C45   C48   A    
C11   C95   S    
C4    H49   S    
Cr2   O2    S    
C59   C62   A    
C105  H76   S    
C98   H54   S    
C62   C65   A    
C29   C41   A    
C19   C48   S    
C58   H22   S    
C75   O29   S    
C8    H44   S    
C47   C74   A    
C91   H1    S    
C22   C87   S    
C9    C90   S    
C79   C82   S    
Cr2   O11   S    
C51   H30   S    
C44   C47   A    
C67   H4    S    
C55   C70   A    
Cr3   O16   S    
C29   C56   A    
C59   H23   S    
C49   H28   S    
C35   C78   S    
C1    C17   S    
C97   H56   S    
C51   C54   A    
C25   C76   A    
C60   H24   S    
C8    H47   S    
C26   H11   S    
C99   C100  S    
C12   C87   T    
C39   H15   S    
C45   H9    S    
C91   C94   S    
C83   H41   S    
C15   C90   S    
C4    C103  S    
C1    O7    A    
C84   H39   S    
C66   C75   A    
C13   C88   S    
C106  H73   S    
Cr5   O18   S    
C30   C42   A    
C57   C72   A    
O27   H82   S    
C43   C46   A    
C51   C78   A    
C6    H51   S    
C97   H55   S    
C92   H2    S    
C102  H62   S    
C27   H12   S    
C32   C44   A    
C26   C29   A    
C69   H27   S    
O29   H84   S    
C23   C85   S    
C13   C16   T    
Cr4   O20   S    
C36   O11   A    
C10   C94   S    
C12   C96   S    
Cr5   O23   S    
C8    C89   S    
C43   H7    S    
C21   C47   S    
C107  H80   S    
Cr3   O3    S    
C24   C86   S    
C46   C73   A    
C20   C46   S    
C3    C16   S    
Cr1   O13   S    
C102  H63   S    
C54   C57   A    
C44   H8    S    
