data_mof_unit_1981.cif
_audit_creation_date              2012-12-10T19:14:29-0500
_audit_creation_method            fapswitch 2.2
_symmetry_space_group_name_H-M    P1
_symmetry_Int_Tables_number       1
_space_group_crystal_system       triclinic
_cell_length_a                    10.778393
_cell_length_b                    9.905472
_cell_length_c                    19.165684
_cell_angle_alpha                 89.810049
_cell_angle_beta                  88.592835
_cell_angle_gamma                 89.574571
_cell_volume                      2045.54207296

loop_
_atom_site_label
_atom_site_type_symbol
_atom_type_description
_atom_site_fract_x
_atom_site_fract_y
_atom_site_fract_z
_atom_type_partial_charge
C1    C     C_R   0.258581 0.500323 0.503892 1.052364
C2    C     C_3   0.069463 0.364379 0.535609 0.215577
C3    C     C_3   0.927625 0.633132 0.538527 -0.257811
C4    C     C_3   0.925934 0.372582 0.543573 -0.252962
C5    C     C_3   0.078570 0.518065 0.425968 0.524455
C6    C     C_3   0.121923 0.500549 0.504147 -0.258082
C7    C     C_3   0.878395 0.499855 0.502214 -0.195763
C8    C     C_R   0.499719 0.500137 0.366272 0.892095
C9    C     C_3   0.932867 0.494701 0.423274 -0.286187
C10   C     C_3   0.392000 0.081184 0.540040 0.256839
C11   C     C_3   0.382542 0.922006 0.530163 0.254513
C12   C     C_R   0.487719 0.499386 0.071363 0.210933
C13   C     C_3   0.495217 0.082634 0.424505 -0.183373
C14   C     C_3   0.511595 0.918108 0.424780 -0.159509
C15   C     C_3   0.611788 0.077360 0.531992 -0.237388
C16   C     C_3   0.601585 0.918792 0.540674 -0.245965
C17   C     C_R   0.741616 0.499680 0.500921 0.865125
C18   C     C_R   0.501183 0.499911 0.634174 0.971832
C19   C     C_R   0.406258 0.575823 0.257900 -0.021429
C20   C     C_R   0.581797 0.421679 0.253549 -0.131510
C21   C     C_R   0.400415 0.575162 0.185369 -0.022273
C22   C     C_R   0.580893 0.420749 0.180952 0.013411
C23   C     C_R   0.486829 0.622304 0.818720 -0.130176
C24   C     C_R   0.489164 0.497876 0.146821 -0.081002
C25   C     C_R   0.496423 0.500004 0.291314 -0.096423
C26   C     C_R   0.495031 0.500402 0.931118 0.301219
C27   C     C_2   0.872679 0.603034 0.377697 0.404678
C28   C     C_2   0.900594 0.361740 0.386944 0.634146
C29   C     C_2   0.370889 0.127227 0.392025 0.500378
C30   C     C_2   0.413267 0.858329 0.378203 0.308201
C31   C     C_2   0.596307 0.140341 0.375848 0.640689
C32   C     C_2   0.635621 0.869183 0.391210 0.471926
C33   C     C_2   0.299372 0.651992 0.151067 0.526334
C34   C     C_R   0.518436 0.379373 0.819023 -0.114756
C35   C     C_2   0.678877 0.343107 0.141926 0.482365
C36   C     C_2   0.859780 0.687422 0.603417 0.575854
C37   C     C_2   0.870524 0.360094 0.617209 0.640225
C38   C     C_R   0.488511 0.622123 0.746454 -0.080796
C39   C     C_R   0.521330 0.379434 0.746718 -0.114827
C40   C     C_R   0.503720 0.500347 0.710034 -0.024497
C41   C     C_R   0.500135 0.500687 0.855311 0.067336
C42   C     C_3   0.069372 0.621289 0.548861 0.178274
Cl1   Cl    Cl    0.396303 0.127312 0.630975 -0.492647
Cl2   Cl    Cl    0.333713 0.836983 0.608508 -0.485375
Cl3   Cl    Cl    0.115017 0.613473 0.638795 -0.420198
Cl4   Cl    Cl    0.144038 0.302889 0.612804 -0.433404
Cl5   Cl    Cl    0.121734 0.684201 0.394050 -0.579556
Cl6   Cl    Cl    0.165188 0.409258 0.366526 -0.493438
H1    H     H_    0.338313 0.631998 0.288831 0.235265
H2    H     H_    0.531440 0.284701 0.846422 0.166850
H3    H     H_    0.476947 0.717215 0.719387 0.209380
H4    H     H_    0.537916 0.285055 0.719813 0.196191
H5    H     H_    0.110712 0.717946 0.530551 0.179558
H6    H     H_    0.092617 0.283678 0.497272 0.172109
H7    H     H_    0.915120 0.716902 0.500660 0.127643
H8    H     H_    0.890647 0.279810 0.519011 0.150975
H9    H     H_    0.816833 0.682042 0.400590 0.126467
H10   H     H_    0.834049 0.362066 0.345431 0.112127
H11   H     H_    0.283057 0.095221 0.414872 0.061063
H12   H     H_    0.651179 0.364357 0.280938 0.171239
H13   H     H_    0.341885 0.794453 0.399814 0.184104
H14   H     H_    0.594546 0.118110 0.320389 0.098326
H15   H     H_    0.637221 0.793770 0.350191 0.114912
H16   H     H_    0.285977 0.644136 0.095363 0.072035
H17   H     H_    0.689472 0.352036 0.085731 0.085869
H18   H     H_    0.888542 0.783576 0.624424 0.081301
H19   H     H_    0.783902 0.306224 0.624971 -0.004053
H20   H     H_    0.304198 0.128793 0.523814 0.117138
H21   H     H_    0.302867 0.904297 0.496069 0.054061
H22   H     H_    0.698743 0.100531 0.503003 0.233662
H23   H     H_    0.691579 0.869200 0.527968 0.192592
H24   H     H_    0.626904 0.124370 0.583552 0.173233
H25   H     H_    0.585709 0.894315 0.596858 0.207811
H26   H     H_    0.473112 0.717213 0.845838 0.170571
N1    N     N_R   0.467584 0.384031 0.035909 -0.138557
N2    N     N_R   0.510903 0.615373 0.036102 -0.144778
N3    N     N_R   0.471342 0.384559 0.966698 -0.149091
N4    N     N_R   0.514084 0.615922 0.966894 -0.151916
N5    N     N_3   0.499750 0.138610 0.498490 -0.143013
N6    N     N_3   0.499750 0.861390 0.498490 -0.147945
O1    O     O_R   0.314910 0.616040 0.499990 -0.602768
O2    O     O_2   0.948845 0.253676 0.401467 -0.518344
O3    O     O_2   0.366626 0.189966 0.337048 -0.476794
O4    O     O_2   0.413674 0.881968 0.315514 -0.530609
O5    O     O_2   0.681474 0.206911 0.396980 -0.588061
O6    O     O_2   0.735347 0.915093 0.408113 -0.582360
O7    O     O_2   0.228715 0.724870 0.184900 -0.457004
O8    O     O_2   0.750304 0.268334 0.172365 -0.518985
O9    O     O_2   0.773293 0.628933 0.632073 -0.580633
O10   O     O_2   0.917521 0.411735 0.667745 -0.422038
O11   O     O_R   0.314910 0.383960 0.499990 -0.600957
O12   O     O_R   0.500100 0.616080 0.398110 -0.687717
O13   O     O_R   0.500100 0.383920 0.398110 -0.571431
O14   O     O_R   0.685320 0.616040 0.499960 -0.638801
O15   O     O_R   0.685320 0.383960 0.499960 -0.616446
O16   O     O_R   0.500130 0.616000 0.601840 -0.562185
O17   O     O_R   0.500130 0.384000 0.601840 -0.590763
O18   O     O_2   0.891093 0.605525 0.314469 -0.471713
Zn1   Zn    Zn3+2 0.500150 0.654960 0.499970 0.987331
Zn2   Zn    Zn3+2 0.500150 0.345040 0.499970 1.025729

loop_
_geom_bond_atom_site_label_1
_geom_bond_atom_site_label_2
_ccdc_geom_bond_type
C36   O9    D    
C13   N5    S    
C27   O18   D    
C31   O5    D    
C18   O16   A    
C3    C42   S    
C2    Cl4   S    
C15   H24   S    
C34   C41   A    
C26   N4    A    
C37   O10   D    
C3    C36   S    
C13   C29   S    
C19   C21   A    
N2    N4    A    
C29   O3    D    
C3    C7    S    
C42   H5    S    
C5    C6    S    
C36   H18   S    
C21   C33   S    
C20   C25   A    
C35   H17   S    
C1    O1    A    
C15   C16   S    
O16   Zn1   S    
C18   C40   S    
C3    H7    S    
C15   N5    S    
C29   H11   S    
C7    C17   S    
C8    O12   A    
C18   O17   A    
C14   N6    S    
O11   Zn2   S    
C20   H12   S    
C39   H4    S    
C1    O11   A    
C13   C14   S    
C4    H8    S    
C8    C25   S    
C31   H14   S    
C2    C6    S    
C16   H23   S    
C14   C30   S    
C4    C7    S    
C5    Cl6   S    
C34   H2    S    
C26   N3    A    
C28   O2    D    
C16   H25   S    
N5    Zn2   S    
C27   H9    S    
C39   C40   A    
O15   Zn2   S    
C38   H3    S    
O1    Zn1   S    
C34   C39   A    
C16   N6    S    
C42   Cl3   S    
C2    C4    S    
C5    C9    S    
C22   C35   S    
C5    Cl5   S    
C35   O8    D    
C19   H1    S    
C11   N6    S    
C32   O6    D    
C11   Cl2   S    
C26   C41   S    
N1    N3    A    
O13   Zn2   S    
C17   O15   A    
C20   C22   A    
C10   H20   S    
C12   N2    A    
N6    Zn1   S    
C2    H6    S    
C22   C24   A    
C30   H13   S    
C23   H26   S    
O17   Zn2   S    
C9    C27   S    
C7    C9    S    
C15   H22   S    
C10   Cl1   S    
C13   C31   S    
C8    O13   A    
C32   H15   S    
C14   C32   S    
C10   N5    S    
C11   H21   S    
C28   H10   S    
C23   C38   A    
C12   C24   S    
C23   C41   A    
C33   O7    D    
C38   C40   A    
O14   Zn1   S    
C33   H16   S    
C37   H19   S    
C30   O4    D    
C19   C25   A    
C10   C11   S    
C12   N1    A    
C4    C37   S    
O12   Zn1   S    
C6    C42   S    
C21   C24   A    
C1    C6    S    
C17   O14   A    
C9    C28   S    
