data_mof_unit_1813.cif
_audit_creation_date              2013-03-05T16:06:21-0500
_audit_creation_method            fapswitch 2.2
_symmetry_space_group_name_H-M    P1
_symmetry_Int_Tables_number       1
_space_group_crystal_system       triclinic
_cell_length_a                    10.821312
_cell_length_b                    9.460338
_cell_length_c                    27.814665
_cell_angle_alpha                 89.996285
_cell_angle_beta                  90.528413
_cell_angle_gamma                 90.015992
_cell_volume                      2847.3569734

loop_
_atom_site_label
_atom_site_type_symbol
_atom_site_description
_atom_site_fract_x
_atom_site_fract_y
_atom_site_fract_z
_atom_type_partial_charge
O1    O     O_R   0.319640 0.618740 0.500000 -0.587549
O2    O     O_R   0.680360 0.381260 0.500000 -0.583749
O3    O     O_R   0.680360 0.618740 0.500000 -0.587772
O4    O     O_R   0.319640 0.381260 0.500000 -0.583689
C1    C     C_R   0.262037 0.499977 0.504556 0.810204
C2    C     C_R   0.737955 0.500024 0.495432 0.809967
O5    O     O_R   0.500020 0.618770 0.430260 -0.525462
O6    O     O_R   0.499980 0.381230 0.569740 -0.595767
O7    O     O_R   0.499980 0.618770 0.569740 -0.525679
O8    O     O_R   0.500020 0.381230 0.430260 -0.595825
C3    C     C_R   0.500492 0.500017 0.407306 0.822489
C4    C     C_R   0.499511 0.500007 0.592690 0.822579
Cu1   Cu    Cu3+1 0.500000 0.640660 0.500000 0.982285
Cu2   Cu    Cu3+1 0.500000 0.359340 0.500000 0.933302
C5    C     C_R   0.387457 0.470975 0.178103 0.535180
C6    C     C_R   0.612782 0.471368 0.821914 0.534986
O9    O     O_2   0.283702 0.463313 0.204367 -0.561330
O10   O     O_2   0.716616 0.464360 0.795678 -0.561501
N1    N     N_R   0.497571 0.489074 0.201834 -0.446553
N2    N     N_R   0.502641 0.489073 0.798166 -0.446395
C7    C     C_R   0.606123 0.503180 0.177919 0.545511
C8    C     C_R   0.394044 0.502777 0.822081 0.545470
C9    C     C_R   0.483859 0.367564 0.279458 -0.104537
C10   C     C_R   0.518463 0.367968 0.720535 -0.104319
C11   C     C_R   0.485007 0.370578 0.329531 -0.295654
C12   C     C_R   0.517242 0.370965 0.670462 -0.295629
C13   C     C_R   0.516930 0.624830 0.327752 0.568455
C14   C     C_R   0.481099 0.624387 0.672220 0.567752
C15   C     C_R   0.516139 0.620943 0.277594 -0.172681
C16   C     C_R   0.481962 0.620518 0.722379 -0.172280
C17   C     C_R   0.499244 0.492616 0.253375 0.282519
C18   C     C_R   0.500989 0.492616 0.746616 0.281788
C19   C     C_R   0.495747 0.480388 0.101862 -0.064139
C20   C     C_R   0.504433 0.480332 0.898145 -0.064165
C21   C     C_R   0.382886 0.463408 0.126990 -0.089200
C22   C     C_R   0.617315 0.463625 0.873023 -0.089083
C23   C     C_R   0.271676 0.438241 0.100157 0.142054
C24   C     C_R   0.728522 0.438547 0.899857 0.142165
C25   C     C_R   0.607447 0.499613 0.127716 -0.010623
C26   C     C_R   0.392717 0.499263 0.872285 -0.010540
C27   C     C_R   0.500954 0.499115 0.354282 -0.170842
C28   C     C_R   0.499137 0.499088 0.645706 -0.170486
H1    H     H_    0.528244 0.717805 0.257411 0.163550
H2    H     H_    0.468216 0.717069 0.742547 0.164012
C29   C     C_R   0.387933 0.485154 0.973742 0.063664
C30   C     C_R   0.612237 0.485424 0.026264 0.063668
C31   C     C_R   0.614004 0.471005 0.975416 -0.011738
C32   C     C_R   0.386183 0.470785 0.024593 -0.011754
C33   C     C_R   0.502243 0.478490 0.949174 0.075007
C34   C     C_R   0.497934 0.478533 0.050834 0.075025
C35   C     C_R   0.279046 0.508635 0.946649 -0.214385
C36   C     C_R   0.721099 0.509171 0.053350 -0.214381
C37   C     C_R   0.281620 0.515602 0.896914 -0.154468
C38   C     C_R   0.718519 0.516198 0.103084 -0.154521
O11   O     O_2   0.287357 0.519140 0.797138 -0.538332
O12   O     O_2   0.712760 0.520016 0.202862 -0.538185
C39   C     C_R   0.276024 0.445235 0.049658 -0.190605
C40   C     C_R   0.724185 0.445621 0.950355 -0.190662
H3    H     H_    0.531320 0.272926 0.651165 0.192218
H4    H     H_    0.472610 0.272191 0.348827 0.192767
H5    H     H_    0.532889 0.268723 0.739157 0.157715
H6    H     H_    0.471098 0.268002 0.260837 0.157521
H7    H     H_    0.195527 0.534356 0.877776 0.189152
H8    H     H_    0.804591 0.535162 0.122217 0.189133
H9    H     H_    0.190812 0.527719 0.963148 0.134512
H10   H     H_    0.809314 0.528417 0.036846 0.134559
H11   H     H_    0.193072 0.424323 0.029498 0.157651
H12   H     H_    0.807165 0.424899 0.970516 0.157630
C41   C     C_R   0.061067 0.370215 0.508491 0.083356
C42   C     C_R   0.938913 0.629786 0.491457 0.085120
C43   C     C_R   0.938832 0.370344 0.491266 0.083308
C44   C     C_R   0.061149 0.629665 0.508686 0.084982
C45   C     C_R   0.873269 0.500072 0.490509 -0.106093
C46   C     C_R   0.126713 0.499932 0.509454 -0.106247
C47   C     C_R   0.425759 0.074602 0.468852 -0.030126
C48   C     C_R   0.574247 0.925400 0.531145 0.012013
C49   C     C_R   0.574245 0.074637 0.531147 -0.030006
C50   C     C_R   0.425753 0.925364 0.468855 0.012429
H13   H     H_    0.366364 0.131251 0.444000 0.120928
H14   H     H_    0.633651 0.868752 0.555992 0.136709
H15   H     H_    0.633647 0.131315 0.555996 0.120647
H16   H     H_    0.366345 0.868688 0.444009 0.137767
N3    N     N_R   0.500000 0.852070 0.500000 -0.160328
N4    N     N_R   0.500000 0.147930 0.500000 -0.156637
F1    F     F_    0.534033 0.751201 0.349985 -0.670719
F2    F     F_    0.461765 0.750274 0.649963 -0.671021
C51   C     C_3   0.149771 0.402093 0.124957 -0.299652
C52   C     C_3   0.041140 0.357285 0.092703 -0.911083
H17   H     H_    0.011286 0.446279 0.069322 0.241838
H18   H     H_    0.066380 0.264127 0.070555 0.261693
H19   H     H_    0.961651 0.327093 0.115497 0.266594
H20   H     H_    0.166578 0.312196 0.149895 0.240416
H21   H     H_    0.118712 0.495578 0.145777 0.247177
C53   C     C_3   0.850389 0.402314 0.875060 -0.299742
C54   C     C_3   0.958830 0.356974 0.907315 -0.911029
H22   H     H_    0.988987 0.445784 0.930722 0.241745
H23   H     H_    0.933228 0.263871 0.929436 0.261772
H24   H     H_    0.038229 0.326519 0.884523 0.266587
H25   H     H_    0.833423 0.312630 0.850049 0.240259
H26   H     H_    0.881698 0.495866 0.854318 0.247191
C55   C     C_3   0.112935 0.235628 0.531830 -0.397689
C56   C     C_3   0.158624 0.261197 0.583388 -0.758212
H27   H     H_    0.238047 0.335038 0.584716 0.250023
H28   H     H_    0.082715 0.305257 0.605441 0.245080
H29   H     H_    0.188810 0.159376 0.599537 0.240393
H30   H     H_    0.040315 0.153557 0.535394 0.181032
H31   H     H_    0.186104 0.187165 0.509638 0.218686
C57   C     C_3   0.887019 0.764354 0.468112 -0.417213
C58   C     C_3   0.841224 0.738743 0.416568 -0.710530
H32   H     H_    0.917128 0.694832 0.394479 0.237223
H33   H     H_    0.761906 0.664756 0.415264 0.259046
H34   H     H_    0.810838 0.840511 0.400436 0.250055
H35   H     H_    0.813889 0.812839 0.490319 0.218747
H36   H     H_    0.959643 0.846411 0.464525 0.182153
C59   C     C_3   0.886850 0.236101 0.467718 -0.397620
C60   C     C_3   0.841006 0.262436 0.416226 -0.758429
H37   H     H_    0.761545 0.336191 0.415069 0.249756
H38   H     H_    0.916830 0.306944 0.394218 0.245301
H39   H     H_    0.810812 0.160840 0.399906 0.240299
H40   H     H_    0.959443 0.154117 0.463981 0.181315
H41   H     H_    0.813725 0.187284 0.489859 0.218768
C61   C     C_3   0.113128 0.763921 0.532229 -0.418358
C62   C     C_3   0.158950 0.737616 0.583727 -0.708238
H42   H     H_    0.083051 0.693381 0.605757 0.236799
H43   H     H_    0.238243 0.663633 0.584904 0.259450
H44   H     H_    0.189384 0.839167 0.600013 0.250967
H45   H     H_    0.186271 0.812708 0.510089 0.219070
H46   H     H_    0.040546 0.845924 0.535949 0.182278

loop_
_geom_bond_atom_site_label_1
_geom_bond_atom_site_label_2
_geom_bond_distance
_ccdc_geom_bond_type
C55   H31   1.107885 S    
C51   C52   1.531907 S    
C55   C56   1.531787 S    
C59   H41   1.107913 S    
C13   C15   1.395565 A    
C54   H22   1.110081 S    
Cu2   N4    2.000011 S    
O3    C2    1.291436 A    
N1    C17   1.433956 S    
C54   H24   1.110565 S    
C32   C39   1.407355 A    
C31   C33   1.408610 A    
C60   H37   1.107739 S    
C5    N1    1.367564 A    
C19   C25   1.412491 A    
O1    C1    1.291514 A    
N1    C7    1.361782 A    
C10   C12   1.392994 A    
C58   H33   1.107718 S    
C47   N4    1.365355 A    
C62   H43   1.107700 S    
C25   C38   1.397779 A    
C29   C35   1.410440 A    
C59   C60   1.531790 S    
C30   C36   1.410435 A    
C1    C46   1.471954 S    
C57   C58   1.531862 S    
C56   H29   1.110748 S    
C41   C43   1.402676 A    
C35   H9    1.078447 S    
C57   H36   1.109634 S    
C61   H45   1.107905 S    
C13   F1    1.357866 S    
C13   C27   1.411031 A    
O7    Cu1   1.950806 S    
C24   C40   1.407390 A    
C50   N3    1.365351 A    
C9    H6    1.083118 S    
C4    C28   1.474713 S    
C11   H4    1.083320 S    
C53   H26   1.110989 S    
C12   H3    1.083126 S    
O3    Cu1   1.962775 S    
C6    N2    1.367660 A    
C44   C61   1.533390 S    
C32   C34   1.408610 A    
Cu1   Cu2   2.661382 S    
C15   H1    1.083155 S    
O4    Cu2   1.962775 S    
C16   H2    1.082959 S    
O2    C2    1.291508 A    
C39   H11   1.072369 S    
C48   N3    1.365347 A    
C5    C21   1.423917 A    
C47   C50   1.411836 A    
C36   C38   1.385463 A    
C56   H27   1.107754 S    
C62   H42   1.110961 S    
C48   C49   1.411838 A    
C44   C46   1.417874 A    
O8    Cu2   1.950806 S    
C58   H34   1.110746 S    
C11   C27   1.407200 A    
C43   C45   1.417812 A    
C62   H44   1.110743 S    
C49   N4    1.365353 A    
C19   C34   1.419872 A    
C35   C37   1.385477 A    
C9    C17   1.398424 A    
C57   H35   1.107890 S    
O5    C3    1.292256 A    
C10   C18   1.398322 A    
C50   H16   1.081678 S    
C7    C25   1.396987 A    
C52   H19   1.110565 S    
C49   H15   1.081702 S    
O6    C4    1.292397 A    
C8    C26   1.397013 A    
C24   C53   1.532768 S    
C42   C45   1.417870 A    
C29   C33   1.420111 A    
C43   C59   1.533368 S    
C41   C46   1.417905 A    
C56   H28   1.110980 S    
C10   H5    1.082919 S    
C40   H12   1.072388 S    
C52   H18   1.110897 S    
C26   C37   1.397782 A    
C14   F2    1.357575 S    
C20   C26   1.412437 A    
O1    Cu1   1.962660 S    
C36   H10   1.078466 S    
C12   C28   1.406831 A    
C2    C45   1.471918 S    
N2    C18   1.434193 S    
C29   C32   1.421214 A    
C55   H30   1.109629 S    
C5    O9    1.347071 S    
Cu1   N3    2.000010 S    
C30   C31   1.421194 A    
C20   C33   1.419871 A    
O6    Cu2   1.950833 S    
C14   C28   1.410661 A    
C21   C23   1.430136 A    
C23   C51   1.532800 S    
C48   H14   1.081678 S    
N2    C8    1.361905 A    
O4    C1    1.291444 A    
C7    O12   1.350357 S    
C54   H23   1.110898 S    
C8    O11   1.350360 S    
C41   C55   1.533354 S    
C30   C34   1.420132 A    
C60   H39   1.110743 S    
C22   C24   1.430077 A    
C15   C17   1.399545 A    
C42   C57   1.533380 S    
C58   H32   1.110961 S    
C6    C22   1.423861 A    
C31   C40   1.407366 A    
C16   C18   1.399445 A    
C37   H7    1.083378 S    
C38   H8    1.083383 S    
C53   H25   1.111387 S    
C51   H21   1.110992 S    
C14   C16   1.395568 A    
C19   C21   1.421786 A    
C60   H38   1.110980 S    
C3    C27   1.474930 S    
C20   C22   1.421701 A    
C9    C11   1.393004 A    
C61   H46   1.109634 S    
C53   C54   1.531889 S    
O2    Cu2   1.962660 S    
O7    C4    1.292209 A    
O8    C3    1.292466 A    
O5    Cu1   1.950833 S    
C52   H17   1.110108 S    
C6    O10   1.347080 S    
C59   H40   1.109637 S    
C42   C44   1.402720 A    
C61   C62   1.531841 S    
C51   H20   1.111380 S    
C47   H13   1.081701 S    
C23   C39   1.407397 A    
