data_mof_unit_2686.cif
_audit_creation_date              2013-03-05T16:12:13-0500
_audit_creation_method            fapswitch 2.2
_symmetry_space_group_name_H-M    P1
_symmetry_Int_Tables_number       1
_space_group_crystal_system       triclinic
_cell_length_a                    10.737523
_cell_length_b                    9.493098
_cell_length_c                    27.761437
_cell_angle_alpha                 89.647378
_cell_angle_beta                  89.524926
_cell_angle_gamma                 90.022413
_cell_volume                      2829.63759727

loop_
_atom_site_label
_atom_site_type_symbol
_atom_site_description
_atom_site_fract_x
_atom_site_fract_y
_atom_site_fract_z
_atom_type_partial_charge
O1    O     O_R   0.317570 0.620260 0.500030 -0.595673
O2    O     O_R   0.317570 0.379740 0.500030 -0.598064
C1    C     C_R   0.259983 0.499694 0.500884 0.753571
O3    O     O_R   0.499900 0.620250 0.430280 -0.590584
O4    O     O_R   0.499900 0.379750 0.430280 -0.588078
C2    C     C_R   0.500269 0.500361 0.407560 0.817959
Cu1   Cu    Cu3+1 0.499860 0.642410 0.500020 0.937468
Cu2   Cu    Cu3+1 0.499860 0.357590 0.500020 0.935377
O5    O     O_R   0.682190 0.620260 0.500010 -0.593694
O6    O     O_R   0.682190 0.379740 0.500010 -0.596203
O7    O     O_R   0.499860 0.620280 0.569750 -0.527301
O8    O     O_R   0.499860 0.379720 0.569750 -0.521202
C3    C     C_R   0.739731 0.499884 0.499900 0.751989
C4    C     C_R   0.498358 0.499843 0.592217 0.802149
C5    C     C_R   0.403885 0.561229 0.178000 0.547977
O9    O     O_2   0.308039 0.616669 0.203281 -0.525006
N1    N     N_R   0.503254 0.504315 0.201700 -0.470554
C6    C     C_R   0.602646 0.448997 0.177157 0.552565
C7    C     C_R   0.483226 0.374946 0.278881 0.022637
C8    C     C_R   0.482953 0.375020 0.329199 -0.237705
C9    C     C_R   0.519801 0.627171 0.328822 -0.203978
C10   C     C_R   0.520834 0.627355 0.278629 -0.094608
C11   C     C_R   0.502777 0.501803 0.253402 0.307041
C12   C     C_R   0.500031 0.500283 0.101499 -0.045616
C13   C     C_R   0.400626 0.560780 0.127482 -0.021870
C14   C     C_R   0.301777 0.621909 0.102499 -0.134300
C15   C     C_R   0.602819 0.445682 0.126627 -0.024517
C16   C     C_R   0.501065 0.500968 0.354541 -0.050253
H1    H     H_    0.534303 0.725678 0.347427 0.157113
H2    H     H_    0.535750 0.725267 0.259202 0.157237
H3    H     H_    0.227445 0.675988 0.121442 0.193462
C17   C     C_R   0.494717 0.500228 0.644744 -0.021994
C18   C     C_R   0.381293 0.524388 0.975024 -0.010910
C19   C     C_R   0.602640 0.452415 0.973502 0.048692
C20   C     C_R   0.491560 0.489488 0.948955 0.060677
C21   C     C_R   0.267643 0.535757 0.948918 -0.033410
C22   C     C_R   0.269323 0.538722 0.898667 -0.183082
C23   C     C_R   0.380211 0.519843 0.872869 -0.036214
C24   C     C_R   0.490690 0.490462 0.897822 -0.046138
C25   C     C_R   0.600311 0.461482 0.871507 -0.016321
C26   C     C_R   0.597625 0.463918 0.820982 0.532769
N2    N     N_R   0.489813 0.496370 0.797368 -0.463761
C27   C     C_R   0.382082 0.524209 0.822276 0.542072
C28   C     C_R   0.411422 0.408910 0.719967 -0.124580
C29   C     C_R   0.413089 0.410154 0.669758 -0.234200
C30   C     C_R   0.572229 0.591744 0.670189 -0.245821
C31   C     C_R   0.569273 0.591869 0.720385 -0.118492
C32   C     C_R   0.489672 0.499581 0.745587 0.347324
O10   O     O_2   0.277304 0.557355 0.798189 -0.545801
C33   C     C_R   0.389702 0.543390 0.025756 0.034722
C34   C     C_R   0.496975 0.495342 0.050425 0.076108
C35   C     C_R   0.601786 0.444265 0.024549 0.040597
C36   C     C_R   0.297797 0.615989 0.052521 -0.185575
H4    H     H_    0.351883 0.339948 0.650446 0.177668
H5    H     H_    0.350074 0.336688 0.738991 0.155120
H6    H     H_    0.182096 0.550734 0.879612 0.190783
H7    H     H_    0.224386 0.674730 0.035368 0.162614
O11   O     O_2   0.700903 0.397510 0.201633 -0.521286
C37   C     C_R   0.702851 0.388394 0.100893 -0.130056
H8    H     H_    0.467417 0.276871 0.348479 0.148244
H9    H     H_    0.782263 0.343839 0.119371 0.193064
C38   C     C_R   0.711452 0.425855 0.946007 -0.197656
C39   C     C_R   0.710100 0.430465 0.896025 -0.141867
O12   O     O_2   0.701689 0.432498 0.795636 -0.544839
C40   C     C_R   0.702765 0.387982 0.050823 -0.192285
H10   H     H_    0.800509 0.404899 0.962137 0.162925
H11   H     H_    0.634917 0.662728 0.651209 0.149655
H12   H     H_    0.796084 0.409661 0.876646 0.190407
H13   H     H_    0.629208 0.663261 0.739751 0.153589
H14   H     H_    0.782124 0.339372 0.033690 0.153034
C41   C     C_3   0.069788 0.606832 0.536947 -0.397231
C42   C     C_3   0.070721 0.350763 0.514174 -0.376961
H15   H     H_    0.105281 0.714383 0.528447 0.161594
H16   H     H_    0.102798 0.271066 0.487542 0.171979
H17   H     H_    0.100346 0.577818 0.573886 0.151386
H18   H     H_    0.106170 0.317946 0.550116 0.163405
C43   C     C_3   0.926751 0.609030 0.535776 -0.393369
C44   C     C_3   0.927962 0.352660 0.515390 -0.396683
H19   H     H_    0.889022 0.584789 0.572389 0.158637
H20   H     H_    0.894573 0.328405 0.552620 0.163847
H21   H     H_    0.894754 0.717112 0.526321 0.171128
H22   H     H_    0.892742 0.267243 0.491851 0.176872
H23   H     H_    0.114651 0.642957 0.439013 0.162211
H24   H     H_    0.118094 0.462313 0.422769 0.153951
C45   C     C_3   0.076614 0.537411 0.449133 -0.410857
C46   C     C_3   0.122015 0.498705 0.500370 0.136263
C47   C     C_3   0.878115 0.499702 0.498956 0.086233
C48   C     C_3   0.931346 0.535593 0.447138 -0.006047
C49   C     C_3   0.627892 0.082978 0.505256 -0.229387
C50   C     C_3   0.626937 0.916354 0.507760 -0.247908
H25   H     H_    0.677259 0.126929 0.536433 0.162299
H26   H     H_    0.670354 0.873059 0.540629 0.143523
H27   H     H_    0.685063 0.116447 0.473544 0.167265
H28   H     H_    0.689411 0.877971 0.478623 0.186505
C51   C     C_3   0.423360 0.082679 0.541617 0.443927
C52   C     C_3   0.408706 0.917039 0.537234 0.432453
C53   C     C_3   0.449810 0.083492 0.455396 -0.331045
C54   C     C_3   0.459111 0.916629 0.453878 -0.303692
N3    N     N_3   0.500250 0.143650 0.501060 -0.165003
N4    N     N_3   0.500250 0.856350 0.501060 -0.152933
H29   H     H_    0.351257 0.116624 0.450702 0.145315
H30   H     H_    0.367711 0.871223 0.443478 0.159991
H31   H     H_    0.502248 0.125896 0.423875 0.195822
H32   H     H_    0.525093 0.886048 0.424626 0.184688
H33   H     H_    0.327338 0.123709 0.536270 0.040474
H34   H     H_    0.313950 0.897941 0.521749 -0.014374
C55   C     C_1   0.461513 0.244550 0.253867 0.275716
N5    N     N_1   0.444133 0.139973 0.233783 -0.258583
C56   C     C_1   0.886956 0.673778 0.429363 0.217788
N6    N     N_1   0.852899 0.781769 0.415090 -0.305874
C57   C     C_1   0.889513 0.430104 0.411725 0.205322
N7    N     N_1   0.856536 0.347564 0.384082 -0.258355
O13   O     O_3   0.454777 0.136979 0.588356 -0.569168
C58   C     C_3   0.548337 0.068472 0.616013 0.150142
H35   H     H_    0.599231 0.986110 0.597288 0.141613
H36   H     H_    0.503791 0.017569 0.647688 0.180512
C59   C     C_3   0.643699 0.172403 0.635532 -0.844653
H37   H     H_    0.602784 0.234295 0.665318 0.265029
H38   H     H_    0.724129 0.113345 0.650386 0.200709
H39   H     H_    0.679053 0.244670 0.607079 0.251605
O14   O     O_3   0.414500 0.852101 0.583306 -0.574319
C60   C     C_3   0.293947 0.834805 0.604076 0.059578
H40   H     H_    0.257021 0.731612 0.592697 0.159197
H41   H     H_    0.227329 0.919493 0.593501 0.105541
C61   C     C_3   0.299946 0.834700 0.658839 -0.785802
H42   H     H_    0.311867 0.943606 0.672307 0.228549
H43   H     H_    0.211494 0.792307 0.674053 0.219569
H44   H     H_    0.377686 0.768365 0.671596 0.269574
C62   C     C_1   0.145949 0.523907 0.971326 0.228647
N8    N     N_1   0.048318 0.513906 0.989031 -0.299730

loop_
_geom_bond_atom_site_label_1
_geom_bond_atom_site_label_2
_geom_bond_distance
_ccdc_geom_bond_type
C44   C47   1.562025 S    
C47   C48   1.578723 S    
C26   N2    1.369365 A    
C20   C24   1.419615 A    
C7    C8    1.396864 A    
C12   C15   1.407900 A    
C42   H18   1.113597 S    
C58   H35   1.086643 S    
Cu1   Cu2   2.703823 S    
C45   C46   1.549559 S    
Cu1   O7    1.945885 S    
N1    C11   1.435356 S    
C25   C39   1.396709 A    
C52   O14   1.418251 S    
C49   N3    1.492037 S    
C21   C22   1.395126 A    
Cu2   N3    2.030987 S    
C62   N8    1.157745 T    
C59   H38   1.110694 S    
C23   C24   1.405851 A    
O7    C4    1.299040 A    
C44   H20   1.113837 S    
C5    C13   1.403214 A    
C40   H14   1.077760 S    
C53   C54   1.588030 S    
C19   C38   1.413896 A    
C18   C21   1.428235 A    
Cu1   O5    1.969112 S    
C19   C20   1.421871 A    
C17   C29   1.401297 A    
O5    C3    1.299293 A    
C31   H13   1.082780 S    
C42   C44   1.533080 S    
C51   H33   1.113073 S    
C39   H12   1.083542 S    
C22   H6    1.085193 S    
C6    O11   1.349783 S    
C2    C16   1.471805 S    
C51   C52   1.585744 S    
C61   H44   1.105129 S    
C55   N5    1.157428 T    
C8    H8    1.083847 S    
C12   C34   1.419605 A    
C14   H3    1.083434 S    
C9    C10   1.393350 A    
C1    C46   1.481651 S    
C48   C57   1.479935 S    
O3    Cu1   1.948761 S    
C50   N4    1.488086 S    
C53   N3    1.498848 S    
C50   H28   1.109881 S    
C43   H19   1.113749 S    
C37   H9    1.083507 S    
C33   C36   1.412647 A    
Cu1   N4    2.031339 S    
C38   H10   1.077341 S    
C34   C35   1.417396 A    
H24   C45   1.115155 S    
C42   H16   1.113795 S    
C59   H39   1.107627 S    
C24   C25   1.408287 A    
C41   H15   1.112921 S    
C36   H7    1.078123 S    
C27   O10   1.349852 S    
C8    C16   1.405275 A    
C33   C34   1.418953 A    
C13   C14   1.397153 A    
C54   H30   1.112754 S    
C9    H1    1.082895 S    
C58   H36   1.105965 S    
O1    C1    1.300677 A    
C7    C11   1.407658 A    
C22   C23   1.396547 A    
C41   C46   1.550174 S    
C44   H22   1.112647 S    
C50   H26   1.105223 S    
C31   C32   1.403404 A    
C43   H21   1.112716 S    
Cu2   O8    1.948456 S    
C3    C47   1.485917 S    
C38   C39   1.388198 A    
N1    C6    1.368120 A    
N2    C32   1.437664 S    
C12   C13   1.407906 A    
O14   C60   1.421725 S    
C53   H31   1.110019 S    
C48   C56   1.479165 S    
O3    C2    1.304588 A    
C25   C26   1.403244 A    
H23   C45   1.115333 S    
C9    C16   1.404469 A    
O8    C4    1.303181 A    
C29   H4    1.083241 S    
C54   N4    1.496261 S    
C61   H42   1.109258 S    
C49   H25   1.102758 S    
N2    C27   1.369442 A    
C60   H41   1.115899 S    
C49   C50   1.582903 S    
C14   C36   1.389977 A    
C41   C43   1.536627 S    
C28   C29   1.393826 A    
O13   C58   1.424376 S    
C45   C48   1.561352 S    
C5    N1    1.367830 A    
C52   H34   1.122916 S    
C30   C31   1.393608 A    
C10   H2    1.082945 S    
C57   N7    1.157561 T    
O1    Cu1   1.968522 S    
C17   C30   1.401148 A    
O2    Cu2   1.968686 S    
C6    C15   1.403332 A    
C4    C17   1.458435 S    
O6    C3    1.296898 A    
O4    Cu2   1.946187 S    
C42   C46   1.553031 S    
C19   C35   1.418707 A    
C60   C61   1.522189 S    
O2    C1    1.296249 A    
C18   C33   1.424624 A    
C30   H11   1.083608 S    
C15   C37   1.397249 A    
C59   H37   1.105525 S    
C37   C40   1.390047 A    
C41   H17   1.112344 S    
C28   H5    1.082743 S    
O4    C2    1.303794 A    
C51   O13   1.441680 S    
C54   H32   1.113215 S    
C52   N4    1.515867 S    
C18   C20   1.422817 A    
C51   N3    1.503518 S    
C49   H27   1.113683 S    
C58   C59   1.526610 S    
C28   C32   1.403423 A    
C23   C27   1.404845 A    
C43   C47   1.554414 S    
Cu2   O6    1.968948 S    
C56   N6    1.157334 T    
C61   H43   1.110554 S    
C10   C11   1.400353 A    
C26   O12   1.349965 S    
C60   H40   1.105557 S    
C21   C62   1.446587 S    
C53   H29   1.112552 S    
C35   C40   1.414898 A    
C5    O9    1.349711 S    
C7    C55   1.442892 S    
