data_mof_unit_3401.cif
_audit_creation_date              2012-12-10T19:36:45-0500
_audit_creation_method            fapswitch 2.2
_symmetry_space_group_name_H-M    P1
_symmetry_Int_Tables_number       1
_space_group_crystal_system       triclinic
_cell_length_a                    11.74113
_cell_length_b                    15.907013
_cell_length_c                    17.272466
_cell_angle_alpha                 97.865435
_cell_angle_beta                  93.915194
_cell_angle_gamma                 92.937527
_cell_volume                      3182.11069178

loop_
_atom_site_label
_atom_site_type_symbol
_atom_type_description
_atom_site_fract_x
_atom_site_fract_y
_atom_site_fract_z
_atom_type_partial_charge
C1    C     C_R   0.494821 0.488196 0.347778 0.859850
C2    C     C_R   0.500845 0.107675 0.474241 0.032238
C3    C     C_R   0.621018 0.847518 0.552379 0.140439
C4    C     C_R   0.427305 0.145775 0.422708 0.185543
C5    C     C_R   0.600481 0.758014 0.556858 0.462596
C6    C     C_R   0.416625 0.235097 0.435312 0.462476
C7    C     C_R   0.283822 0.499806 0.499670 0.792338
C8    C     C_R   0.715992 0.499791 0.498788 0.800911
C9    C     C_1   0.162088 0.499200 0.498849 -0.200001
C10   C     C_1   0.837451 0.498599 0.497154 -0.233576
C11   C     C_1   0.059607 0.498620 0.497896 -0.008110
C12   C     C_R   0.496402 0.511763 0.651468 0.878063
C13   C     C_1   0.939805 0.498169 0.497033 -0.006264
C14   C     C_R   0.481117 0.480326 0.259857 -0.238453
C15   C     C_R   0.481490 0.520297 0.737053 -0.252830
C16   C     C_R   0.492892 0.554648 0.224750 -0.432479
C17   C     C_R   0.466902 0.445942 0.770745 -0.383644
C18   C     C_R   0.484098 0.551709 0.143496 0.409424
C19   C     C_R   0.461322 0.448349 0.850928 0.380727
C20   C     C_R   0.453096 0.473702 0.094169 0.083617
C21   C     C_R   0.457719 0.527601 0.899531 0.098571
C22   C     C_R   0.442837 0.397338 0.127627 0.245728
C23   C     C_R   0.457946 0.400594 0.211034 0.374585
C24   C     C_R   0.470042 0.604182 0.866377 0.241851
C25   C     C_3   0.582971 0.358879 0.901007 0.127282
C26   C     C_3   0.594611 0.268922 0.920479 -0.784795
C27   C     C_3   0.637779 0.622460 0.104975 0.121099
C28   C     C_3   0.681239 0.703454 0.075659 -0.743937
C29   C     C_3   0.338362 0.299581 0.031736 0.133258
C30   C     C_3   0.322908 0.203710 0.002824 -0.823585
C31   C     C_3   0.394618 0.709892 0.949889 0.116427
C32   C     C_3   0.419133 0.801248 0.991060 -0.806733
C33   C     C_3   0.379914 0.262520 0.219873 0.174096
C34   C     C_R   0.484193 0.600979 0.784488 0.361335
C35   C     C_3   0.255068 0.289925 0.217677 -0.349072
C36   C     C_3   0.171259 0.215975 0.179725 -0.895089
C37   C     C_3   0.468309 0.747678 0.768904 0.147436
C38   C     C_3   0.338808 0.741650 0.746106 -0.395205
C39   C     C_3   0.287477 0.826486 0.772580 -0.943685
C40   C     C_3   0.710951 0.315394 0.625162 0.167825
C41   C     C_3   0.746833 0.331788 0.712516 -0.844263
C42   C     C_3   0.318671 0.693426 0.355230 0.144232
C43   C     C_3   0.194272 0.659317 0.329323 -0.776961
C44   C     C_3   0.552676 0.108431 0.653534 0.152343
C45   C     C_R   0.436012 0.751085 0.465652 0.401795
C46   C     C_3   0.623907 0.074409 0.718194 -0.763155
C47   C     C_3   0.281939 0.908134 0.482535 0.168656
C48   C     C_3   0.177553 0.938725 0.439371 -0.796345
C49   C     C_3   0.790433 0.931645 0.566219 0.129405
C50   C     C_3   0.889293 0.965826 0.626348 -0.846168
C51   C     C_3   0.393857 0.048080 0.308540 0.154818
C52   C     C_3   0.296387 0.004278 0.250299 -0.844093
C53   C     C_3   0.763343 0.739154 0.645590 0.130090
C54   C     C_3   0.851474 0.718231 0.585598 -0.366323
C55   C     C_3   0.974024 0.738756 0.620998 -0.930358
C56   C     C_R   0.554474 0.252156 0.543900 0.405505
C57   C     C_3   0.232111 0.276787 0.428490 0.112119
C58   C     C_3   0.141159 0.206004 0.396308 -0.369564
C59   C     C_3   0.020830 0.237726 0.404417 -0.940508
C60   C     C_R   0.447240 0.840372 0.465237 0.174452
C61   C     C_R   0.561048 0.162074 0.537763 0.184396
C62   C     C_R   0.544308 0.889056 0.505356 0.055851
Cu1   Cu    Cu3+1 0.494550 0.415220 0.496180 0.995807
Cu2   Cu    Cu3+1 0.505450 0.584780 0.503820 1.007553
H1    H     H_    0.467374 0.384023 0.735466 0.240801
H2    H     H_    0.775022 0.716035 0.093947 0.177051
H3    H     H_    0.669717 0.695432 0.010079 0.276745
H4    H     H_    0.634895 0.759379 0.101487 0.248229
H5    H     H_    0.337479 0.331769 0.979003 0.222027
H6    H     H_    0.262881 0.320429 0.062762 0.105421
H7    H     H_    0.360505 0.165330 0.046266 0.244632
H8    H     H_    0.229829 0.183955 0.990968 0.197950
H9    H     H_    0.364380 0.187938 0.947375 0.238782
H10   H     H_    0.366370 0.670822 0.994316 0.197541
H11   H     H_    0.322542 0.709422 0.904666 0.112641
H12   H     H_    0.517987 0.615526 0.259875 0.191959
H13   H     H_    0.473252 0.838976 0.956030 0.239620
H14   H     H_    0.336772 0.832390 0.999198 0.195285
H15   H     H_    0.464636 0.801683 0.049999 0.250215
H16   H     H_    0.386558 0.215927 0.261246 0.186404
H17   H     H_    0.402598 0.225546 0.165211 0.167972
H18   H     H_    0.231460 0.311422 0.278059 0.239312
H19   H     H_    0.243120 0.345865 0.186708 0.171879
H20   H     H_    0.156444 0.217491 0.114353 0.251734
H21   H     H_    0.085915 0.222268 0.206291 0.250571
H22   H     H_    0.206584 0.152428 0.189172 0.247881
H23   H     H_    0.617780 0.404799 0.952683 0.155624
H24   H     H_    0.506611 0.793704 0.733561 0.161920
H25   H     H_    0.491158 0.777646 0.829528 0.179879
H26   H     H_    0.323111 0.725821 0.681430 0.233453
H27   H     H_    0.294355 0.690909 0.772917 0.196035
H28   H     H_    0.299438 0.842928 0.837399 0.259863
H29   H     H_    0.194510 0.822345 0.754815 0.262762
H30   H     H_    0.329396 0.878374 0.745527 0.249584
H31   H     H_    0.737296 0.374258 0.602332 0.160366
H32   H     H_    0.758532 0.262424 0.596734 0.145221
H33   H     H_    0.838579 0.319418 0.723150 0.205501
H34   H     H_    0.636874 0.367735 0.852013 0.123236
H35   H     H_    0.735268 0.399710 0.736381 0.221108
H36   H     H_    0.693405 0.289087 0.743800 0.264559
H37   H     H_    0.374218 0.643494 0.331498 0.153219
H38   H     H_    0.340550 0.752023 0.328172 0.153788
H39   H     H_    0.162856 0.687545 0.275119 0.196961
H40   H     H_    0.188856 0.587050 0.314094 0.205947
H41   H     H_    0.137164 0.677380 0.377617 0.264668
H42   H     H_    0.484977 0.058730 0.628585 0.141422
H43   H     H_    0.510125 0.165157 0.679880 0.143051
H44   H     H_    0.664439 0.128075 0.760887 0.213487
H45   H     H_    0.680704 0.247530 0.907293 0.185623
H46   H     H_    0.568727 0.032806 0.749282 0.191798
H47   H     H_    0.692487 0.036217 0.693370 0.304147
H48   H     H_    0.321630 0.962041 0.525211 0.142502
H49   H     H_    0.252054 0.856823 0.515638 0.139250
H50   H     H_    0.121404 0.883548 0.410463 0.229476
H51   H     H_    0.128800 0.979288 0.481203 0.186582
H52   H     H_    0.204017 0.976769 0.393725 0.298720
H53   H     H_    0.763873 0.985749 0.536663 0.198279
H54   H     H_    0.822218 0.883705 0.521306 0.111726
H55   H     H_    0.893322 0.928754 0.676238 0.249946
H56   H     H_    0.585792 0.267356 0.984082 0.280014
H57   H     H_    0.971717 0.962783 0.598413 0.206065
H58   H     H_    0.878323 0.033133 0.650121 0.238785
H59   H     H_    0.445740 0.997044 0.327939 0.191231
H60   H     H_    0.451233 0.088566 0.277431 0.095902
H61   H     H_    0.216667 0.038809 0.256773 0.252771
H62   H     H_    0.320999 0.001735 0.188434 0.201756
H63   H     H_    0.276572 0.937492 0.262228 0.243802
H64   H     H_    0.780920 0.699127 0.692542 0.152940
H65   H     H_    0.774062 0.803977 0.677844 0.181778
H66   H     H_    0.842969 0.649697 0.565664 0.239100
H67   H     H_    0.528968 0.223887 0.885190 0.250857
H68   H     H_    0.835658 0.750317 0.533440 0.201942
H69   H     H_    0.989828 0.807604 0.641443 0.260477
H70   H     H_    0.034397 0.719578 0.575937 0.269516
H71   H     H_    0.991085 0.703020 0.671067 0.251994
H72   H     H_    0.197817 0.337129 0.414822 0.175270
H73   H     H_    0.244194 0.281276 0.493637 0.123354
H74   H     H_    0.151585 0.183863 0.333533 0.261174
H75   H     H_    0.151322 0.151387 0.429433 0.229773
H76   H     H_    0.008546 0.260121 0.467058 0.258307
H77   H     H_    0.955214 0.185888 0.381675 0.261935
H78   H     H_    0.656524 0.566286 0.061961 0.141012
H79   H     H_    0.008146 0.291446 0.370243 0.257993
H80   H     H_    0.686369 0.618237 0.162370 0.120116
N1    N     N_2   0.445775 0.466776 0.010578 -0.190387
N2    N     N_2   0.455763 0.535098 0.982751 -0.169604
N3    N     N_R   0.513630 0.712130 0.509560 -0.272369
N4    N     N_R   0.486370 0.287870 0.490440 -0.283559
N5    N     N_2   0.559322 0.980726 0.510804 -0.147483
N6    N     N_2   0.495576 0.015635 0.465401 -0.152745
O1    O     O_R   0.494910 0.420530 0.382500 -0.498665
O2    O     O_3   0.518577 0.624443 0.113955 -0.558808
O3    O     O_3   0.442848 0.319226 0.079433 -0.581688
O4    O     O_3   0.494808 0.680160 0.916465 -0.577105
O5    O     O_3   0.464471 0.328097 0.248033 -0.583000
O6    O     O_3   0.523071 0.670971 0.750550 -0.567776
O7    O     O_3   0.590806 0.301107 0.614648 -0.554830
O8    O     O_3   0.332512 0.707247 0.438438 -0.542376
O9    O     O_3   0.624861 0.128920 0.595550 -0.552923
O10   O     O_3   0.360531 0.878742 0.427573 -0.557321
O11   O     O_3   0.699852 0.897378 0.604990 -0.584771
O12   O     O_R   0.505090 0.579470 0.617500 -0.493851
O13   O     O_3   0.345222 0.096227 0.371845 -0.575371
O14   O     O_3   0.649917 0.715038 0.614834 -0.544880
O15   O     O_3   0.334767 0.269093 0.390156 -0.585071
O16   O     O_R   0.504100 0.563720 0.388950 -0.612907
O17   O     O_R   0.495900 0.436280 0.611050 -0.546560
O18   O     O_R   0.332600 0.428410 0.496780 -0.600589
O19   O     O_R   0.667400 0.571590 0.503220 -0.560441
O20   O     O_R   0.341800 0.571600 0.503230 -0.516710
O21   O     O_R   0.658200 0.428400 0.496770 -0.588555
O22   O     O_3   0.466662 0.372117 0.881080 -0.571408

loop_
_geom_bond_atom_site_label_1
_geom_bond_atom_site_label_2
_ccdc_geom_bond_type
C58   H75   S    
C2    N6    S    
C7    O18   A    
C45   C60   A    
C27   O2    S    
C5    N3    A    
C62   N5    S    
C23   O5    S    
C51   H59   S    
C39   H28   S    
C37   H24   S    
C28   H2    S    
C35   C36   S    
C50   H58   S    
C12   O17   A    
C30   H7    S    
C53   C54   S    
C29   C30   S    
C1    O16   A    
C29   O3    S    
C19   C21   A    
C26   H56   S    
C61   O9    S    
C38   C39   S    
C44   H43   S    
C57   O15   S    
C47   H48   S    
C25   H23   S    
C27   H78   S    
C18   C20   A    
C60   C62   A    
C43   H41   S    
Cu2   O19   S    
C43   H40   S    
C39   H29   S    
Cu2   O16   S    
C17   C19   A    
C32   H13   S    
C31   H11   S    
C35   H18   S    
C49   H53   S    
C47   C48   S    
C44   C46   S    
C2    C61   A    
C46   H44   S    
C41   H35   S    
C57   H72   S    
C51   O13   S    
C15   C34   A    
C49   O11   S    
C8    O21   A    
C48   H52   S    
C58   H74   S    
Cu1   O17   S    
C6    O15   S    
C59   H79   S    
C16   H12   S    
C46   H47   S    
C51   H60   S    
C37   O6    S    
C42   O8    S    
C50   H57   S    
C40   H32   S    
C18   O2    S    
C42   H38   S    
C52   H63   S    
C24   O4    S    
N1    N2    D    
C29   H5    S    
C47   O10   S    
C54   H66   S    
C4    O13   S    
C51   C52   S    
C5    O14   S    
C40   O7    S    
C28   H3    S    
C19   O22   S    
Cu2   O12   S    
C30   H9    S    
C35   H19   S    
C31   H10   S    
C36   H22   S    
C25   C26   S    
C55   H69   S    
C32   H14   S    
C38   H27   S    
C24   C34   A    
C50   H55   S    
C14   C23   A    
C56   N4    A    
C2    C4    A    
C39   H30   S    
C37   C38   S    
C53   H64   S    
C56   O7    S    
C6    N4    A    
Cu1   O21   S    
C31   C32   S    
C12   C15   S    
C27   H80   S    
C41   H36   S    
C57   H73   S    
C53   O14   S    
C16   C18   A    
C9    C11   T    
C26   H45   S    
Cu1   O1    S    
C48   H51   S    
C25   O22   S    
C4    C6    A    
C40   C41   S    
C20   C22   A    
C44   H42   S    
C46   H46   S    
Cu2   N3    S    
C14   C16   A    
C21   C24   A    
C53   H65   S    
C42   C43   S    
C40   H31   S    
C42   H37   S    
Cu1   N4    S    
C31   O4    S    
C8    O19   A    
C48   H50   S    
C29   H6    S    
C3    C62   A    
C47   H49   S    
C54   C55   S    
Cu1   O18   S    
C52   H62   S    
C28   H4    S    
C45   N3    A    
C45   O8    S    
C60   O10   S    
C3    C5    A    
C10   C13   T    
C30   H8    S    
C52   H61   S    
C33   O5    S    
C33   H16   S    
C15   C17   A    
C34   O6    S    
C36   H21   S    
C55   H70   S    
C54   H68   S    
C38   H26   S    
C17   H1    S    
C37   H25   S    
C20   N1    S    
C21   N2    S    
C58   C59   S    
N5    N6    D    
C32   H15   S    
C11   C13   S    
C57   C58   S    
C59   H76   S    
C36   H20   S    
C55   H71   S    
C33   C35   S    
C1    O1    A    
C41   H33   S    
Cu2   O20   S    
C43   H39   S    
C3    O11   S    
C12   O12   A    
Cu1   Cu2   S    
C49   H54   S    
C7    C9    S    
C25   H34   S    
C59   H77   S    
C8    C10   S    
C49   C50   S    
C7    O20   A    
C27   C28   S    
C44   O9    S    
C22   C23   A    
C1    C14   S    
C33   H17   S    
C26   H67   S    
C22   O3    S    
C56   C61   A    
