data_mof_unit_2905.cif
_audit_creation_date              2012-12-11T15:13:39-0500
_audit_creation_method            fapswitch 2.2
_symmetry_space_group_name_H-M    P1
_symmetry_Int_Tables_number       1
_space_group_crystal_system       triclinic
_cell_length_a                    6.954837
_cell_length_b                    13.830646
_cell_length_c                    20.041848
_cell_angle_alpha                 104.089137
_cell_angle_beta                  91.347715
_cell_angle_gamma                 90.064863
_cell_volume                      1869.26670724

loop_
_atom_site_label
_atom_site_type_symbol
_atom_type_description
_atom_site_fract_x
_atom_site_fract_y
_atom_site_fract_z
_atom_type_partial_charge
O1    O     O_R   0.506780 0.600060 0.449950 -0.534449
O2    O     O_R   0.179840 0.597110 0.589410 -0.531328
O3    O     O_R   0.004570 0.399940 0.550050 -0.537186
C1    C     C_R   0.349551 0.615673 0.617601 0.789993
O4    O     O_R   0.177380 0.612160 0.452890 -0.543653
O5    O     O_R   0.002100 0.415100 0.412560 -0.551159
C2    C     C_R   0.343467 0.635009 0.434054 0.891797
O6    O     O_R   0.509250 0.584900 0.587440 -0.543885
O7    O     O_3   0.337570 0.435330 0.486930 -0.396612
V1    V     V_3+5 0.064650 0.512000 0.502430 1.520787
O8    O     O_R   0.672090 0.402890 0.410590 -0.548074
C3    C     C_R   0.837824 0.388062 0.381174 0.733602
O9    O     O_R   0.674540 0.387840 0.547110 -0.560026
C4    C     C_R   0.844828 0.362641 0.563974 0.833962
V2    V     V_3+5 0.564040 0.488000 0.497570 1.472114
O10   O     O_3   0.840990 0.564670 0.513070 -0.372750
C5    C     C_R   0.908147 0.118390 0.610141 -0.203295
H1    H     H_    0.849413 0.993781 0.685996 0.151968
H2    H     H_    0.938318 0.041515 0.584672 0.180991
C6    C     C_R   0.858617 0.288236 0.604151 -0.229613
C7    C     C_R   0.871253 0.317048 0.935500 0.587913
C8    C     C_R   0.889488 0.393049 0.901598 0.418885
C9    C     C_R   0.884671 0.370329 0.829569 -0.294349
C10   C     C_R   0.858021 0.271474 0.789871 -0.014297
C11   C     C_R   0.845952 0.193671 0.825150 -0.120984
C12   C     C_R   0.853784 0.246598 0.716121 0.023904
C13   C     C_R   0.874779 0.145373 0.680739 -0.072591
C14   C     C_R   0.855145 0.070729 0.715280 -0.149695
C15   C     C_R   0.830316 0.093835 0.786327 0.507319
C16   C     C_R   0.826291 0.316781 0.675257 0.348987
C17   C     C_R   0.904505 0.189888 0.571788 0.376265
C18   C     C_R   0.855643 0.217568 0.898482 -0.291672
H3    H     H_    0.909263 0.431292 0.806291 0.235900
C19   C     C_3   0.695647 0.205818 0.232707 -0.270488
C20   C     C_3   0.836499 0.209557 0.294624 -0.217232
H4    H     H_    0.819460 0.165921 0.333466 0.112019
H5    H     H_    0.562514 0.161130 0.218709 0.226671
C21   C     C_3   0.842212 0.324086 0.308778 -0.116941
C22   C     C_3   0.698715 0.321292 0.247800 -0.176574
C23   C     C_3   0.871451 0.313774 0.199720 0.480399
C24   C     C_3   0.014974 0.320659 0.260697 -0.280680
C25   C     C_3   0.007532 0.205990 0.246746 0.489926
C26   C     C_3   0.868776 0.199030 0.184616 -0.129217
H6    H     H_    0.570170 0.369092 0.248816 0.166200
H7    H     H_    0.143945 0.369915 0.271137 0.138489
C27   C     C_3   0.539966 0.728690 0.730545 -0.381996
C28   C     C_3   0.430915 0.829256 0.749550 0.670579
H8    H     H_    0.690912 0.718754 0.713506 0.154664
C29   C     C_3   0.350273 0.804565 0.814619 -0.241068
C30   C     C_3   0.453822 0.703662 0.795362 0.357122
C31   C     C_3   0.276629 0.656301 0.752794 0.637355
C32   C     C_3   0.170884 0.756340 0.772199 -0.366291
C33   C     C_3   0.251855 0.782557 0.707104 -0.222346
C34   C     C_3   0.358479 0.682269 0.688714 -0.203563
H9    H     H_    0.020182 0.757402 0.787631 0.128778
H10   H     H_    0.170025 0.816850 0.670632 0.172533
C35   C     C_R   0.240309 0.873273 0.385795 0.396720
H11   H     H_    0.243393 0.995557 0.304505 0.193887
C36   C     C_R   0.338973 0.709311 0.393825 -0.323935
C37   C     C_R   0.394710 0.681487 0.063469 -0.295002
C38   C     C_R   0.385017 0.603782 0.096382 0.670674
C39   C     C_R   0.352135 0.623298 0.166815 -0.200393
C40   C     C_R   0.337901 0.722192 0.207034 0.001567
C41   C     C_R   0.342371 0.800859 0.172384 -0.054836
C42   C     C_R   0.322791 0.746969 0.280580 -0.054172
C43   C     C_R   0.270155 0.845945 0.314350 -0.202040
C44   C     C_R   0.268143 0.919636 0.278020 -0.185369
C45   C     C_R   0.336791 0.899760 0.211816 0.458649
C46   C     C_R   0.365646 0.680161 0.322530 0.456454
C47   C     C_R   0.268992 0.803657 0.424568 0.457525
C48   C     C_R   0.366575 0.779904 0.100191 -0.176202
H12   H     H_    0.420750 0.664756 0.008763 0.156356
H13   H     H_    0.333950 0.559482 0.187956 0.210371
O11   O     O_R   0.203580 0.914920 0.912610 -0.571564
O12   O     O_R   0.535710 0.887810 0.047120 -0.541330
O13   O     O_R   0.710730 0.084950 0.087430 -0.537124
C49   C     C_R   0.368354 0.859487 0.062345 0.800409
O14   O     O_R   0.533010 0.902850 0.910600 -0.533364
O15   O     O_R   0.708010 0.100090 0.949930 -0.516165
C50   C     C_R   0.362236 0.878364 0.884048 0.760502
O16   O     O_R   0.206300 0.899780 0.050100 -0.550027
O17   O     O_3   0.375170 0.064580 0.013100 -0.358352
V3    V     V_3+5 0.648200 0.988020 0.997570 1.534937
O18   O     O_R   0.038030 0.112330 0.952840 -0.550340
C51   C     C_R   0.867662 0.140330 0.937804 0.890014
O19   O     O_R   0.040730 0.097300 0.089360 -0.521394
C52   C     C_R   0.873574 0.123488 0.115387 0.748854
V4    V     V_3+5 0.148780 0.012220 0.002360 1.533349
O20   O     O_3   0.871930 0.935430 0.986900 -0.408116
O21   O     O_3   0.954154 0.164923 0.503376 -0.551605
C53   C     C_3   0.802868 0.109578 0.463947 -0.221693
H14   H     H_    0.680488 0.159464 0.459457 0.099518
H15   H     H_    0.754428 0.046196 0.484671 0.142904
H16   H     H_    0.855153 0.076011 0.411738 0.182559
O22   O     O_3   0.891943 0.364331 0.147076 -0.505829
C54   C     C_3   0.877669 0.467889 0.174867 -0.011030
H17   H     H_    0.987412 0.495331 0.216480 0.078385
H18   H     H_    0.730765 0.488375 0.193880 0.146198
H19   H     H_    0.904507 0.506507 0.133476 0.195778
O23   O     O_3   0.172836 0.147534 0.248482 -0.542909
C55   C     C_3   0.273358 0.184819 0.311924 -0.234856
H20   H     H_    0.182928 0.182306 0.356541 0.149198
H21   H     H_    0.329235 0.261492 0.316710 0.146417
H22   H     H_    0.401293 0.138253 0.314671 0.149019
F1    F     F_    0.498031 0.920782 0.744436 -0.665200
O24   O     O_3   0.533813 0.655668 0.843992 -0.548036
C56   C     C_3   0.732236 0.674348 0.851647 -0.206978
H23   H     H_    0.807946 0.631419 0.805704 0.185968
H24   H     H_    0.785601 0.648916 0.896883 0.197353
H25   H     H_    0.765361 0.755124 0.862157 0.114852
F2    F     F_    0.193730 0.565977 0.754350 -0.719445
F3    F     F_    0.230636 0.828637 0.492819 -0.675584
O25   O     O_3   0.178311 0.967876 0.417710 -0.531278
C57   C     C_3   0.339854 0.025435 0.447455 -0.176246
H26   H     H_    0.452890 0.024407 0.408902 0.067014
H27   H     H_    0.399370 0.999687 0.492090 0.180600
H28   H     H_    0.295561 0.104040 0.466520 0.186892
F4    F     F_    0.440445 0.588529 0.296546 -0.737056
F5    F     F_    0.406394 0.508333 0.059687 -0.651000
O26   O     O_3   0.442775 0.972854 0.193087 -0.545986
C58   C     C_3   0.635593 0.963317 0.215327 -0.224498
H29   H     H_    0.688318 0.885008 0.201643 0.130825
H30   H     H_    0.652115 0.994733 0.271785 0.122056
H31   H     H_    0.732258 0.004580 0.189379 0.152937
O27   O     O_3   0.762873 0.412591 0.702515 -0.563224
C59   C     C_3   0.562687 0.409339 0.711231 -0.163109
H32   H     H_    0.484463 0.378861 0.661439 0.130317
H33   H     H_    0.513520 0.486482 0.731681 0.218081
H34   H     H_    0.525123 0.365971 0.749167 0.151320
F6    F     F_    0.877079 0.340225 0.005309 -0.617205
O28   O     O_3   0.901080 0.490588 0.940081 -0.526794
C60   C     C_3   0.084296 0.530132 0.932986 -0.175536
H35   H     H_    0.102111 0.542660 0.880824 0.166418
H36   H     H_    0.201586 0.481989 0.945148 0.207022
H37   H     H_    0.097151 0.603986 0.969828 0.151005
O29   O     O_3   0.772400 0.020611 0.817601 -0.527181
C61   C     C_3   0.903366 0.941753 0.805340 -0.160568
H38   H     H_    0.055674 0.967472 0.806490 0.121655
H39   H     H_    0.867409 0.888289 0.755674 0.150476
H40   H     H_    0.887312 0.902535 0.846715 0.160429

loop_
_geom_bond_atom_site_label_1
_geom_bond_atom_site_label_2
_ccdc_geom_bond_type
C40   C42   A    
C59   H32   S    
C8    O28   S    
C38   F5    S    
C19   H5    S    
C24   C25   S    
O22   C54   S    
O15   C51   A    
C35   C43   A    
C1    O6    A    
C57   H26   S    
C28   C29   S    
C6    C16   A    
C33   C34   S    
C32   C33   S    
C61   H39   S    
C12   C13   A    
C55   H20   S    
C41   C45   A    
C14   C15   A    
C10   C12   A    
O5    C3    A    
C21   C22   S    
O14   C50   A    
O24   C56   S    
C37   H12   S    
V2    O10   S    
C54   H19   S    
C46   F4    S    
C19   C20   S    
C41   C48   A    
C20   C25   S    
C58   H31   S    
O8    V2    S    
O14   V3    S    
C23   C26   S    
C20   H4    S    
C60   H35   S    
C28   F1    S    
C54   H18   S    
C59   H33   S    
C56   H23   S    
C39   H13   S    
O1    V2    S    
C35   C47   A    
O7    V1    S    
O17   V4    S    
C32   H9    S    
C28   C33   S    
C29   C32   S    
C11   C18   A    
C43   C44   A    
C16   O27   S    
C55   H21   S    
O11   C50   A    
O9    C4    A    
C56   H24   S    
O13   V3    S    
C2    C36   S    
C7    C18   A    
C11   C15   A    
C57   H28   S    
V3    O20   S    
C61   H40   S    
C27   H8    S    
C19   C22   S    
C5    C13   A    
C4    C6    S    
C20   C21   S    
H1    C14   S    
C10   C11   A    
C21   C24   S    
C53   H14   S    
O4    C2    A    
O19   C52   A    
C35   O25   S    
C37   C48   A    
C9    H3    S    
C44   C45   A    
C37   C38   A    
O2    C1    A    
C39   C40   A    
C25   O23   S    
C53   H15   S    
C49   O16   A    
C9    C10   A    
C17   O21   S    
C54   H17   S    
C27   C34   S    
C30   C31   S    
O18   C51   A    
O12   C49   A    
O13   C52   A    
C58   H29   S    
O3    C4    A    
C47   F3    S    
C36   C46   A    
C23   C24   S    
O17   V3    S    
C55   H22   S    
O9    V2    S    
O27   C59   S    
C5    C17   A    
C56   H25   S    
C25   C26   S    
C23   O22   S    
O28   C60   S    
O2    V1    S    
C48   C49   S    
O26   C58   S    
O25   C57   S    
C33   H10   S    
C27   C28   S    
C31   F2    S    
C1    C34   S    
O1    C2    A    
C19   C26   S    
O18   V4    S    
O29   C61   S    
O5    V1    S    
C57   H27   S    
O8    C3    A    
C12   C16   A    
C22   H6    S    
O6    V2    S    
C61   H38   S    
C27   C30   S    
C59   H34   S    
C29   C50   S    
C31   C34   S    
C26   C52   S    
O7    V2    S    
C31   C32   S    
O3    V1    S    
V1    O10   S    
C45   O26   S    
C53   H16   S    
O15   V3    S    
O12   V3    S    
O21   C53   S    
C60   H37   S    
C42   C46   A    
C18   C51   S    
O23   C55   S    
C5    H2    S    
O19   V4    S    
C42   C43   A    
C3    C21   S    
C38   C39   A    
C7    F6    S    
C58   H30   S    
O16   V4    S    
C36   C47   A    
C40   C41   A    
C22   C23   S    
H11   C44   S    
O4    V1    S    
C15   O29   S    
V4    O20   S    
C60   H36   S    
C29   C30   S    
C13   C14   A    
C30   O24   S    
C24   H7    S    
C8    C9    A    
O11   V4    S    
C7    C8    A    
C6    C17   A    
