data_mof_unit_532.cif
_audit_creation_date              2012-12-10T17:04:27-0500
_audit_creation_method            fapswitch 2.2
_symmetry_space_group_name_H-M    P1
_symmetry_Int_Tables_number       1
_space_group_crystal_system       triclinic
_cell_length_a                    14.899524
_cell_length_b                    10.702735
_cell_length_c                    10.066204
_cell_angle_alpha                 89.804921
_cell_angle_beta                  90.623716
_cell_angle_gamma                 90.744221
_cell_volume                      1604.97477202

loop_
_atom_site_label
_atom_site_type_symbol
_atom_type_description
_atom_site_fract_x
_atom_site_fract_y
_atom_site_fract_z
_atom_type_partial_charge
C1    C     C_R   0.492595 0.263013 0.500107 0.937932
C2    C     C_R   0.185241 0.402997 0.457045 -0.293129
C3    C     C_R   0.232031 0.508876 0.498268 -0.123027
C4    C     C_R   0.327335 0.502826 0.499412 0.877357
C5    C     C_R   0.188602 0.616470 0.542136 0.158387
C6    C     C_2   0.453837 0.927966 0.404660 -0.224301
C7    C     C_2   0.501225 0.869204 0.498527 -0.366596
C8    C     C_2   0.450845 0.063588 0.397338 0.265589
C9    C     C_2   0.476423 0.131230 0.503632 -0.384631
C10   C     C_2   0.554229 0.568392 0.925759 -0.123781
C11   C     C_2   0.563351 0.549442 0.073762 -0.044912
C12   C     C_R   0.906269 0.615670 0.541984 0.107190
C13   C     C_R   0.501173 0.737155 0.499804 0.926821
C14   C     C_R   0.672708 0.500149 0.500627 0.878701
C15   C     C_R   0.812719 0.610045 0.543597 -0.271337
C16   C     C_R   0.767864 0.502349 0.501959 -0.048242
C17   C     C_R   0.812838 0.397575 0.459649 -0.242099
C18   C     C_R   0.905581 0.398519 0.460829 0.108399
C19   C     C_R   0.952946 0.507500 0.501765 0.028968
C20   C     C_3   0.322571 0.104070 0.258170 -0.822929
C21   C     C_3   0.367306 0.388690 0.099640 -0.713827
C22   C     C_3   0.115952 0.101775 0.499071 -0.828633
C23   C     C_R   0.951023 0.291616 0.422269 -0.298221
C24   C     C_3   0.252069 0.739753 0.722598 -0.764447
C25   C     C_3   0.909037 0.845719 0.618744 -0.412001
C26   C     C_3   0.874309 0.916999 0.497319 -0.879077
C27   C     C_R   0.044394 0.290200 0.423789 0.225976
C28   C     C_R   0.092377 0.399356 0.461076 0.097790
C29   C     C_R   0.046630 0.507870 0.501748 -0.042330
C30   C     C_R   0.094585 0.616885 0.541210 0.071352
C31   C     C_R   0.047934 0.724545 0.576756 -0.259700
C32   C     C_R   0.954323 0.725516 0.578676 0.155621
H1    H     H_    0.773209 0.688662 0.574460 0.143979
H2    H     H_    0.084287 0.809542 0.602261 0.180586
H3    H     H_    0.418132 0.874823 0.328365 0.168068
H4    H     H_    0.453685 0.092362 0.195901 0.223787
H5    H     H_    0.300935 0.152397 0.165934 0.239357
H6    H     H_    0.286059 0.143603 0.343273 0.263294
H7    H     H_    0.304147 0.003690 0.247599 0.231708
H8    H     H_    0.378952 0.578553 0.134919 0.242412
H9    H     H_    0.305008 0.395144 0.038669 0.209043
H10   H     H_    0.348741 0.364474 0.202532 0.281483
H11   H     H_    0.408990 0.312461 0.059828 0.220617
H12   H     H_    0.540619 0.915215 0.575384 0.141042
H13   H     H_    0.055822 0.127621 0.315283 0.227079
H14   H     H_    0.055865 0.068887 0.554131 0.248916
H15   H     H_    0.161097 0.154776 0.567651 0.253248
H16   H     H_    0.152618 0.019129 0.462759 0.249449
H17   H     H_    0.296822 0.741177 0.527906 0.220029
H18   H     H_    0.285300 0.831268 0.742905 0.235249
H19   H     H_    0.295293 0.664486 0.762634 0.266731
H20   H     H_    0.186839 0.737125 0.774909 0.235944
H21   H     H_    0.823332 0.860957 0.441731 0.260262
H22   H     H_    0.843014 0.005276 0.529689 0.246964
H23   H     H_    0.484888 0.089316 0.600951 0.131559
H24   H     H_    0.930679 0.940443 0.429932 0.263243
H25   H     H_    0.853972 0.826656 0.689648 0.197853
H26   H     H_    0.957136 0.907963 0.672917 0.198919
H27   H     H_    0.597364 0.637403 0.878543 0.147357
H28   H     H_    0.473939 0.422204 0.893965 0.208658
H29   H     H_    0.625792 0.579396 0.120770 0.126435
H30   H     H_    0.775321 0.315119 0.427817 0.133341
H31   H     H_    0.913916 0.208230 0.392631 0.148462
H32   H     H_    0.222368 0.322972 0.423832 0.170975
N1    N     N_2   0.500970 0.501330 0.852150 -0.188012
N2    N     N_2   0.500990 0.501360 0.147810 -0.028404
N3    N     N_2   0.418472 0.120124 0.278118 -0.276645
N4    N     N_2   0.415345 0.506772 0.095048 -0.240186
N5    N     N_2   0.089329 0.178887 0.387388 -0.317954
N6    N     N_2   0.238853 0.725339 0.580746 -0.321717
O1    O     O_R   0.499990 0.319060 0.613040 -0.628054
O2    O     O_R   0.500010 0.319100 0.386900 -0.579032
O3    O     O_R   0.367830 0.499950 0.613080 -0.609250
O4    O     O_R   0.367860 0.499990 0.386940 -0.635983
O5    O     O_R   0.499990 0.680900 0.613100 -0.614066
O6    O     O_R   0.500010 0.680940 0.386960 -0.620337
O7    O     O_R   0.632140 0.500010 0.613060 -0.614038
O8    O     O_R   0.632170 0.500050 0.386920 -0.622665
Zn1   Zn    Zn3+2 0.499980 0.499970 0.650990 0.937201
Zn2   Zn    Zn3+2 0.500020 0.500030 0.349010 0.946232

loop_
_geom_bond_atom_site_label_1
_geom_bond_atom_site_label_2
_ccdc_geom_bond_type
C24   H20   S    
N2    N4    S    
N1    Zn1   S    
C20   N3    S    
C22   H16   S    
O1    Zn1   S    
H4    N3    S    
C24   N6    S    
C1    O1    A    
C28   C29   A    
C30   C31   A    
O8    Zn2   S    
C15   C16   A    
C6    H3    S    
C18   C19   A    
C14   O7    A    
C21   H11   S    
C13   O5    A    
C8    C9    D    
C12   C15   A    
C9    H23   S    
C23   C27   A    
C22   N5    S    
C4    O4    A    
C27   N5    S    
C11   N2    D    
C25   C32   S    
C23   H31   S    
C22   H15   S    
O4    Zn2   S    
C12   C32   A    
C25   H25   S    
C26   H22   S    
C2    H32   S    
O7    Zn1   S    
C24   H18   S    
C1    O2    A    
H13   N5    S    
C18   C23   A    
C1    C9    S    
C20   H7    S    
C16   C17   A    
C6    C8    S    
C3    C5    A    
C25   C26   S    
C29   C30   A    
C17   H30   S    
C20   H6    S    
C31   C32   A    
C13   O6    A    
C17   C18   A    
O3    Zn1   S    
C31   H2    S    
C7    H12   S    
C4    O3    A    
C21   H9    S    
C22   H14   S    
H28   N1    S    
H17   N6    S    
C21   N4    S    
C14   C16   S    
C25   H26   S    
C3    C4    S    
C19   C29   A    
C26   H21   S    
C5    C30   A    
C10   N1    D    
O6    Zn2   S    
C11   H29   S    
C5    N6    S    
C26   H24   S    
C6    C7    D    
N2    Zn2   S    
C10   H27   S    
O2    Zn2   S    
C20   H5    S    
C24   H19   S    
C12   C19   A    
C2    C3    A    
C14   O8    A    
C10   C11   S    
C21   H10   S    
C7    C13   S    
C8    N3    S    
H8    N4    S    
C27   C28   A    
C2    C28   A    
O5    Zn1   S    
C15   H1    S    
