data_mof_unit_180.cif
_audit_creation_date              2012-12-10T17:05:40-0500
_audit_creation_method            fapswitch 2.2
_symmetry_space_group_name_H-M    P1
_symmetry_Int_Tables_number       1
_space_group_crystal_system       triclinic
_cell_length_a                    15.884919
_cell_length_b                    11.025011
_cell_length_c                    10.03016
_cell_angle_alpha                 110.827478
_cell_angle_beta                  99.274509
_cell_angle_gamma                 92.156663
_cell_volume                      1611.74494193

loop_
_atom_site_label
_atom_site_type_symbol
_atom_type_description
_atom_site_fract_x
_atom_site_fract_y
_atom_site_fract_z
_atom_type_partial_charge
C1    C     C_R   0.493675 0.254549 0.440942 0.858324
C2    C     C_3   0.961337 0.434615 0.603347 -0.060878
C3    C     C_3   0.916378 0.497191 0.496120 0.232809
C4    C     C_3   0.959698 0.639874 0.542240 -0.049591
C5    C     C_3   0.056791 0.637773 0.534103 -0.499569
C6    C     C_1   0.824352 0.498942 0.499641 0.068710
C7    C     C_1   0.175081 0.497638 0.495703 -0.038630
C8    C     C_1   0.250827 0.498721 0.497946 -0.183922
C9    C     C_2   0.485767 0.114716 0.408346 -0.348867
C10   C     C_2   0.507783 0.069073 0.514236 -0.147304
C11   C     C_2   0.514077 0.885332 0.591904 -0.348805
C12   C     C_R   0.340587 0.499563 0.499472 0.817642
C13   C     C_2   0.491391 0.931197 0.486418 -0.149065
C14   C     C_2   0.502902 0.516588 0.080318 0.340460
C15   C     C_2   0.496758 0.483251 0.919116 0.343542
C16   C     C_R   0.506279 0.745458 0.559092 0.854699
C17   C     C_R   0.659402 0.500354 0.500462 0.812113
C18   C     C_3   0.060102 0.446242 0.610591 -0.469311
C19   C     C_3   0.029854 0.405347 0.337135 0.317032
C20   C     C_3   0.930538 0.416197 0.338843 -0.081139
C21   C     C_1   0.749020 0.499901 0.500957 -0.157696
C22   C     C_3   0.082369 0.495909 0.492040 0.229968
Cu1   Cu    Cu3+1 0.514650 0.521810 0.644910 0.930277
Cu2   Cu    Cu3+1 0.485350 0.478190 0.355090 0.930016
H1    H     H_    0.938034 0.329253 0.561226 0.155425
H2    H     H_    0.093641 0.514675 0.719328 0.182493
H3    H     H_    0.541393 0.950915 0.701857 0.147948
N1    N     N_2   0.463320 0.445430 0.137380 -0.155713
N2    N     N_2   0.536720 0.554500 0.862620 -0.154707
O1    O     O_R   0.507820 0.332330 0.577400 -0.595191
O2    O     O_R   0.483070 0.295500 0.332660 -0.583087
O3    O     O_R   0.391820 0.518430 0.622420 -0.591353
O4    O     O_R   0.367070 0.481600 0.377680 -0.573538
O5    O     O_R   0.516930 0.704500 0.667340 -0.580611
O6    O     O_R   0.492180 0.667670 0.422600 -0.597871
O7    O     O_R   0.632930 0.518400 0.622320 -0.573197
O8    O     O_R   0.608180 0.481570 0.377580 -0.584816
N3    N     N_3   0.939524 0.491690 0.748438 -0.594978
H4    H     H_    0.972342 0.584447 0.804963 0.217118
H5    H     H_    0.960601 0.433737 0.807628 0.229731
N4    N     N_3   0.915781 0.710871 0.456626 -0.602964
H6    H     H_    0.935419 0.810480 0.511083 0.221567
H7    H     H_    0.934513 0.685298 0.355828 0.215587
H8    H     H_    0.460267 0.866882 0.378403 0.168031
H9    H     H_    0.538380 0.133568 0.622567 0.169909
H10   H     H_    0.458926 0.048995 0.298237 0.146482
N5    N     N_3   0.444349 0.366160 0.825113 -0.585326
H11   H     H_    0.483246 0.293618 0.782903 0.226170
H12   H     H_    0.399086 0.380386 0.746642 0.261324
N6    N     N_3   0.551408 0.637333 0.173692 -0.580712
H13   H     H_    0.509417 0.705980 0.212526 0.221338
H14   H     H_    0.596062 0.626267 0.255353 0.266568
N7    N     N_3   0.600055 0.653269 0.951090 -0.490349
H15   H     H_    0.656177 0.633068 0.909182 0.243571
H16   H     H_    0.582010 0.739702 0.939729 0.240381
H17   H     H_    0.084921 0.350853 0.599231 0.168472
N8    N     N_3   0.410585 0.333311 0.047687 -0.494905
H18   H     H_    0.438959 0.254135 0.062823 0.241483
H19   H     H_    0.352705 0.338188 0.085200 0.239921
N9    N     N_3   0.052021 0.446957 0.221443 -0.610946
H20   H     H_    0.117415 0.442948 0.218893 0.238041
H21   H     H_    0.037944 0.542070 0.236545 0.189703
N10   N     N_3   0.052523 0.270511 0.304465 -0.587258
H22   H     H_    0.029852 0.227486 0.370825 0.195411
H23   H     H_    0.026251 0.212839 0.196653 0.230436
N11   N     N_3   0.876172 0.290864 0.273400 -0.610458
H24   H     H_    0.882906 0.245502 0.165295 0.231633
H25   H     H_    0.891483 0.227690 0.327983 0.211972
H26   H     H_    0.906617 0.471722 0.269800 0.177432
H27   H     H_    0.094704 0.699633 0.642504 0.170708
H28   H     H_    0.074216 0.683583 0.458755 0.172261
H29   H     H_    0.954433 0.694195 0.657088 0.166049

loop_
_geom_bond_atom_site_label_1
_geom_bond_atom_site_label_2
_ccdc_geom_bond_type
C1    O2    A    
N11   H25   S    
Cu1   Cu2   S    
N10   H23   S    
N7    H15   S    
C5    H27   S    
C5    H28   S    
C17   O7    A    
C18   H17   S    
C19   N9    S    
C2    C18   S    
C7    C22   S    
C11   C13   D    
N4    H6    S    
C2    N3    S    
N6    H14   S    
Cu2   O4    S    
C18   H2    S    
C15   N5    S    
C8    C12   S    
Cu1   O5    S    
C16   O5    A    
Cu1   O3    S    
C3    C6    S    
C19   C20   S    
C2    C3    S    
C3    C4    S    
Cu2   O2    S    
C1    C9    S    
C3    C20   S    
N6    H13   S    
C17   O8    A    
N1    N8    S    
C12   O3    A    
N3    H5    S    
N4    H7    S    
N8    H18   S    
C14   N6    S    
N2    N7    S    
C10   H9    S    
Cu1   N2    S    
C20   N11   S    
C1    O1    A    
N5    H12   S    
C11   H3    S    
C15   N2    D    
C2    H1    S    
C9    H10   S    
N7    H16   S    
C16   O6    A    
N3    H4    S    
C20   H26   S    
N8    H19   S    
Cu2   O6    S    
C7    C8    T    
C4    N4    S    
N10   H22   S    
Cu1   O1    S    
Cu2   N1    S    
C4    H29   S    
C19   C22   S    
N11   H24   S    
N9    H21   S    
Cu1   O7    S    
C9    C10   D    
C13   H8    S    
Cu2   O8    S    
C14   C15   S    
C4    C5    S    
C14   N1    D    
C12   O4    A    
C18   C22   S    
C6    C21   T    
C11   C16   S    
C17   C21   S    
C5    C22   S    
N5    H11   S    
C19   N10   S    
N9    H20   S    
C10   C13   S    
