data_mof_unit_2278.cif
_audit_creation_date              2013-03-05T15:51:27-0500
_audit_creation_method            fapswitch 2.2
_symmetry_space_group_name_H-M    P1
_symmetry_Int_Tables_number       1
_space_group_crystal_system       triclinic
_cell_length_a                    19.181478
_cell_length_b                    10.977112
_cell_length_c                    18.812781
_cell_angle_alpha                 90.00515
_cell_angle_beta                  90.251195
_cell_angle_gamma                 90.002495
_cell_volume                      3961.12901119

loop_
_atom_site_label
_atom_site_type_symbol
_atom_site_description
_atom_site_fract_x
_atom_site_fract_y
_atom_site_fract_z
_atom_type_partial_charge
O1    O     O_R   0.957020 0.451640 0.669920 -0.518053
O2    O     O_R   0.042980 0.451640 0.330080 -0.518114
O3    O     O_R   0.457020 0.951640 0.669920 -0.518047
O4    O     O_R   0.542980 0.951640 0.330080 -0.518115
O5    O     O_R   0.821450 0.543440 0.674610 -0.498392
O6    O     O_R   0.178550 0.543440 0.325390 -0.493951
O7    O     O_R   0.321450 0.043440 0.674610 -0.498395
O8    O     O_R   0.678550 0.043440 0.325390 -0.493950
C1    C     C_R   0.760303 0.534914 0.646667 0.528167
C2    C     C_R   0.238308 0.528996 0.355303 0.534900
C3    C     C_R   0.260303 0.034915 0.646667 0.528162
C4    C     C_R   0.738308 0.028996 0.355303 0.534901
O9    O     O_R   0.715320 0.458650 0.668100 -0.537658
O10   O     O_R   0.284680 0.458650 0.331900 -0.542204
O11   O     O_R   0.215320 0.958650 0.668100 -0.537662
O12   O     O_R   0.784680 0.958650 0.331900 -0.542205
O13   O     O_R   0.737170 0.209590 0.674530 -0.506251
O14   O     O_R   0.262830 0.209590 0.325470 -0.491801
O15   O     O_R   0.237170 0.709590 0.674530 -0.506254
O16   O     O_R   0.762830 0.709590 0.325470 -0.491801
C5    C     C_R   0.773569 0.126815 0.645974 0.542184
C6    C     C_R   0.208869 0.170670 0.361061 0.558829
C7    C     C_R   0.273569 0.626815 0.645974 0.542183
C8    C     C_R   0.708869 0.670670 0.361061 0.558830
O17   O     O_R   0.832710 0.092740 0.669580 -0.520251
O18   O     O_R   0.167290 0.092740 0.330420 -0.516575
O19   O     O_R   0.332710 0.592740 0.669580 -0.520249
O20   O     O_R   0.667290 0.592740 0.330420 -0.516573
O21   O     O_R   0.946290 0.250060 0.676040 -0.507454
O22   O     O_R   0.053710 0.250060 0.323960 -0.521260
O23   O     O_R   0.446290 0.750060 0.676040 -0.507448
O24   O     O_R   0.553710 0.750060 0.323960 -0.521260
C9    C     C_R   0.973072 0.344262 0.648070 0.526826
C10   C     C_R   0.029313 0.347678 0.354013 0.530390
C11   C     C_R   0.473072 0.844262 0.648070 0.526835
C12   C     C_R   0.529313 0.847679 0.354013 0.530386
O25   O     O_R   0.956270 0.452200 0.830470 -0.512337
O26   O     O_R   0.043730 0.452200 0.169530 -0.479383
O27   O     O_R   0.456270 0.952200 0.830470 -0.512302
O28   O     O_R   0.543730 0.952200 0.169530 -0.479359
O29   O     O_R   0.820760 0.543950 0.823440 -0.516214
O30   O     O_R   0.179240 0.543950 0.176560 -0.511417
O31   O     O_R   0.320760 0.043950 0.823440 -0.516219
O32   O     O_R   0.679240 0.043950 0.176560 -0.511406
C13   C     C_R   0.763338 0.525435 0.854699 0.543353
C14   C     C_R   0.239155 0.530880 0.147293 0.535382
C15   C     C_R   0.263334 0.025454 0.854693 0.543341
C16   C     C_R   0.739153 0.030872 0.147290 0.535390
O33   O     O_R   0.714570 0.459210 0.828640 -0.473079
O34   O     O_R   0.285430 0.459210 0.171360 -0.507735
O35   O     O_R   0.214570 0.959210 0.828640 -0.473061
O36   O     O_R   0.785430 0.959210 0.171360 -0.507730
O37   O     O_R   0.736470 0.210100 0.823360 -0.437653
O38   O     O_R   0.263530 0.210100 0.176640 -0.458070
O39   O     O_R   0.236470 0.710100 0.823360 -0.437668
O40   O     O_R   0.763530 0.710100 0.176640 -0.458069
C17   C     C_R   0.771445 0.127651 0.853205 0.550073
C18   C     C_R   0.228101 0.123286 0.148233 0.577910
C19   C     C_R   0.271446 0.627656 0.853206 0.550065
C20   C     C_R   0.728101 0.623281 0.148235 0.577905
O41   O     O_R   0.831960 0.093290 0.830130 -0.537209
O42   O     O_R   0.168040 0.093290 0.169870 -0.520284
O43   O     O_R   0.331960 0.593290 0.830130 -0.537214
O44   O     O_R   0.668040 0.593290 0.169870 -0.520292
O45   O     O_R   0.945600 0.250580 0.824860 -0.516147
O46   O     O_R   0.054400 0.250580 0.175140 -0.526653
O47   O     O_R   0.445600 0.750580 0.824860 -0.516156
O48   O     O_R   0.554400 0.750580 0.175140 -0.526649
C21   C     C_R   0.966372 0.345159 0.855875 0.543889
C22   C     C_R   0.028202 0.346859 0.148088 0.557096
C23   C     C_R   0.466348 0.845163 0.855889 0.543915
C24   C     C_R   0.528198 0.846858 0.148087 0.557051
Cr1   Cr    Cr6+3 0.885860 0.491680 0.749630 1.019927
Cr2   Cr    Cr6+3 0.114140 0.491680 0.250370 1.038349
Cr3   Cr    Cr6+3 0.385860 0.991680 0.749630 1.019953
Cr4   Cr    Cr6+3 0.614140 0.991680 0.250370 1.038371
Cr5   Cr    Cr6+3 0.730490 0.332970 0.748720 1.065170
Cr6   Cr    Cr6+3 0.269510 0.332970 0.251280 1.049411
Cr7   Cr    Cr6+3 0.230490 0.832970 0.748720 1.065157
Cr8   Cr    Cr6+3 0.769510 0.832970 0.251280 1.049416
Cr9   Cr    Cr6+3 0.887570 0.179310 0.750150 0.999407
Cr10  Cr    Cr6+3 0.112430 0.179310 0.249850 1.002182
Cr11  Cr    Cr6+3 0.387570 0.679310 0.750150 0.999410
Cr12  Cr    Cr6+3 0.612430 0.679310 0.249850 1.002180
O49   O     O_3   0.834640 0.334650 0.749500 -0.260420
O50   O     O_3   0.165360 0.334650 0.250500 -0.285464
O51   O     O_3   0.334640 0.834650 0.749500 -0.260428
O52   O     O_3   0.665360 0.834650 0.250500 -0.285466
C25   C     C_R   0.746143 0.057838 0.429372 0.025461
C26   C     C_R   0.243048 0.103891 0.582511 0.012192
C27   C     C_R   0.246143 0.557839 0.429372 0.025462
C28   C     C_R   0.743048 0.603891 0.582511 0.012192
C29   C     C_R   0.707231 0.149050 0.460826 0.028032
C30   C     C_R   0.295309 0.153758 0.540568 -0.002935
C31   C     C_R   0.207232 0.649051 0.460826 0.028032
C32   C     C_R   0.795309 0.653758 0.540568 -0.002935
C33   C     C_R   0.712645 0.166461 0.533319 0.022133
C34   C     C_R   0.283560 0.178029 0.469553 0.005850
C35   C     C_R   0.212646 0.666462 0.533319 0.022134
C36   C     C_R   0.783560 0.678029 0.469553 0.005850
C37   C     C_R   0.784734 0.987707 0.545597 -0.147616
C38   C     C_R   0.163219 0.124325 0.481858 -0.158803
C39   C     C_R   0.284733 0.487706 0.545597 -0.147617
C40   C     C_R   0.663219 0.624325 0.481858 -0.158803
C41   C     C_R   0.783280 0.975012 0.472583 -0.141560
C42   C     C_R   0.174819 0.100482 0.554214 -0.158157
C43   C     C_R   0.283279 0.475011 0.472583 -0.141560
C44   C     C_R   0.674819 0.600482 0.554214 -0.158156
C45   C     C_3   0.710531 0.282465 0.445832 -0.277516
C46   C     C_3   0.367604 0.110840 0.527025 -0.252889
C47   C     C_3   0.210533 0.782466 0.445832 -0.277518
C48   C     C_3   0.867604 0.610840 0.527025 -0.252890
C49   C     C_3   0.716808 0.301611 0.525199 -0.241676
C50   C     C_3   0.354668 0.137941 0.448896 -0.267236
C51   C     C_3   0.216810 0.801612 0.525198 -0.241675
C52   C     C_3   0.854668 0.637941 0.448896 -0.267236
C53   C     C_R   0.752500 0.088224 0.576273 0.018619
C54   C     C_R   0.219204 0.155004 0.437549 0.014420
C55   C     C_R   0.252501 0.588225 0.576272 0.018618
C56   C     C_R   0.719204 0.655004 0.437549 0.014420
H1    H     H_    0.816352 0.925776 0.576938 0.137627
H2    H     H_    0.111884 0.110308 0.459618 0.151279
H3    H     H_    0.316350 0.425775 0.576939 0.137627
H4    H     H_    0.611884 0.610307 0.459618 0.151280
H5    H     H_    0.813351 0.902127 0.449726 0.145394
H6    H     H_    0.132070 0.066298 0.585728 0.129395
H7    H     H_    0.313350 0.402126 0.449726 0.145395
H8    H     H_    0.632070 0.566298 0.585728 0.129396
H9    H     H_    0.160890 0.817846 0.423195 0.151746
H10   H     H_    0.874703 0.512135 0.538261 0.155630
H11   H     H_    0.660887 0.317843 0.423196 0.151745
H12   H     H_    0.374703 0.012135 0.538261 0.155630
H13   H     H_    0.758200 0.309361 0.416226 0.139405
H14   H     H_    0.406396 0.172295 0.552296 0.152906
H15   H     H_    0.258203 0.809361 0.416226 0.139403
H16   H     H_    0.906396 0.672295 0.552296 0.152905
H17   H     H_    0.768320 0.339019 0.541541 0.143443
H18   H     H_    0.386393 0.214974 0.428507 0.126604
H19   H     H_    0.268321 0.839019 0.541541 0.143443
H20   H     H_    0.886393 0.714973 0.428507 0.126604
H21   H     H_    0.670713 0.347922 0.548114 0.151908
H22   H     H_    0.354154 0.054966 0.414944 0.151763
H23   H     H_    0.170715 0.847923 0.548113 0.151909
H24   H     H_    0.854153 0.554966 0.414944 0.151765
C57   C     C_R   0.003295 0.347148 0.428468 -0.038479
C58   C     C_R   0.008273 0.330216 0.578349 -0.042393
C59   C     C_R   0.503295 0.847148 0.428468 -0.038480
C60   C     C_R   0.508273 0.830216 0.578349 -0.042395
C61   C     C_R   0.965516 0.132815 0.422126 -0.089659
C62   C     C_R   0.990002 0.106693 0.567213 -0.078968
C63   C     C_R   0.465515 0.632815 0.422126 -0.089659
C64   C     C_R   0.490002 0.606693 0.567213 -0.078968
C65   C     C_R   0.957565 0.019430 0.454262 -0.125755
C66   C     C_R   0.971285 0.005848 0.526362 -0.135297
C67   C     C_R   0.457565 0.519431 0.454262 -0.125755
C68   C     C_R   0.471285 0.505848 0.526362 -0.135297
C69   C     C_R   0.995235 0.224236 0.536584 0.008365
C70   C     C_R   0.988087 0.235042 0.461829 -0.012467
C71   C     C_R   0.495235 0.724236 0.536584 0.008363
C72   C     C_R   0.488087 0.735042 0.461829 -0.012467
H25   H     H_    0.941566 0.941561 0.422893 0.107112
H26   H     H_    0.967082 0.916949 0.550880 0.101099
H27   H     H_    0.441565 0.441561 0.422893 0.107114
H28   H     H_    0.467081 0.416950 0.550880 0.101100
H29   H     H_    0.953023 0.140021 0.366156 0.134198
H30   H     H_    0.003429 0.090060 0.622196 0.131615
H31   H     H_    0.453023 0.640021 0.366156 0.134197
H32   H     H_    0.503430 0.590059 0.622196 0.131617
C73   C     C_R   0.029104 0.438339 0.544702 0.005744
C74   C     C_R   0.015910 0.453003 0.471644 0.016581
C75   C     C_R   0.529104 0.938339 0.544702 0.005742
C76   C     C_R   0.515910 0.953003 0.471644 0.016581
C77   C     C_R   0.056036 0.537189 0.584553 -0.070103
C78   C     C_R   0.014816 0.574560 0.445114 -0.071523
C79   C     C_R   0.556036 0.037189 0.584554 -0.070102
C80   C     C_R   0.514816 0.074560 0.445114 -0.071523
C81   C     C_R   0.056757 0.654130 0.556491 -0.119675
C82   C     C_R   0.035192 0.673130 0.487001 -0.144865
C83   C     C_R   0.556756 0.154130 0.556491 -0.119674
C84   C     C_R   0.535192 0.173130 0.487001 -0.144866
H33   H     H_    0.993118 0.597616 0.393854 0.148877
H34   H     H_    0.073164 0.525001 0.639049 0.131638
H35   H     H_    0.493119 0.097616 0.393854 0.148877
H36   H     H_    0.573164 0.025001 0.639049 0.131645
H37   H     H_    0.072884 0.730231 0.589196 0.111809
H38   H     H_    0.033439 0.764578 0.465607 0.101712
H39   H     H_    0.572883 0.230231 0.589196 0.111811
H40   H     H_    0.533438 0.264578 0.465607 0.101711
C85   C     C_R   0.749325 0.070464 0.074218 -0.034590
C86   C     C_R   0.259977 0.056829 0.929553 -0.041442
C87   C     C_R   0.249334 0.570494 0.074226 -0.034599
C88   C     C_R   0.759986 0.556783 0.929563 -0.041432
C89   C     C_R   0.787787 0.994626 0.030194 -0.004301
C90   C     C_R   0.197206 0.039248 0.962143 0.082485
C91   C     C_R   0.287807 0.494669 0.030203 -0.004306
C92   C     C_R   0.697215 0.539194 0.962153 0.082451
C93   C     C_R   0.787911 0.006699 0.957834 -0.039503
C94   C     C_R   0.190032 0.047223 0.033924 0.026909
C95   C     C_R   0.287932 0.506745 0.957844 -0.039493
C96   C     C_R   0.690039 0.547170 0.033932 0.026874
C97   C     C_R   0.704562 0.171780 0.967722 0.181579
C98   C     C_R   0.313485 0.079174 0.048129 0.158521
C99   C     C_R   0.204572 0.671818 0.967731 0.181534
C100  C     C_R   0.813488 0.579125 0.048140 0.158556
C101  C     C_R   0.709673 0.162614 0.042780 -0.155107
C102  C     C_R   0.320006 0.069994 0.973122 -0.160379
C103  C     C_R   0.209683 0.662655 0.042790 -0.155128
C104  C     C_R   0.820014 0.569938 0.973133 -0.160381
C105  C     C_3   0.786694 0.859838 0.025732 -0.233739
C106  C     C_3   0.129635 0.097285 0.946071 -0.257896
C107  C     C_3   0.286736 0.359880 0.025739 -0.233724
C108  C     C_3   0.629640 0.597208 0.946075 -0.257880
C109  C     C_3   0.787136 0.872730 0.945864 -0.281935
C110  C     C_3   0.120504 0.106963 0.025727 -0.233907
C111  C     C_3   0.287181 0.372776 0.945871 -0.281932
C112  C     C_3   0.620504 0.606884 0.025732 -0.233908
C113  C     C_R   0.747878 0.093980 0.924482 -0.004582
C114  C     C_R   0.246046 0.076078 0.078190 -0.010867
C115  C     C_R   0.247888 0.594009 0.924491 -0.004624
C116  C     C_R   0.746049 0.576047 0.078198 -0.010858
H41   H     H_    0.677135 0.218337 0.076612 0.170218
H42   H     H_    0.371126 0.074012 0.949232 0.171329
H43   H     H_    0.177141 0.718375 0.076623 0.170221
H44   H     H_    0.871137 0.573945 0.949247 0.171281
H45   H     H_    0.737315 0.820996 0.046376 0.124751
H46   H     H_    0.095118 0.030368 0.919625 0.196830
H47   H     H_    0.237361 0.321015 0.046379 0.124781
H48   H     H_    0.595132 0.530280 0.919628 0.196874
H49   H     H_    0.835538 0.822554 0.047960 0.212956
H50   H     H_    0.134937 0.186862 0.918999 0.103309
H51   H     H_    0.335585 0.322619 0.047970 0.212954
H52   H     H_    0.634935 0.686786 0.919004 0.103313
H53   H     H_    0.836194 0.839763 0.921182 0.161614
H54   H     H_    0.120255 0.202645 0.045059 0.125115
H55   H     H_    0.336247 0.339836 0.921193 0.161633
H56   H     H_    0.620245 0.702565 0.045064 0.125138
H57   H     H_    0.738284 0.840489 0.919941 0.126193
H58   H     H_    0.078802 0.047353 0.046610 0.181023
H59   H     H_    0.238336 0.340510 0.919944 0.126195
H60   H     H_    0.578809 0.547260 0.046613 0.181039
C117  C     C_R   0.995218 0.342172 0.079156 0.039211
C118  C     C_R   0.982853 0.332222 0.931074 -0.002523
C119  C     C_R   0.495203 0.842167 0.079156 0.039166
C120  C     C_R   0.482832 0.832229 0.931090 -0.002559
C121  C     C_R   0.002844 0.444764 0.036904 0.084769
C122  C     C_R   0.993449 0.440910 0.965627 -0.024347
C123  C     C_R   0.502823 0.944758 0.036921 0.085002
C124  C     C_R   0.493405 0.940918 0.965620 -0.024152
C125  C     C_R   0.969158 0.224985 0.972849 -0.022385
C126  C     C_R   0.969357 0.234373 0.048440 -0.036266
C127  C     C_R   0.469170 0.724984 0.972855 -0.022427
C128  C     C_R   0.469366 0.734365 0.048440 -0.036278
C129  C     C_3   0.062519 0.531404 0.030468 -0.210242
C130  C     C_3   0.048792 0.531562 0.951580 -0.227186
C131  C     C_3   0.562586 0.031150 0.030462 -0.210476
C132  C     C_3   0.548860 0.031328 0.951593 -0.227511
H61   H     H_    0.112568 0.486472 0.044652 0.117831
H62   H     H_    0.025108 0.617734 0.932138 0.225749
H63   H     H_    0.612579 0.986073 0.044650 0.117780
H64   H     H_    0.525297 0.117568 0.932154 0.225933
H65   H     H_    0.052956 0.620766 0.056260 0.225749
H66   H     H_    0.092501 0.494109 0.919583 0.142127
H67   H     H_    0.553126 0.120539 0.056228 0.225641
H68   H     H_    0.592511 0.993728 0.919591 0.141952
N1    N     N_R   0.650420 0.249700 0.938715 0.076328
O53   O     O_R   0.622551 0.227322 0.876935 -0.355473
O54   O     O_R   0.615115 0.319096 0.981497 -0.405732
N2    N     N_R   0.373913 0.099017 0.091801 0.071830
O55   O     O_R   0.378395 0.049869 0.154597 -0.332281
O56   O     O_R   0.424610 0.167223 0.069232 -0.394952
N3    N     N_R   0.150431 0.749743 0.938722 0.076374
O57   O     O_R   0.122546 0.727338 0.876951 -0.355506
O58   O     O_R   0.115133 0.819158 0.981507 -0.405735
N4    N     N_R   0.873912 0.598965 0.091815 0.071848
O59   O     O_R   0.878394 0.549805 0.154609 -0.332288
O60   O     O_R   0.924590 0.667228 0.069265 -0.395121
C133  C     C_3   0.960774 0.100624 0.939561 -0.358889
H69   H     H_    0.905663 0.084118 0.930132 0.183642
H70   H     H_    0.989771 0.090774 0.889298 0.151759
H71   H     H_    0.980649 0.026873 0.974335 0.132013
C134  C     C_3   0.943641 0.132896 0.096258 -0.367734
H72   H     H_    0.987539 0.083516 0.121516 0.153098
H73   H     H_    0.909953 0.171654 0.138474 0.147643
H74   H     H_    0.911699 0.065567 0.067377 0.147522
C135  C     C_3   0.460796 0.600634 0.939557 -0.358909
H75   H     H_    0.405689 0.584135 0.930102 0.183673
H76   H     H_    0.489811 0.590807 0.889305 0.151741
H77   H     H_    0.480654 0.526871 0.974329 0.132026
C136  C     C_3   0.443655 0.632889 0.096254 -0.367735
H78   H     H_    0.487550 0.583532 0.121524 0.153115
H79   H     H_    0.409956 0.671637 0.138461 0.147632
H80   H     H_    0.411728 0.565546 0.067370 0.147521

loop_
_geom_bond_atom_site_label_1
_geom_bond_atom_site_label_2
_geom_bond_distance
_ccdc_geom_bond_type
O4    C12   1.254940 A    
C69   C70   1.417391 A    
O25   C21   1.282931 A    
C39   H3    1.083787 S    
Cr7   O51   1.997827 S    
C58   C69   1.425261 A    
C134  H74   1.101739 S    
C117  C121  1.386590 A    
O39   C19   1.257471 A    
C108  H52   1.112259 S    
C31   C35   1.380568 A    
C21   C118  1.455200 S    
C34   C50   1.486513 S    
N3    O57   1.300577 A    
O21   C9    1.269840 A    
N4    O59   1.301280 A    
C1    O9    1.269241 A    
O44   Cr12  2.075399 S    
C5    C53   1.434375 S    
C3    O11   1.269241 A    
C86   C102  1.417821 A    
C64   C68   1.393680 A    
C63   C67   1.392406 A    
O2    C10   1.254942 A    
C121  C122  1.352849 A    
O17   Cr9   2.072083 S    
C24   C119  1.441389 S    
C94   C114  1.392943 A    
C97   N1    1.450216 S    
C109  H53   1.111699 S    
O9    Cr5   2.069989 S    
O31   Cr3   1.957488 S    
C8    C56   1.461845 S    
O16   Cr8   1.949521 S    
C45   H13   1.112623 S    
C27   C43   1.410679 A    
C121  C129  1.493506 S    
C105  C109  1.509259 S    
O28   Cr4   2.075231 S    
C65   H25   1.082314 S    
O12   Cr8   2.069791 S    
O41   Cr9   2.075481 S    
O22   Cr10  1.956854 S    
O15   C7    1.266866 A    
O46   Cr10  1.952702 S    
O14   Cr6   1.949521 S    
C95   C115  1.377399 A    
C16   C85   1.455750 S    
C131  H67   1.109688 S    
C77   H34   1.083505 S    
C132  H68   1.112771 S    
C96   C116  1.392937 A    
C49   H17   1.112071 S    
C111  H59   1.112265 S    
C94   C110  1.493559 S    
C74   C78   1.424795 A    
C129  H65   1.109958 S    
C6    C54   1.461843 S    
C57   C74   1.437564 A    
C118  C125  1.440223 A    
Cr12  O52   1.984521 S    
C79   C83   1.388139 A    
C17   O41   1.297118 A    
C19   O43   1.297126 A    
C41   H5    1.076973 S    
C20   O44   1.267045 A    
C37   C53   1.391357 A    
Cr8   O52   1.997828 S    
O46   C22   1.275299 A    
C99   C103  1.418623 A    
C63   H31   1.081754 S    
C125  C133  1.510148 S    
C33   C53   1.403477 A    
C35   C55   1.403475 A    
C92   C108  1.474391 S    
C16   O36   1.268226 A    
C135  H76   1.104415 S    
C67   C68   1.388612 A    
O27   C23   1.282917 A    
C39   C43   1.380784 A    
C127  C135  1.510097 S    
C98   N2    1.434424 S    
O32   C16   1.284543 A    
C103  H43   1.082726 S    
C62   C69   1.416884 A    
C14   C87   1.455747 S    
C40   C56   1.403328 A    
C136  H80   1.101717 S    
C125  C126  1.425804 A    
C95   C111  1.487780 S    
O24   C12   1.299678 A    
C110  H58   1.106840 S    
C23   C120  1.455245 S    
C128  C136  1.515635 S    
C7    C55   1.434376 S    
C129  C130  1.506160 S    
C62   H30   1.080423 S    
O8    Cr4   1.955915 S    
O32   Cr4   1.957529 S    
C61   C65   1.392405 A    
C52   H24   1.112439 S    
C28   C44   1.411191 A    
O11   Cr7   2.069989 S    
O27   Cr3   2.075311 S    
O3    Cr3   2.079148 S    
C61   C70   1.414761 A    
C46   C50   1.518990 S    
C64   C71   1.416883 A    
Cr5   O49   1.997827 S    
C133  H69   1.086338 S    
C106  H46   1.105652 S    
C48   H16   1.109756 S    
C59   C72   1.412477 A    
C1    C28   1.461595 S    
C34   C54   1.394163 A    
C91   C95   1.367743 A    
O22   C10   1.299678 A    
C112  H60   1.106837 S    
C4    O12   1.258857 A    
C61   H29   1.081754 S    
C2    O10   1.258857 A    
C67   H27   1.082313 S    
C82   H38   1.082024 S    
O5    C1    1.286608 A    
C90   C106  1.474407 S    
O3    C11   1.286139 A    
O8    C4    1.284558 A    
C136  H78   1.106813 S    
C87   C103  1.395680 A    
C44   H8    1.081187 S    
C46   H12   1.112195 S    
N1    O54   1.300541 A    
Cr1   O49   1.984025 S    
C99   N3    1.450246 S    
Cr3   O51   1.984025 S    
C126  C134  1.515718 S    
C46   H14   1.109755 S    
C29   C33   1.380567 A    
C48   C52   1.518991 S    
C59   C76   1.437564 A    
O26   Cr2   2.075231 S    
C5    O17   1.272664 A    
O29   C13   1.267266 A    
O28   C24   1.259952 A    
O14   C6    1.307008 A    
C66   H26   1.082558 S    
C8    O20   1.302303 A    
C40   H4    1.079217 S    
C104  H44   1.081353 S    
O40   Cr8   1.949942 S    
C98   C114  1.414479 A    
C15   C86   1.451499 S    
C38   H2    1.079220 S    
C18   C114  1.458508 S    
C90   C94   1.360792 A    
O31   C15   1.267258 A    
C102  H42   1.081342 S    
C132  H64   1.110336 S    
C96   C112  1.493551 S    
O33   Cr5   2.068284 S    
N4    O60   1.300005 A    
C11   C60   1.485882 S    
C50   H18   1.111091 S    
C25   C29   1.383317 A    
C87   C91   1.388729 A    
C9    C58   1.485881 S    
O29   Cr1   1.957488 S    
C85   C89   1.388717 A    
C80   C84   1.393400 A    
C130  H66   1.112959 S    
C133  H71   1.107533 S    
C25   C41   1.410681 A    
C97   C101  1.418605 A    
C48   H10   1.112195 S    
Cr9   O49   1.984600 S    
C76   C80   1.424795 A    
C29   C45   1.492846 S    
C18   O42   1.267063 A    
Cr11  O51   1.984600 S    
O26   C22   1.259917 A    
C120  C127  1.440088 A    
O20   Cr12  2.072250 S    
C36   C52   1.486516 S    
C127  C128  1.425671 A    
O47   Cr11  1.952562 S    
C118  C122  1.373320 A    
C107  H51   1.103091 S    
C100  C116  1.414455 A    
C88   C92   1.367235 A    
C20   C116  1.458520 S    
C22   C117  1.441317 S    
C35   C51   1.493583 S    
C83   H39   1.081809 S    
C30   C34   1.379870 A    
C60   C75   1.404041 A    
C81   H37   1.081808 S    
O30   C14   1.284546 A    
C84   H40   1.082025 S    
C47   H9    1.111503 S    
C85   C101  1.395610 A    
C45   H11   1.111503 S    
C26   C30   1.390721 A    
C78   C82   1.393399 A    
O42   Cr10  2.075399 S    
O18   Cr10  2.072250 S    
C110  H54   1.111483 S    
C105  H45   1.110378 S    
C93   C113  1.377394 A    
O34   Cr6   2.068447 S    
C64   H32   1.080424 S    
O6    Cr2   1.955915 S    
O24   Cr12  1.956854 S    
O30   Cr2   1.957529 S    
O48   Cr12  1.952702 S    
C26   C42   1.411190 A    
O37   C17   1.257483 A    
C15   O35   1.280531 A    
C122  C130  1.479654 S    
Cr10  O50   1.984521 S    
C30   C46   1.487620 S    
C37   H1    1.083788 S    
C120  C124  1.373056 A    
O43   Cr11  2.075481 S    
C60   C71   1.425261 A    
O37   Cr5   1.950124 S    
O21   Cr9   1.956915 S    
C135  H75   1.086307 S    
O39   Cr7   1.950124 S    
C12   C59   1.489034 S    
O45   Cr9   1.952562 S    
C71   C72   1.417391 A    
C13   O33   1.280521 A    
O13   Cr5   1.949354 S    
C106  H50   1.112263 S    
O15   Cr7   1.949354 S    
C119  C123  1.386394 A    
C112  H56   1.111469 S    
O23   C11   1.269840 A    
C134  H73   1.110762 S    
C40   C44   1.402964 A    
C93   C109  1.487775 S    
C117  C126  1.406252 A    
O6    C2    1.284558 A    
C131  H63   1.110612 S    
C42   H6    1.081187 S    
O1    Cr1   2.079148 S    
O19   Cr11  2.072083 S    
C57   C70   1.412476 A    
C47   H15   1.112621 S    
C17   C113  1.464395 S    
O45   C21   1.254944 A    
O47   C23   1.254959 A    
O13   C5    1.266866 A    
C83   C84   1.385254 A    
C108  H48   1.105649 S    
O40   C20   1.285417 A    
N2    O55   1.301283 A    
C81   C82   1.385257 A    
C6    O18   1.302303 A    
C19   C115  1.464391 S    
O36   Cr8   2.068447 S    
C79   H36   1.083505 S    
O38   Cr6   1.949942 S    
C123  C131  1.493097 S    
C80   H35   1.078786 S    
C107  C111  1.509263 S    
C75   C76   1.405710 A    
C73   C74   1.405710 A    
C28   C32   1.390722 A    
C92   C96   1.360786 A    
O1    C9    1.286139 A    
O7    C3    1.286608 A    
C32   C48   1.487622 S    
C50   H22   1.112438 S    
C135  H77   1.107520 S    
C109  H57   1.112258 S    
C10   C57   1.489032 S    
C130  H62   1.110654 S    
C32   C36   1.379869 A    
O23   Cr11  1.956915 S    
C13   C88   1.451501 S    
C108  C112  1.513248 S    
C49   H21   1.108768 S    
C36   C56   1.394163 A    
C7    O19   1.272664 A    
N1    O53   1.300537 A    
Cr4   O52   1.984099 S    
C38   C54   1.403328 A    
O48   C24   1.275327 A    
Cr6   O50   1.997828 S    
C107  H47   1.110381 S    
O5    Cr1   1.956021 S    
C88   C104  1.417824 A    
C78   H33   1.078785 S    
O35   Cr7   2.068284 S    
C37   C41   1.380783 A    
C51   H23   1.108768 S    
O16   C8    1.307007 A    
C4    C25   1.436188 S    
C111  H55   1.111698 S    
O7    Cr3   1.956021 S    
C134  H72   1.106869 S    
C106  C110  1.513250 S    
C75   C79   1.415192 A    
C91   C107  1.482105 S    
C129  H61   1.110818 S    
C89   C105  1.482094 S    
C77   C81   1.388138 A    
C105  H49   1.103077 S    
Cr2   O50   1.984099 S    
C100  C104  1.420744 A    
C133  H70   1.104446 S    
C62   C66   1.393680 A    
C58   C73   1.404041 A    
C33   C49   1.493585 S    
C131  C132  1.505782 S    
O38   C18   1.285395 A    
N3    O58   1.300609 A    
O25   Cr1   2.075311 S    
C73   C77   1.415193 A    
C119  C128  1.406125 A    
N2    O56   1.300032 A    
C39   C55   1.391354 A    
C51   H19   1.112072 S    
O2    Cr2   2.079182 S    
C2    C27   1.436186 S    
C123  C124  1.353338 A    
C124  C132  1.479349 S    
C45   C49   1.512084 S    
C14   O34   1.268231 A    
C99   C115  1.444790 A    
C63   C72   1.414760 A    
C97   C113  1.444735 A    
C31   C47   1.492845 S    
C3    C26   1.461595 S    
C89   C93   1.367770 A    
C101  H41   1.082689 S    
C136  H79   1.110710 S    
C38   C42   1.402965 A    
O10   Cr6   2.069791 S    
O4    Cr4   2.079182 S    
C86   C90   1.367238 A    
C100  N4    1.434385 S    
C68   H28   1.082557 S    
C27   C31   1.383315 A    
C98   C102  1.420736 A    
C47   C51   1.512084 S    
C43   H7    1.076971 S    
C65   C66   1.388611 A    
C52   H20   1.111090 S    
