data_mof_unit_4807.cif
_audit_creation_date              2012-12-11T14:50:38-0500
_audit_creation_method            fapswitch 2.2
_symmetry_space_group_name_H-M    P1
_symmetry_Int_Tables_number       1
_space_group_crystal_system       triclinic
_cell_length_a                    10.893188
_cell_length_b                    10.901453
_cell_length_c                    18.816228
_cell_angle_alpha                 90.385557
_cell_angle_beta                  89.810846
_cell_angle_gamma                 60.300648
_cell_volume                      1940.83149507

loop_
_atom_site_label
_atom_site_type_symbol
_atom_type_description
_atom_site_fract_x
_atom_site_fract_y
_atom_site_fract_z
_atom_type_partial_charge
C1    C     C_R   0.237594 0.645957 0.610172 0.565805
C2    C     C_3   0.662654 0.556640 0.800300 -0.250508
C3    C     C_3   0.699358 0.674570 0.811933 0.047211
C4    C     C_3   0.669319 0.648070 0.676382 0.044916
C5    C     C_3   0.818951 0.624290 0.690381 -0.234551
C6    C     C_3   0.646076 0.540041 0.720347 -0.214235
C7    C     C_R   0.789862 0.136143 0.708009 -0.154412
C8    C     C_R   0.807534 0.116490 0.781432 -0.146134
C9    C     C_R   0.688495 0.162438 0.826056 0.021218
C10   C     C_R   0.553001 0.235289 0.797454 -0.148522
C11   C     C_R   0.536133 0.249751 0.725007 -0.146965
C12   C     C_R   0.653620 0.622399 0.601034 0.540297
C13   C     C_R   0.653539 0.198299 0.679454 0.017481
C14   C     C_R   0.182043 0.556636 0.721308 0.200762
C15   C     C_R   0.174951 0.560983 0.795820 -0.152737
C16   C     C_R   0.176811 0.671372 0.833681 -0.005572
C17   C     C_R   0.197635 0.771069 0.797467 -0.168504
C18   C     C_R   0.204867 0.767756 0.724414 -0.197605
C19   C     C_R   0.198275 0.660793 0.685436 0.066496
C20   C     C_R   0.729746 0.525919 0.271614 -0.122710
C21   C     C_R   0.728086 0.538483 0.198821 -0.129696
C22   C     C_R   0.650526 0.671276 0.167714 0.029616
C23   C     C_R   0.625728 0.232895 0.604423 0.534367
C24   C     C_R   0.561823 0.789293 0.210274 -0.128514
C25   C     C_R   0.559227 0.775348 0.283905 -0.132630
C26   C     C_R   0.647596 0.644136 0.315030 0.034859
C27   C     C_R   0.542554 0.159746 0.287419 -0.136383
C28   C     C_R   0.542259 0.155478 0.214602 -0.137979
C29   C     C_R   0.651002 0.158311 0.176298 0.038901
C30   C     C_R   0.756786 0.171989 0.211631 -0.145157
C31   C     C_R   0.756025 0.178148 0.284970 -0.146544
C32   C     C_R   0.646733 0.175771 0.322990 0.037805
C33   C     C_R   0.088164 0.803434 0.305151 -0.135768
C34   C     C_R   0.218957 0.649584 0.402466 0.549172
C35   C     C_R   0.069406 0.815606 0.233027 -0.121536
C36   C     C_R   0.107344 0.695165 0.190621 0.039100
C37   C     C_R   0.152043 0.564134 0.221696 -0.138525
C38   C     C_R   0.173109 0.551346 0.294416 -0.127414
C39   C     C_R   0.148986 0.670077 0.335312 0.032621
C40   C     C_R   0.702113 0.103340 0.896595 0.540922
C41   C     C_R   0.723853 0.688281 0.887937 0.542951
C42   C     C_R   0.118503 0.706100 0.905534 0.547345
C43   C     C_R   0.674345 0.108088 0.103904 0.546490
C44   C     C_R   0.693918 0.689863 0.097083 0.547158
C45   C     C_R   0.640257 0.619967 0.390655 0.549535
C46   C     C_R   0.082755 0.715271 0.115461 0.552943
C47   C     C_R   0.617955 0.227653 0.395168 0.546189
C48   C     C_3   0.577652 0.815250 0.781506 -0.228777
C49   C     C_3   0.559954 0.799419 0.701488 -0.241151
C50   C     C_3   0.837226 0.637757 0.770282 -0.217641
Cr1   Cr    Cr6+3 0.392930 0.397900 0.502230 1.046559
Cr2   Cr    Cr6+3 0.398240 0.708600 0.501260 1.011032
Cr3   Cr    Cr6+3 0.708800 0.393470 0.496460 1.013835
Cr4   Cr    Cr6+3 0.937620 0.938540 0.007640 1.009398
Cr5   Cr    Cr6+3 0.625150 0.937450 0.994520 1.008336
Cr6   Cr    Cr6+3 0.937990 0.625080 0.001190 1.010574
H1    H     H_    0.601313 0.902669 0.789781 0.150759
H2    H     H_    0.724055 0.430164 0.703892 0.148222
H3    H     H_    0.925462 0.535661 0.789134 0.135684
H4    H     H_    0.900351 0.517315 0.671734 0.174195
H5    H     H_    0.881590 0.100069 0.673689 0.123241
H6    H     H_    0.913397 0.058363 0.802624 0.133572
H7    H     H_    0.459716 0.272338 0.830806 0.128578
H8    H     H_    0.430156 0.302358 0.704550 0.183544
H9    H     H_    0.159010 0.483435 0.823801 0.108257
H10   H     H_    0.199529 0.857577 0.825158 0.136726
H11   H     H_    0.476556 0.844866 0.809694 0.122556
H12   H     H_    0.217899 0.849091 0.698645 0.134310
H13   H     H_    0.795573 0.422390 0.293774 0.131940
H14   H     H_    0.796271 0.445486 0.167268 0.125654
H15   H     H_    0.501298 0.893108 0.187297 0.126949
H16   H     H_    0.491440 0.866840 0.316413 0.119148
H17   H     H_    0.456578 0.157725 0.315510 0.126003
H18   H     H_    0.460313 0.143115 0.188713 0.124243
H19   H     H_    0.842854 0.172352 0.182795 0.114879
H20   H     H_    0.837677 0.189676 0.311670 0.115232
H21   H     H_    0.066073 0.896292 0.336272 0.126134
H22   H     H_    0.450578 0.820835 0.691730 0.139307
H23   H     H_    0.027656 0.919645 0.210426 0.138392
H24   H     H_    0.175935 0.471797 0.189736 0.120442
H25   H     H_    0.218990 0.447050 0.317346 0.135023
H26   H     H_    0.574742 0.878758 0.671366 0.123913
H27   H     H_    0.866714 0.720804 0.779687 0.130226
H28   H     H_    0.835917 0.702849 0.660830 0.128105
H29   H     H_    0.747426 0.454959 0.821829 0.132045
H30   H     H_    0.562628 0.583092 0.828740 0.120469
H31   H     H_    0.538826 0.555034 0.710188 0.127319
O1    O     O_R   0.507430 0.255570 0.581420 -0.509879
O2    O     O_R   0.524460 0.695920 0.424060 -0.499686
O3    O     O_R   0.736530 0.504260 0.414810 -0.524273
O4    O     O_R   0.691460 0.277160 0.422180 -0.509392
O5    O     O_3   0.499990 0.499990 0.499980 -0.256800
O6    O     O_R   0.089490 0.825610 0.930610 -0.523029
O7    O     O_R   0.818370 0.054540 0.929880 -0.505835
O8    O     O_R   0.605870 0.077310 0.915530 -0.527020
O9    O     O_R   0.646440 0.806700 0.917570 -0.508878
O10   O     O_R   0.837200 0.593290 0.915250 -0.529184
O11   O     O_R   0.065330 0.635370 0.931590 -0.508544
O12   O     O_R   0.280190 0.527390 0.578910 -0.443199
O13   O     O_R   0.068300 0.828790 0.091860 -0.529039
O14   O     O_R   0.798730 0.057480 0.079370 -0.511306
O15   O     O_R   0.584680 0.080480 0.076790 -0.527744
O16   O     O_R   0.626790 0.809640 0.067050 -0.504036
O17   O     O_R   0.816010 0.596460 0.076500 -0.521398
O18   O     O_R   0.045680 0.638310 0.081070 -0.502487
O19   O     O_3   0.833590 0.833690 0.001120 -0.246455
O20   O     O_R   0.260310 0.739740 0.584580 -0.549052
O21   O     O_R   0.532250 0.695150 0.573830 -0.509413
O22   O     O_R   0.744930 0.503430 0.576380 -0.521747
O23   O     O_R   0.699250 0.276390 0.571950 -0.508370
O24   O     O_R   0.499020 0.256400 0.419850 -0.528921
O25   O     O_R   0.272400 0.528160 0.429140 -0.508880
O26   O     O_R   0.251910 0.740570 0.423020 -0.520627
O27   O     O_3   0.170738 0.454131 0.683018 -0.714497
H32   H     H_    0.161551 0.389142 0.716456 0.300906

loop_
_geom_bond_atom_site_label_1
_geom_bond_atom_site_label_2
_ccdc_geom_bond_type
Cr3   O23   S    
Cr1   O25   S    
C42   O6    A    
C34   O25   A    
C6    H2    S    
Cr4   O14   S    
C35   C36   A    
Cr6   O11   S    
C28   H18   S    
C1    O12   A    
O27   H32   S    
C44   O17   A    
C7    C8    A    
Cr2   O26   S    
C34   O26   A    
Cr5   O15   S    
C17   H10   S    
C33   C39   A    
C50   H3    S    
C36   C37   A    
C37   C38   A    
C42   O11   A    
C38   C39   A    
C41   O9    A    
C18   H12   S    
C15   C16   A    
C15   H9    S    
C46   O18   A    
Cr5   O16   S    
C3    C48   S    
C49   H22   S    
C13   C23   S    
C2    H29   S    
C18   C19   A    
C7    H5    S    
Cr4   O6    S    
C26   C45   S    
C3    C50   S    
C22   C44   S    
C10   H7    S    
Cr2   O20   S    
C8    C9    A    
Cr3   O4    S    
C36   C46   S    
C4    C12   S    
C45   O2    A    
C9    C10   A    
C21   C22   A    
C29   C43   S    
Cr4   O13   S    
Cr2   O2    S    
C2    C6    S    
Cr6   O10   S    
C12   O22   A    
C44   O16   A    
C50   H27   S    
Cr1   O12   S    
C37   H24   S    
C1    C19   S    
Cr4   O19   S    
Cr5   O19   S    
C34   C39   S    
C48   H1    S    
C24   C25   A    
Cr6   O17   S    
Cr5   O8    S    
C11   H8    S    
C12   O21   A    
C5    H28   S    
C16   C17   A    
C25   C26   A    
C14   O27   S    
C9    C40   S    
C6    H31   S    
C49   H26   S    
C43   O14   A    
C29   C30   A    
Cr1   O5    S    
C31   C32   A    
C7    C13   A    
Cr3   O5    S    
C17   C18   A    
C25   H16   S    
C45   O3    A    
Cr6   O19   S    
C1    O20   A    
C4    C6    S    
C48   C49   S    
C23   O1    A    
C38   H25   S    
C32   C47   S    
C41   O10   A    
C20   H13   S    
Cr2   O5    S    
C40   O8    A    
C16   C42   S    
C27   C28   A    
Cr3   O22   S    
C23   O23   A    
C46   O13   A    
C28   C29   A    
Cr1   O24   S    
C5    H4    S    
C27   C32   A    
C47   O4    A    
C14   C19   A    
C40   O7    A    
Cr5   O9    S    
Cr1   O1    S    
C21   H14   S    
C4    C49   S    
C2    C3    S    
C43   O15   A    
C30   H19   S    
C11   C13   A    
C33   H21   S    
C31   H20   S    
C30   C31   A    
C20   C26   A    
C47   O24   A    
C35   H23   S    
C33   C35   A    
C2    H30   S    
C22   C24   A    
C48   H11   S    
C5    C50   S    
Cr6   O18   S    
Cr4   O7    S    
C3    C41   S    
C10   C11   A    
C4    C5    S    
C20   C21   A    
Cr2   O21   S    
Cr3   O3    S    
C14   C15   A    
C27   H17   S    
C24   H15   S    
C8    H6    S    
