data_mof_unit_2514.cif
_audit_creation_date              2012-12-10T19:10:04-0500
_audit_creation_method            fapswitch 2.2
_symmetry_space_group_name_H-M    P1
_symmetry_Int_Tables_number       1
_space_group_crystal_system       triclinic
_cell_length_a                    11.019722
_cell_length_b                    10.940399
_cell_length_c                    9.676741
_cell_angle_alpha                 91.525659
_cell_angle_beta                  90.91865
_cell_angle_gamma                 90.748781
_cell_volume                      1165.95964508

loop_
_atom_site_label
_atom_site_type_symbol
_atom_type_description
_atom_site_fract_x
_atom_site_fract_y
_atom_site_fract_z
_atom_type_partial_charge
C1    C     C_R   0.504541 0.263030 0.498779 0.834441
C2    C     C_R   0.205693 0.582093 0.985585 0.534164
C3    C     C_R   0.933956 0.550903 0.394698 0.510609
C4    C     C_R   0.871895 0.503583 0.506604 -0.146675
C5    C     C_R   0.940223 0.459106 0.619518 0.038948
C6    C     C_R   0.066998 0.458836 0.614785 -0.166086
C7    C     C_R   0.128285 0.499343 0.498757 -0.171280
C8    C     C_R   0.059885 0.542011 0.386392 -0.082731
C9    C     C_R   0.890241 0.492815 0.867287 0.586570
C10   C     C_R   0.838531 0.448318 0.989410 -0.244450
C11   C     C_R   0.779746 0.334751 0.989945 -0.262776
C12   C     C_R   0.262486 0.498419 0.499082 0.783566
C13   C     C_R   0.771927 0.261871 0.870064 -0.216840
C14   C     C_R   0.826787 0.300345 0.748141 0.461107
C15   C     C_R   0.883812 0.416511 0.747216 -0.037916
C16   C     C_R   0.520378 0.068198 0.622078 0.044691
C17   C     C_R   0.514651 0.130031 0.497668 -0.099730
C18   C     C_R   0.505887 0.061368 0.373870 -0.288808
C19   C     C_R   0.489253 0.934923 0.375331 0.573470
C20   C     C_R   0.492555 0.872270 0.501092 -0.135609
C21   C     C_R   0.506213 0.941351 0.624447 -0.065895
C22   C     C_3   0.414957 0.957152 0.737428 0.424456
C23   C     C_R   0.494929 0.737646 0.501041 0.814997
C24   C     C_3   0.442327 0.091009 0.743088 -0.444548
C25   C     C_R   0.513422 0.606360 0.076094 0.138622
C26   C     C_R   0.473505 0.396469 0.068968 0.548884
C27   C     C_R   0.475704 0.397469 0.921609 -0.116700
C28   C     C_R   0.508168 0.606711 0.929646 0.166097
C29   C     C_3   0.606564 0.697859 0.920819 0.370907
C30   C     C_3   0.621989 0.689847 0.076687 -0.517223
C31   C     C_R   0.737554 0.501217 0.501858 0.881048
C32   C     C_R   0.222847 0.677620 0.086677 -0.283768
C33   C     C_R   0.175791 0.665471 0.218682 -0.122151
C34   C     C_R   0.113908 0.557799 0.251234 0.176910
C35   C     C_R   0.104605 0.460562 0.154983 -0.273079
C36   C     C_R   0.151659 0.472412 0.023942 -0.186712
Cu1   Cu    Cu3+1 0.499990 0.499980 0.640670 1.024379
Cu2   Cu    Cu3+1 0.500010 0.500020 0.359330 1.027750
H1    H     H_    0.739113 0.303435 0.084028 0.200358
H2    H     H_    0.722587 0.175898 0.872525 0.149571
H3    H     H_    0.504008 0.105431 0.275736 0.225176
H4    H     H_    0.437575 0.915559 0.836940 0.052946
H5    H     H_    0.361870 0.148261 0.721261 0.214681
H6    H     H_    0.497132 0.118163 0.836503 0.146111
H7    H     H_    0.269341 0.762193 0.064056 0.166333
H8    H     H_    0.458514 0.314139 0.864199 0.149402
H9    H     H_    0.576327 0.787906 0.886769 0.065613
H10   H     H_    0.704355 0.642785 0.111738 0.243172
H11   H     H_    0.608432 0.778863 0.129985 0.239472
H12   H     H_    0.186243 0.739640 0.294515 0.165197
H13   H     H_    0.058904 0.376090 0.180854 0.151200
H14   H     H_    0.140466 0.397638 0.949183 0.126800
H15   H     H_    0.117758 0.423067 0.701082 0.180996
H16   H     H_    0.842758 0.498569 0.085542 0.210585
N1    N     N_R   0.500790 0.500930 0.147930 -0.217114
N2    N     N_R   0.500790 0.500890 0.852020 -0.160755
O1    O     O_R   0.500000 0.319640 0.618810 -0.602610
O2    O     O_R   0.500010 0.319680 0.381230 -0.541470
O3    O     O_R   0.319640 0.499990 0.618790 -0.548342
O4    O     O_R   0.319650 0.500030 0.381210 -0.583907
O5    O     O_R   0.499990 0.680320 0.618770 -0.581938
O6    O     O_R   0.500000 0.680360 0.381190 -0.522975
O7    O     O_R   0.680350 0.499970 0.618790 -0.523194
O8    O     O_R   0.680360 0.500010 0.381210 -0.547401
O9    O     O_3   0.237346 0.588787 0.848136 -0.604017
C37   C     C_3   0.243861 0.709084 0.802044 -0.099016
H17   H     H_    0.329234 0.751212 0.840610 0.130006
H18   H     H_    0.164877 0.764466 0.832506 0.168375
H19   H     H_    0.245139 0.707410 0.687649 0.214405
O10   O     O_3   0.817283 0.231787 0.625476 -0.599597
C38   C     C_3   0.859248 0.111956 0.644422 -0.307907
H20   H     H_    0.788846 0.054612 0.693193 0.168466
H21   H     H_    0.945945 0.110916 0.705300 0.165461
H22   H     H_    0.877164 0.069817 0.541357 0.203155
F1    F     F_    0.459320 0.876386 0.254326 -0.709211
F2    F     F_    0.297410 0.935493 0.689155 -0.699437
O11   O     O_3   0.459532 0.285150 0.130184 -0.584403
C39   C     C_3   0.337011 0.246715 0.119289 -0.348285
H23   H     H_    0.282010 0.299450 0.194283 0.201357
H24   H     H_    0.330248 0.149319 0.147243 0.197766
H25   H     H_    0.298798 0.252109 0.012566 0.134569
F3    F     F_    0.698822 0.651829 0.842179 -0.637892
F4    F     F_    0.872233 0.609371 0.294467 -0.727277
O12   O     O_3   0.948208 0.607147 0.855226 -0.559029
C40   C     C_3   0.938453 0.689608 0.969612 -0.195095
H26   H     H_    0.966773 0.650138 0.067513 0.189547
H27   H     H_    0.848285 0.729464 0.978617 0.214920
H28   H     H_    0.998984 0.769134 0.954132 0.146591

loop_
_geom_bond_atom_site_label_1
_geom_bond_atom_site_label_2
_ccdc_geom_bond_type
C37   H18   S    
C16   C21   A    
C32   H7    S    
C35   C36   A    
C22   F2    S    
C2    O9    S    
C26   N1    A    
C28   N2    A    
C7    C8    A    
O11   C39   S    
C25   C28   A    
C26   C27   A    
Cu1   Cu2   S    
C29   H9    S    
C30   H10   S    
C28   C29   S    
C34   C35   A    
C5    C6    A    
C39   H24   S    
C37   H19   S    
C2    C32   A    
C18   C19   A    
C13   H2    S    
Cu2   O2    S    
Cu1   N2    S    
C23   O6    A    
Cu2   N1    S    
C19   C20   A    
C16   C17   A    
O10   C38   S    
C9    C10   A    
C36   H14   S    
C37   H17   S    
C16   C24   S    
C21   C22   S    
C14   O10   S    
Cu1   O7    S    
C33   C34   A    
Cu2   O8    S    
C40   H27   S    
C7    C12   S    
C26   O11   S    
C31   O7    A    
O12   C40   S    
C3    C8    A    
C18   H3    S    
C38   H21   S    
C27   N2    A    
C33   H12   S    
C40   H26   S    
C29   C30   S    
C1    O1    A    
C20   C23   S    
C17   C18   A    
C8    C34   S    
C11   H1    S    
Cu1   O3    S    
Cu2   O4    S    
C27   H8    S    
C30   H11   S    
C35   H13   S    
C24   H6    S    
C22   C24   S    
C6    H15   S    
C3    C4    A    
C40   H28   S    
C2    C36   A    
C25   C30   S    
C39   H23   S    
C31   O8    A    
C25   N1    A    
C4    C5    A    
C38   H22   S    
Cu1   O5    S    
C6    C7    A    
C1    C17   S    
C32   C33   A    
C19   F1    S    
C9    C15   A    
C29   F3    S    
C1    O2    A    
C3    F4    S    
C11   C13   A    
C39   H25   S    
C22   H4    S    
C12   O3    A    
C10   H16   S    
C5    C15   S    
C4    C31   S    
C10   C11   A    
C9    O12   S    
C12   O4    A    
C23   O5    A    
C38   H20   S    
C20   C21   A    
O9    C37   S    
C24   H5    S    
C14   C15   A    
C13   C14   A    
Cu1   O1    S    
Cu2   O6    S    
