data_mof_unit_6.cif
_audit_creation_date              2013-03-05T16:13:07-0500
_audit_creation_method            fapswitch 2.2
_symmetry_space_group_name_H-M    P1
_symmetry_Int_Tables_number       1
_space_group_crystal_system       triclinic
_cell_length_a                    24.949291
_cell_length_b                    7.054011
_cell_length_c                    22.606019
_cell_angle_alpha                 90.036873
_cell_angle_beta                  96.274104
_cell_angle_gamma                 89.946334
_cell_volume                      3954.65976066

loop_
_atom_site_label
_atom_site_type_symbol
_atom_site_description
_atom_site_fract_x
_atom_site_fract_y
_atom_site_fract_z
_atom_type_partial_charge
O1    O     O_R   0.551910 0.505710 0.449140 -0.585912
O2    O     O_R   0.448090 0.005710 0.550860 -0.585938
O3    O     O_R   0.442510 0.174130 0.436530 -0.579295
O4    O     O_R   0.557490 0.674130 0.563470 -0.581609
C1    C     C_R   0.423690 0.344664 0.421303 0.977094
C2    C     C_R   0.576308 0.844623 0.578700 0.972268
O5    O     O_R   0.551150 0.175880 0.442070 -0.558511
O6    O     O_R   0.448850 0.675880 0.557930 -0.556906
O7    O     O_R   0.557510 0.007410 0.556440 -0.594600
O8    O     O_R   0.442490 0.507410 0.443560 -0.594977
C3    C     C_R   0.567837 0.344444 0.427487 0.971735
C4    C     C_R   0.431809 0.844660 0.572114 0.972239
O9    O     O_3   0.501960 0.339800 0.537520 -0.251990
O10   O     O_3   0.498040 0.839800 0.462480 -0.251444
V1    V     V_3+5 0.499640 0.064240 0.493040 1.241825
V2    V     V_3+5 0.500360 0.564240 0.506960 1.241238
C5    C     C_R   0.170630 0.096958 0.822561 -0.152086
C6    C     C_R   0.828829 0.595987 0.177270 -0.153533
H1    H     H_    0.185767 0.226694 0.804880 0.105036
H2    H     H_    0.813176 0.725407 0.194707 0.113189
C7    C     C_R   0.130984 0.107063 0.861995 -0.164504
C8    C     C_R   0.868593 0.606847 0.137942 -0.167506
H3    H     H_    0.116510 0.245307 0.873777 0.129975
H4    H     H_    0.882671 0.745335 0.126000 0.130056
C9    C     C_R   0.110501 0.940878 0.885925 -0.127763
C10   C     C_R   0.889596 0.440959 0.114202 -0.127154
C11   C     C_R   0.130958 0.764614 0.869213 -0.164389
C12   C     C_R   0.869684 0.264358 0.131118 -0.160938
H5    H     H_    0.116482 0.633550 0.886631 0.132440
H6    H     H_    0.884573 0.133458 0.113910 0.132627
C13   C     C_R   0.170563 0.754977 0.829813 -0.151963
C14   C     C_R   0.830023 0.253973 0.170358 -0.160083
H7    H     H_    0.185643 0.617695 0.817804 0.104784
H8    H     H_    0.815354 0.116257 0.182325 0.105814
C15   C     C_R   0.190576 0.920891 0.806223 0.184570
C16   C     C_R   0.809340 0.419432 0.193656 0.195877
C17   C     C_1   0.231671 0.909605 0.765632 -0.093534
C18   C     C_1   0.767524 0.406363 0.233320 -0.115141
C19   C     C_1   0.266240 0.896814 0.732063 -0.034568
C20   C     C_1   0.731935 0.388941 0.265514 -0.047704
C21   C     C_R   0.314209 0.020026 0.650855 -0.179374
C22   C     C_R   0.684707 0.508717 0.346190 -0.188219
H9    H     H_    0.287498 0.141705 0.647836 0.127129
H10   H     H_    0.712580 0.627061 0.349496 0.128839
C23   C     C_R   0.354146 0.007509 0.612245 -0.119092
C24   C     C_R   0.645298 0.501342 0.385398 -0.128689
H11   H     H_    0.356536 0.118565 0.579581 0.162805
H12   H     H_    0.644340 0.612475 0.418355 0.157670
C25   C     C_R   0.390257 0.853973 0.615089 -0.301152
C26   C     C_R   0.608175 0.352078 0.383080 -0.282607
C27   C     C_R   0.385274 0.709991 0.658031 0.319095
C28   C     C_R   0.610773 0.209149 0.339258 0.298823
C29   C     C_R   0.343273 0.718442 0.695775 -0.009347
C30   C     C_R   0.651728 0.211601 0.299728 -0.023885
C31   C     C_R   0.308219 0.877205 0.692518 0.093169
C32   C     C_R   0.689044 0.366378 0.303664 0.125272
C33   C     C_3   0.740756 0.831038 0.820361 -0.001147
C34   C     C_3   0.259265 0.330590 0.179658 -0.002353
C35   C     C_3   0.776204 0.104620 0.764414 -0.442245
C36   C     C_3   0.223745 0.604623 0.235555 -0.442242
C37   C     C_3   0.727389 0.088426 0.715627 -0.400784
C38   C     C_3   0.272556 0.588522 0.284355 -0.400974
H13   H     H_    0.658017 0.907877 0.784114 0.153348
H14   H     H_    0.341975 0.407442 0.215893 0.154202
H15   H     H_    0.730724 0.936614 0.854160 0.114202
H16   H     H_    0.269266 0.435908 0.145829 0.114388
H17   H     H_    0.811247 0.166070 0.744618 0.168797
H18   H     H_    0.188683 0.666317 0.255333 0.168814
H19   H     H_    0.766007 0.203814 0.799670 0.153714
H20   H     H_    0.233921 0.703580 0.200285 0.153793
H21   H     H_    0.694376 0.183323 0.727090 0.163679
H22   H     H_    0.305545 0.683255 0.272888 0.164183
H23   H     H_    0.739572 0.137850 0.672310 0.159146
H24   H     H_    0.260350 0.638199 0.327663 0.159138
C39   C     C_1   0.621678 0.854830 0.624787 -0.244080
C40   C     C_1   0.378322 0.354949 0.375221 -0.240946
C41   C     C_3   0.791418 0.908240 0.792446 0.360042
C42   C     C_3   0.208583 0.408141 0.207555 0.360252
C43   C     C_3   0.691351 0.817184 0.771153 -0.424280
C44   C     C_3   0.308675 0.316887 0.228868 -0.422398
C45   C     C_3   0.706919 0.881045 0.709669 0.389082
C46   C     C_3   0.293081 0.381103 0.290339 0.388025
C47   C     C_3   0.754161 0.753862 0.693915 -0.405400
C48   C     C_3   0.245873 0.254153 0.306107 -0.405841
C49   C     C_3   0.804123 0.774758 0.741090 -0.388359
C50   C     C_3   0.195906 0.274994 0.258931 -0.388104
C51   C     C_1   0.659870 0.865894 0.663038 -0.078136
C52   C     C_1   0.340129 0.366015 0.336972 -0.077118
C53   C     C_1   0.839337 0.928534 0.837878 -0.103153
C54   C     C_1   0.160664 0.428382 0.162119 -0.103073
C55   C     C_1   0.877987 0.941906 0.875439 -0.277248
C56   C     C_1   0.122014 0.441771 0.124558 -0.277236
H25   H     H_    0.817058 0.632898 0.758695 0.151445
H26   H     H_    0.183001 0.133092 0.241349 0.151424
H27   H     H_    0.838442 0.833218 0.719308 0.160371
H28   H     H_    0.161575 0.333719 0.280706 0.160365
H29   H     H_    0.741142 0.602888 0.691511 0.157002
H30   H     H_    0.258933 0.103147 0.308525 0.157142
H31   H     H_    0.675309 0.670045 0.767010 0.166568
H32   H     H_    0.324773 0.169738 0.233034 0.167166
H33   H     H_    0.765590 0.793094 0.649302 0.156091
H34   H     H_    0.234435 0.293634 0.350716 0.156071
O11   O     O_R   0.057480 0.291690 0.056480 -0.586368
O12   O     O_R   0.942520 0.791690 0.943520 -0.586268
O13   O     O_R   0.948840 0.619880 0.057940 -0.596192
O14   O     O_R   0.051160 0.119880 0.942060 -0.596333
C57   C     C_R   0.931409 0.451033 0.071674 0.911451
C58   C     C_R   0.068626 0.950888 0.928380 0.911828
O15   O     O_R   0.057480 0.621520 0.063480 -0.586840
O16   O     O_R   0.942520 0.121520 0.936520 -0.586847
O17   O     O_R   0.051910 0.789880 0.949130 -0.592602
O18   O     O_R   0.948090 0.289880 0.050870 -0.592687
C59   C     C_R   0.076313 0.452610 0.078950 0.972662
C60   C     C_R   0.923687 0.952653 0.921050 0.972624
O19   O     O_3   0.998020 0.455790 0.962510 -0.276598
O20   O     O_3   0.001980 0.955790 0.037490 -0.276699
V3    V     V_3+5 0.000370 0.731410 0.006960 1.145593
V4    V     V_3+5 0.999630 0.231410 0.993040 1.145490
C61   C     C_3   0.751338 0.638784 0.852986 -0.426584
C62   C     C_3   0.707886 0.592802 0.893979 -0.252698
C63   C     C_3   0.718715 0.401722 0.924675 -0.915746
H35   H     H_    0.717770 0.286330 0.891132 0.250629
H36   H     H_    0.758674 0.402497 0.951716 0.262535
H37   H     H_    0.687166 0.373272 0.954556 0.254108
H38   H     H_    0.707469 0.704792 0.928553 0.197641
H39   H     H_    0.667439 0.588238 0.868057 0.206306
H40   H     H_    0.752903 0.523505 0.819815 0.195969
H41   H     H_    0.790874 0.641747 0.880792 0.200229
C64   C     C_3   0.248742 0.138148 0.147090 -0.426675
C65   C     C_3   0.292202 0.091772 0.106101 -0.252154
C66   C     C_3   0.281471 0.900410 0.075517 -0.916104
H42   H     H_    0.282518 0.785324 0.109126 0.250742
H43   H     H_    0.241495 0.900912 0.048512 0.262620
H44   H     H_    0.313013 0.871708 0.045619 0.253747
H45   H     H_    0.292543 0.203448 0.071463 0.197549
H46   H     H_    0.332660 0.087437 0.132005 0.206755
H47   H     H_    0.247223 0.023099 0.180297 0.196044
H48   H     H_    0.209199 0.141032 0.119292 0.200255
N1    N     N_R   0.424799 0.562086 0.666081 0.232574
O21   O     O_R   0.473795 0.601706 0.688370 -0.413392
O22   O     O_R   0.413864 0.394232 0.644254 -0.421584
N2    N     N_R   0.569765 0.065690 0.332535 0.230370
O23   O     O_R   0.520164 0.112132 0.314619 -0.410376
O24   O     O_R   0.580831 0.892900 0.349854 -0.418459
C67   C     C_3   0.336439 0.560418 0.739976 -0.409534
C68   C     C_3   0.365408 0.608252 0.801440 -0.213904
C69   C     C_3   0.356937 0.452660 0.846356 -0.914070
H49   H     H_    0.313324 0.436828 0.851196 0.256929
H50   H     H_    0.372998 0.315471 0.831717 0.270453
H51   H     H_    0.378490 0.490404 0.890364 0.251577
H52   H     H_    0.409326 0.624293 0.798270 0.224526
H53   H     H_    0.349840 0.744198 0.817692 0.199153
H54   H     H_    0.292872 0.535534 0.743287 0.182538
H55   H     H_    0.351989 0.423884 0.724433 0.229090
C70   C     C_3   0.650982 0.045342 0.255618 -0.353968
C71   C     C_3   0.693356 0.035320 0.211430 -0.303304
C72   C     C_3   0.685637 0.858470 0.172420 -0.916806
H56   H     H_    0.688969 0.728647 0.200310 0.271785
H57   H     H_    0.645495 0.861188 0.145796 0.269919
H58   H     H_    0.717247 0.853594 0.141464 0.249801
H59   H     H_    0.689459 0.160664 0.181559 0.222634
H60   H     H_    0.734284 0.027747 0.236176 0.207385
H61   H     H_    0.655062 0.912515 0.282151 0.220849
H62   H     H_    0.610637 0.043386 0.229249 0.215940

loop_
_geom_bond_atom_site_label_1
_geom_bond_atom_site_label_2
_geom_bond_distance
_ccdc_geom_bond_type
C18   C20   1.214380 T    
C72   H56   1.110052 S    
C11   H5    1.082775 S    
C48   H34   1.112815 S    
C57   O18   1.314474 A    
C33   C43   1.570593 S    
C65   H45   1.111759 S    
O1    C3    1.316250 A    
C66   H44   1.110333 S    
O2    C4    1.315547 A    
C35   C41   1.553122 S    
C2    O7    1.319067 A    
C4    C25   1.497591 S    
O15   V3    1.965930 S    
C2    C39   1.454024 S    
H13   C43   1.113017 S    
C42   C54   1.495383 S    
O5    C3    1.314255 A    
O13   C57   1.317221 A    
C36   C42   1.553134 S    
C14   C16   1.401211 A    
C43   H31   1.112960 S    
C71   C72   1.527396 S    
O11   C59   1.309740 A    
C48   C50   1.556386 S    
C64   C65   1.536182 S    
C62   H39   1.110654 S    
C34   C64   1.552700 S    
O20   V3    1.725043 S    
C36   C38   1.555386 S    
C22   C24   1.394871 A    
C23   H11   1.083022 S    
C21   C31   1.398807 A    
C63   H37   1.110321 S    
C7    C9    1.410807 A    
C50   H26   1.111635 S    
C66   H43   1.111033 S    
C35   H17   1.113111 S    
C49   H25   1.111629 S    
C34   H16   1.114358 S    
C19   C31   1.455829 S    
C64   H48   1.110425 S    
C69   H49   1.111161 S    
C12   H6    1.082770 S    
C20   C32   1.454789 S    
C26   C28   1.419413 A    
C13   H7    1.083667 S    
O10   V2    2.186862 S    
C36   H20   1.110283 S    
C53   C55   1.216887 T    
C56   C59   1.453230 S    
O16   C60   1.314004 A    
O15   C59   1.313896 A    
C33   C61   1.552699 S    
C67   H54   1.111772 S    
C61   H41   1.110421 S    
C42   C50   1.553484 S    
O5    V1    1.981440 S    
C38   C46   1.550801 S    
C71   H60   1.110666 S    
O6    V2    1.979892 S    
O14   V4    1.980089 S    
H14   C44   1.113021 S    
O13   V3    1.981633 S    
C22   H10   1.084305 S    
C45   C47   1.552516 S    
C28   C30   1.429177 A    
C24   C26   1.400114 A    
C67   C68   1.532042 S    
C24   H12   1.083194 S    
C29   C31   1.417291 A    
C30   C32   1.431924 A    
C35   C37   1.555398 S    
C11   C13   1.402298 A    
C33   C41   1.571141 S    
C12   C14   1.401244 A    
C69   H51   1.110310 S    
C44   C46   1.550690 S    
C30   C70   1.537722 S    
C43   C45   1.550721 S    
C62   H38   1.111767 S    
C25   C27   1.420301 A    
C5    C7    1.403796 A    
C27   C29   1.422989 A    
C14   H8    1.083268 S    
C37   C45   1.550826 S    
O4    V2    1.966533 S    
O2    V1    1.975394 S    
C54   C56   1.216851 T    
C23   C25   1.405150 A    
O6    C4    1.315065 A    
O19   V4    1.725790 S    
C41   C53   1.495439 S    
C29   C67   1.519572 S    
C38   H22   1.113128 S    
O1    V2    1.974541 S    
C49   H27   1.112985 S    
C61   C62   1.536169 S    
C22   C32   1.401902 A    
O16   V4    1.966334 S    
C63   H35   1.110591 S    
C45   C51   1.493382 S    
C50   H28   1.112983 S    
C35   H19   1.110298 S    
C68   H53   1.111527 S    
C67   H55   1.109158 S    
O4    C2    1.323083 A    
C47   C49   1.556411 S    
C71   H59   1.110606 S    
C72   H58   1.110577 S    
C46   C48   1.552528 S    
C7    H3    1.082746 S    
C47   H29   1.113255 S    
C8    H4    1.082721 S    
O11   V4    1.966884 S    
C66   H42   1.110582 S    
N2    O24   1.300578 A    
O3    V1    1.966130 S    
C62   C63   1.526710 S    
C15   C17   1.450853 S    
C68   C69   1.526118 S    
C39   C51   1.217270 T    
C40   C52   1.217209 T    
C47   H33   1.112817 S    
C69   H50   1.111057 S    
C6    C8    1.404820 A    
C65   H46   1.110652 S    
C21   H9    1.083778 S    
C33   H15   1.114364 S    
O3    C1    1.322947 A    
C10   C57   1.495675 S    
C72   H57   1.110797 S    
N1    O21   1.300827 A    
C58   O17   1.314623 A    
C34   C44   1.570571 S    
C70   H62   1.112472 S    
C9    C11   1.410508 A    
O12   V3    1.966700 S    
C10   C12   1.410037 A    
C55   C60   1.453282 S    
O17   V3    1.975294 S    
C37   H23   1.112889 S    
C1    C40   1.453923 S    
O9    V1    2.185809 S    
C65   C66   1.526713 S    
O7    V1    1.961324 S    
C48   H30   1.113257 S    
C1    O8    1.318999 A    
C17   C19   1.212703 T    
C3    C26   1.498169 S    
O8    V2    1.961498 S    
O18   V4    1.974440 S    
N1    O22   1.300104 A    
C37   H21   1.113121 S    
O14   C58   1.317032 A    
C46   C52   1.493286 S    
C13   C15   1.401260 A    
C16   C18   1.451087 S    
C5    H1    1.083513 S    
C6    H2    1.083442 S    
C28   N2    1.435866 S    
C63   H36   1.111040 S    
C34   C42   1.571140 S    
C41   C49   1.553495 S    
C68   H52   1.111722 S    
C64   H47   1.109342 S    
C36   H18   1.113113 S    
C70   H61   1.111400 S    
C8    C10   1.411175 A    
O9    V2    1.726455 S    
C70   C71   1.533312 S    
N2    O23   1.301004 A    
C21   C23   1.397215 A    
O10   V1    1.725707 S    
C38   H24   1.112900 S    
O12   C60   1.309804 A    
C5    C15   1.401781 A    
C6    C16   1.402069 A    
C44   H32   1.112962 S    
C9    C58   1.495495 S    
C61   H40   1.109338 S    
C27   N1    1.432884 S    
