data_mof_unit_1537.cif
_audit_creation_date              2012-12-10T16:47:48-0500
_audit_creation_method            fapswitch 2.2
_symmetry_space_group_name_H-M    P1
_symmetry_Int_Tables_number       1
_space_group_crystal_system       triclinic
_cell_length_a                    7.852545
_cell_length_b                    8.57496
_cell_length_c                    10.430696
_cell_angle_alpha                 91.531601
_cell_angle_beta                  84.664175
_cell_angle_gamma                 93.126838
_cell_volume                      698.103355424

loop_
_atom_site_label
_atom_site_type_symbol
_atom_type_description
_atom_site_fract_x
_atom_site_fract_y
_atom_site_fract_z
_atom_type_partial_charge
C1    C     C_R   0.544641 0.794151 0.493776 0.987400
C2    C     C_2   0.565667 0.957757 0.494164 -0.401845
C3    C     C_2   0.794565 0.349261 0.856607 1.007167
C4    C     C_2   0.315633 0.294792 0.898804 1.025743
C5    C     C_2   0.984297 0.678534 0.593599 1.092888
C6    C     C_2   0.433322 0.042911 0.472989 0.282931
C7    C     C_R   0.494279 0.461614 0.731638 0.908568
C8    C     C_R   0.455064 0.205961 0.495092 0.800805
C9    C     C_R   0.500256 0.501017 0.260469 0.768508
C10   C     C_2   0.603996 0.387182 0.060020 -0.145586
C11   C     C_2   0.502023 0.491230 0.122085 0.356790
C12   C     C_2   0.620453 0.370178 0.920156 -0.118854
C13   C     C_2   0.481359 0.379782 0.854412 -0.213780
H1    H     H_    0.685349 0.318009 0.112608 0.128133
H2    H     H_    0.686869 0.008255 0.522910 0.185778
H3    H     H_    0.343668 0.657147 0.119816 0.354342
H4    H     H_    0.939297 0.252625 0.707765 0.384303
H5    H     H_    0.170042 0.178081 0.038776 0.355705
H6    H     H_    0.211711 0.061430 0.404283 0.376354
H7    H     H_    0.930357 0.281166 0.361608 0.350235
H8    H     H_    0.878708 0.781641 0.755475 0.339993
N1    N     N_2   0.950320 0.457950 0.466680 0.070168
N2    N     N_2   0.049680 0.542050 0.533320 -0.067212
O1    O     O_R   0.389250 0.738570 0.508180 -0.548478
O2    O     O_2   0.918754 0.412569 0.902780 -0.546143
O3    O     O_R   0.816121 0.253477 0.746130 -0.791233
O4    O     O_2   0.208878 0.266754 0.822290 -0.614725
O5    O     O_R   0.286147 0.235513 0.023056 -0.781971
O6    O     O_3   0.287014 0.977622 0.423324 -0.691098
O7    O     O_3   0.024804 0.339342 0.401718 -0.633432
O8    O     O_2   0.999707 0.801372 0.535977 -0.599514
O9    O     O_R   0.917623 0.675952 0.722345 -0.778853
O10   O     O_R   0.678390 0.711630 0.486820 -0.630775
O11   O     O_R   0.355470 0.513470 0.691600 -0.579761
O12   O     O_R   0.644610 0.486520 0.670240 -0.597647
O13   O     O_R   0.321610 0.288370 0.513180 -0.566231
O14   O     O_R   0.610750 0.261430 0.491820 -0.642002
O15   O     O_R   0.355390 0.513480 0.329760 -0.562467
O16   O     O_R   0.644530 0.486530 0.308400 -0.640291
O17   O     O_3   0.404062 0.586092 0.056557 -0.744010
Zn1   Zn    Zn3+2 0.306940 0.517990 0.514260 1.102188
Zn2   Zn    Zn3+2 0.693060 0.482010 0.485740 1.017911

loop_
_geom_bond_atom_site_label_1
_geom_bond_atom_site_label_2
_ccdc_geom_bond_type
C2    H2    S    
N2    Zn1   S    
C7    C13   S    
C5    O9    S    
C4    O4    D    
C1    O10   A    
N1    Zn2   S    
H7    O7    S    
O1    Zn1   S    
C9    C11   S    
O13   Zn1   S    
C2    C6    D    
O11   Zn1   S    
C10   C12   S    
H3    O17   S    
H4    O3    S    
C9    O15   A    
C4    O5    S    
C1    C2    S    
O16   Zn2   S    
C10   C11   D    
C3    O3    S    
C8    O13   A    
C11   O17   S    
H8    O9    S    
C8    O14   A    
O10   Zn2   S    
H6    O6    S    
C3    O2    D    
C6    O6    S    
H5    O5    S    
C12   C13   D    
C1    O1    A    
O15   Zn1   S    
C10   H1    S    
C7    O11   A    
O14   Zn2   S    
O12   Zn2   S    
N1    N2    D    
C6    C8    S    
C3    C12   S    
N1    O7    S    
C7    O12   A    
C9    O16   A    
C4    C13   S    
C5    O8    D    
C5    N2    S    
