data_mof_unit_3827.cif
_audit_creation_date              2012-12-10T21:42:31-0500
_audit_creation_method            fapswitch 2.2
_symmetry_space_group_name_H-M    P1
_symmetry_Int_Tables_number       1
_space_group_crystal_system       triclinic
_cell_length_a                    10.719651
_cell_length_b                    16.087115
_cell_length_c                    16.775915
_cell_angle_alpha                 86.50596
_cell_angle_beta                  89.518451
_cell_angle_gamma                 93.185278
_cell_volume                      2882.93677598

loop_
_atom_site_label
_atom_site_type_symbol
_atom_type_description
_atom_site_fract_x
_atom_site_fract_y
_atom_site_fract_z
_atom_type_partial_charge
C1    C     C_R   0.502530 0.487947 0.653753 0.919887
C2    C     C_R   0.498530 0.512057 0.347135 1.024047
C3    C     C_R   0.127035 0.497888 0.502020 -0.085237
C4    C     C_R   0.872308 0.501556 0.495856 -0.075800
C5    C     C_R   0.053315 0.425901 0.528100 0.013305
C6    C     C_R   0.945518 0.571652 0.464586 0.022551
C7    C     C_R   0.495922 0.478363 0.741467 -0.351396
C8    C     C_R   0.479776 0.520583 0.261899 -0.249493
C9    C     C_R   0.504949 0.549563 0.787120 0.367214
C10   C     C_R   0.549907 0.473228 0.212754 0.341549
C11   C     C_R   0.470760 0.541976 0.866923 -0.252384
C12   C     C_R   0.520181 0.471955 0.132400 -0.369768
C13   C     C_R   0.432037 0.464081 0.903987 0.068231
C14   C     C_R   0.416618 0.513175 0.102185 0.138402
C15   C     C_R   0.428078 0.392930 0.860483 0.365166
C16   C     C_R   0.344664 0.558735 0.151729 0.369004
C17   C     C_R   0.469469 0.398746 0.780640 0.316420
C18   C     C_R   0.382566 0.568411 0.231145 0.255700
C19   C     C_R   0.433639 0.762596 0.466211 -0.022610
C20   C     C_R   0.525556 0.234554 0.553006 0.000910
C21   C     C_R   0.434525 0.849558 0.470098 -0.263282
C22   C     C_R   0.524092 0.147399 0.550513 -0.306175
C23   C     C_R   0.740013 0.500729 0.497645 0.861831
C24   C     C_R   0.259725 0.499172 0.501609 0.892245
C25   C     C_R   0.518671 0.890172 0.521179 0.317735
C26   C     C_R   0.481018 0.109060 0.481689 0.336658
C27   C     C_R   0.598175 0.840929 0.567491 -0.327457
C28   C     C_R   0.441419 0.160695 0.417604 -0.277400
C29   C     C_R   0.596713 0.754491 0.559951 0.041115
C30   C     C_R   0.443253 0.247484 0.423051 0.006380
C31   C     C_R   0.780960 0.700285 0.305180 -0.231479
C32   C     C_R   0.208270 0.243861 0.632386 -0.199403
C33   C     C_R   0.819570 0.631909 0.352056 -0.106157
C34   C     C_R   0.163496 0.323285 0.617878 -0.113452
C35   C     C_R   0.894466 0.644104 0.419140 0.079620
C36   C     C_R   0.102832 0.342930 0.546102 0.088780
C37   C     C_R   0.930701 0.725820 0.438033 -0.282708
C38   C     C_R   0.087573 0.282920 0.489285 -0.276840
C39   C     C_R   0.890880 0.794636 0.391427 0.535483
C40   C     C_R   0.135694 0.203402 0.502303 0.543459
C41   C     C_R   0.816883 0.781379 0.324506 -0.188354
C42   C     C_R   0.193373 0.184199 0.575319 -0.178923
C43   C     C_R   0.073279 0.569773 0.470927 -0.231311
C44   C     C_R   0.925942 0.429837 0.527121 -0.256820
H1    H     H_    0.788699 0.833976 0.286912 0.148608
H2    H     H_    0.228190 0.122868 0.587521 0.158476
H3    H     H_    0.559970 0.263549 0.604995 0.164576
H4    H     H_    0.366700 0.731289 0.428884 0.145947
H5    H     H_    0.556200 0.110921 0.601893 0.154731
H6    H     H_    0.368593 0.884111 0.434711 0.158655
H7    H     H_    0.662729 0.869660 0.608296 0.153286
H8    H     H_    0.409686 0.133707 0.363321 0.134681
H9    H     H_    0.659680 0.717228 0.595009 0.130786
H10   H     H_    0.411948 0.286277 0.373119 0.135195
H11   H     H_    0.725484 0.690236 0.252745 0.153496
H12   H     H_    0.254683 0.228390 0.687933 0.169588
H13   H     H_    0.793667 0.569491 0.334930 0.147689
H14   H     H_    0.175764 0.369148 0.662236 0.123750
H15   H     H_    0.991909 0.736142 0.487966 0.144588
H16   H     H_    0.038490 0.299253 0.435032 0.146232
H17   H     H_    0.131466 0.622814 0.446542 0.173436
H18   H     H_    0.868470 0.375432 0.549185 0.171404
H19   H     H_    0.578361 0.439116 0.093148 0.185893
H20   H     H_    0.481616 0.596899 0.901079 0.210486
N1    N     N_2   0.421075 0.453380 0.987668 -0.133128
N2    N     N_2   0.393867 0.517822 0.019657 -0.131390
N3    N     N_R   0.515300 0.716920 0.509720 -0.089419
N4    N     N_R   0.484700 0.283080 0.490280 -0.086867
N5    N     N_2   0.524926 0.978630 0.529174 -0.198132
N6    N     N_2   0.474513 0.020458 0.474233 -0.184443
O1    O     O_R   0.494530 0.422540 0.612660 -0.581398
O2    O     O_R   0.505470 0.577460 0.387340 -0.614702
O3    O     O_R   0.504350 0.561840 0.618900 -0.599716
O4    O     O_R   0.495650 0.438160 0.381100 -0.602376
O5    O     O_R   0.678330 0.430350 0.496870 -0.625444
O6    O     O_R   0.321670 0.569650 0.503130 -0.618206
O7    O     O_R   0.688150 0.569660 0.503110 -0.631518
O8    O     O_R   0.311850 0.430340 0.496890 -0.619011
Zn1   Zn    Zn3+2 0.493440 0.406980 0.495830 0.973669
Zn2   Zn    Zn3+2 0.506560 0.593020 0.504170 0.963881
O9    O     O_3   0.479506 0.326861 0.740184 -0.630570
C45   C     C_3   0.587228 0.285626 0.765722 0.110523
H21   H     H_    0.579107 0.221948 0.743446 0.152449
H22   H     H_    0.592311 0.276558 0.831908 0.168715
C46   C     C_3   0.708681 0.331030 0.732314 -0.409773
H23   H     H_    0.697062 0.352972 0.668981 0.239372
H24   H     H_    0.731361 0.386529 0.766941 0.208677
C47   C     C_3   0.818019 0.274195 0.737301 -0.965851
H25   H     H_    0.830417 0.249600 0.799853 0.273065
H26   H     H_    0.905075 0.309905 0.716455 0.267361
H27   H     H_    0.801156 0.221144 0.698617 0.266405
O10   O     O_3   0.318344 0.616521 0.282107 -0.649434
C48   C     C_3   0.326001 0.702140 0.255331 0.122138
H28   H     H_    0.270054 0.735541 0.297885 0.149512
H29   H     H_    0.281842 0.713330 0.196453 0.186600
C49   C     C_3   0.460653 0.740803 0.253430 -0.400330
H30   H     H_    0.506772 0.725726 0.310996 0.253060
H31   H     H_    0.514676 0.714721 0.204938 0.209167
C50   C     C_3   0.463187 0.835355 0.238307 -0.945023
H32   H     H_    0.420183 0.851941 0.179883 0.271046
H33   H     H_    0.561401 0.861262 0.237273 0.265157
H34   H     H_    0.411553 0.863797 0.286408 0.262867
O11   O     O_3   0.935573 0.874499 0.405631 -0.653253
C51   C     C_3   0.870482 0.902038 0.471654 0.015388
H35   H     H_    0.874567 0.857148 0.524796 0.138562
H36   H     H_    0.771423 0.910637 0.455334 0.164896
C52   C     C_3   0.930103 0.985861 0.493563 -0.242017
H37   H     H_    0.030796 0.979114 0.506229 0.250651
H38   H     H_    0.921896 0.031964 0.442294 0.243920
C53   C     C_3   0.866992 0.018318 0.566431 -0.973213
H39   H     H_    0.767475 0.028829 0.553910 0.274734
H40   H     H_    0.914382 0.078576 0.580962 0.277083
H41   H     H_    0.873053 0.973163 0.618842 0.259241
O12   O     O_3   0.120645 0.140702 0.448850 -0.669657
C54   C     C_3   0.133119 0.170803 0.367741 0.070825
H42   H     H_    0.190387 0.127109 0.336552 0.162063
H43   H     H_    0.184732 0.232876 0.359249 0.123770
C55   C     C_3   0.005285 0.170791 0.327319 -0.357192
H44   H     H_    0.971302 0.105489 0.318700 0.224421
H45   H     H_    0.935814 0.198920 0.365403 0.228200
C56   C     C_3   0.013414 0.219018 0.246062 -0.943801
H46   H     H_    0.045037 0.285053 0.253123 0.264027
H47   H     H_    0.919930 0.217568 0.218007 0.270989
H48   H     H_    0.079971 0.190502 0.206135 0.264669
O13   O     O_3   0.648088 0.430236 0.244393 -0.767102
H49   H     H_    0.686970 0.399832 0.201808 0.339106
O14   O     O_3   0.551335 0.626831 0.757005 -0.731410
H50   H     H_    0.624218 0.617939 0.722415 0.331247
O15   O     O_3   0.391743 0.316337 0.898142 -0.636720
C57   C     C_3   0.266937 0.294008 0.877660 0.118194
H51   H     H_    0.255523 0.224818 0.881875 0.162071
H52   H     H_    0.243699 0.314243 0.814930 0.129073
C58   C     C_3   0.174775 0.327983 0.936367 -0.357813
H53   H     H_    0.195680 0.304429 0.998210 0.237680
H54   H     H_    0.184572 0.397179 0.933340 0.225379
C59   C     C_3   0.040134 0.301796 0.916899 -0.979445
H55   H     H_    0.016730 0.327595 0.856314 0.270340
H56   H     H_    0.975872 0.326405 0.960857 0.272593
H57   H     H_    0.026522 0.232728 0.919536 0.267556
O16   O     O_3   0.240610 0.595654 0.120302 -0.644734
C60   C     C_3   0.129852 0.554101 0.152664 0.100352
H58   H     H_    0.054542 0.598775 0.147173 0.170623
H59   H     H_    0.136227 0.535485 0.217536 0.158346
C61   C     C_3   0.092085 0.477842 0.105873 -0.365742
H60   H     H_    0.088484 0.496675 0.041112 0.244624
H61   H     H_    0.162649 0.430161 0.114690 0.215959
C62   C     C_3   0.964495 0.439295 0.133540 -0.963652
H62   H     H_    0.964981 0.421725 0.198596 0.272422
H63   H     H_    0.941787 0.382389 0.101064 0.267198
H64   H     H_    0.890981 0.484214 0.121127 0.271875

loop_
_geom_bond_atom_site_label_1
_geom_bond_atom_site_label_2
_ccdc_geom_bond_type
C5    C36   S    
C48   H28   S    
C27   C29   A    
C11   C13   A    
C62   H62   S    
C51   H36   S    
O9    C45   S    
C39   C41   A    
C13   N1    S    
C46   H23   S    
C30   H10   S    
C3    C43   A    
C1    O1    A    
C62   H63   S    
C4    C23   S    
C60   H59   S    
C46   C47   S    
C54   H42   S    
C49   C50   S    
C6    C35   S    
C15   C17   A    
C42   H2    S    
C55   H44   S    
C21   H6    S    
C56   H48   S    
C29   N3    A    
C40   O12   S    
C54   H43   S    
C49   H31   S    
C58   C59   S    
C52   H37   S    
C31   C33   A    
C19   N3    A    
C10   O13   S    
C17   O9    S    
C2    O4    A    
N4    Zn1   S    
C40   C42   A    
C48   H29   S    
C1    C7    S    
C52   H38   S    
C3    C24   S    
C16   O16   S    
C61   C62   S    
C2    O2    A    
O1    Zn1   S    
C51   H35   S    
C27   H7    S    
O12   C54   S    
C55   H45   S    
C46   H24   S    
C32   C42   A    
C37   C39   A    
C62   H64   S    
O16   C60   S    
C61   H61   S    
C11   H20   S    
C60   C61   S    
C23   O5    A    
C12   H19   S    
C19   H4    S    
C24   O6    A    
C4    C44   A    
C44   H18   S    
C8    C18   A    
C53   H39   S    
C55   C56   S    
C59   H57   S    
C57   H52   S    
C50   H32   S    
C15   O15   S    
C47   H27   S    
C54   C55   S    
C49   H30   S    
C14   N2    S    
C16   C18   A    
C9    O14   S    
C23   O7    A    
C9    C11   A    
C53   H41   S    
C56   H46   S    
C37   H15   S    
C10   C12   A    
C22   H5    S    
C38   H16   S    
C4    C6    A    
C50   H33   S    
C5    C44   A    
C47   H26   S    
N1    N2    D    
C48   C49   S    
C45   H22   S    
C6    C43   A    
C13   C15   A    
C58   H53   S    
C26   N6    S    
C52   C53   S    
C14   C16   A    
C57   C58   S    
C25   N5    S    
C20   C22   A    
O14   H50   S    
C43   H17   S    
C59   H56   S    
C58   H54   S    
O15   C57   S    
O7    Zn2   S    
C24   O8    A    
C7    C9    A    
C21   C25   A    
C33   H13   S    
C31   C41   A    
C35   C37   A    
O8    Zn1   S    
C20   N4    A    
C2    C8    S    
N3    Zn2   S    
O6    Zn2   S    
C12   C14   A    
C61   H60   S    
C3    C5    A    
C7    C17   A    
C39   O11   S    
C25   C27   A    
C45   C46   S    
C26   C28   A    
O4    Zn1   S    
C1    O3    A    
C28   C30   A    
C57   H51   S    
C18   O10   S    
O2    Zn2   S    
C60   H58   S    
C38   C40   A    
C28   H8    S    
O13   H49   S    
C29   H9    S    
C36   C38   A    
O10   C48   S    
C33   C35   A    
O3    Zn2   S    
C34   C36   A    
N5    N6    D    
C53   H40   S    
C56   H47   S    
C20   H3    S    
C50   H34   S    
C47   H25   S    
C8    C10   A    
C45   H21   S    
C22   C26   A    
O11   C51   S    
C34   H14   S    
C41   H1    S    
C59   H55   S    
C31   H11   S    
O5    Zn1   S    
C32   H12   S    
C51   C52   S    
C30   N4    A    
C32   C34   A    
C19   C21   A    
