data_mof_unit_338.cif
_audit_creation_date              2012-12-10T20:27:54-0500
_audit_creation_method            fapswitch 2.2
_symmetry_space_group_name_H-M    P1
_symmetry_Int_Tables_number       1
_space_group_crystal_system       triclinic
_cell_length_a                    12.859991
_cell_length_b                    10.684668
_cell_length_c                    9.864717
_cell_angle_alpha                 90.106085
_cell_angle_beta                  97.163096
_cell_angle_gamma                 90.067659
_cell_volume                      1344.87609699

loop_
_atom_site_label
_atom_site_type_symbol
_atom_type_description
_atom_site_fract_x
_atom_site_fract_y
_atom_site_fract_z
_atom_type_partial_charge
C1    C     C_R   0.501773 0.260151 0.500240 0.939806
C2    C     C_R   0.028566 0.524719 0.559853 0.189992
C3    C     C_R   0.971410 0.474801 0.440191 0.182985
C4    C     C_R   0.864394 0.462857 0.433191 -0.272139
C5    C     C_R   0.870352 0.547962 0.663313 -0.195988
C6    C     C_R   0.978116 0.559932 0.671526 -0.199688
C7    C     C_R   0.492343 0.063982 0.619523 -0.011904
C8    C     C_R   0.512564 0.128513 0.503316 -0.050760
C9    C     C_R   0.548349 0.064614 0.393949 -0.202065
C10   C     C_R   0.548683 0.935121 0.394325 -0.170491
C11   C     C_R   0.513814 0.871553 0.504469 -0.114813
C12   C     C_R   0.298188 0.500307 0.473203 0.920040
C13   C     C_R   0.494576 0.936493 0.621180 0.046003
C14   C     C_3   0.403770 0.927990 0.702076 0.174900
C15   C     C_3   0.400979 0.070273 0.699929 0.135966
C16   C     C_R   0.441750 0.414286 0.061740 0.215690
C17   C     C_R   0.565024 0.576459 0.082705 -0.089875
C18   C     C_R   0.565233 0.576210 0.938735 -0.051739
C19   C     C_R   0.441593 0.414395 0.919145 0.199169
C20   C     C_3   0.325415 0.400071 0.895374 -0.452977
C21   C     C_3   0.325828 0.399586 0.049156 -0.514756
C22   C     C_R   0.501931 0.739914 0.500539 0.878726
C23   C     C_R   0.701809 0.499562 0.526813 0.871264
C24   C     C_R   0.813941 0.501465 0.543176 -0.044330
C25   C     C_R   0.186053 0.497997 0.456896 -0.037388
C26   C     C_R   0.021973 0.438532 0.329023 -0.199318
C27   C     C_R   0.129765 0.449752 0.337609 -0.165003
C28   C     C_R   0.135462 0.537799 0.566258 -0.257354
H1    H     H_    0.820217 0.425088 0.341201 0.157586
H2    H     H_    0.421500 0.115590 0.801290 0.158142
H3    H     H_    0.615798 0.640232 0.145401 0.149132
H4    H     H_    0.616222 0.639691 0.892760 0.160073
H5    H     H_    0.301117 0.309114 0.846738 0.240057
H6    H     H_    0.286394 0.482666 0.087419 0.222313
H7    H     H_    0.302354 0.308132 0.089499 0.215229
H8    H     H_    0.831016 0.578201 0.748627 0.158919
H9    H     H_    0.978554 0.400226 0.236977 0.143294
H10   H     H_    0.021648 0.597552 0.763858 0.147865
H11   H     H_    0.169094 0.417707 0.253209 0.156242
H12   H     H_    0.179392 0.577676 0.657131 0.152547
H13   H     H_    0.570997 0.885520 0.306520 0.179569
H14   H     H_    0.334117 0.881063 0.645583 0.153623
N1    N     N_R   0.499290 0.499140 0.142710 -0.113138
N2    N     N_R   0.499290 0.499180 0.857070 -0.109398
O1    O     O_R   0.500010 0.316790 0.614690 -0.611215
O2    O     O_R   0.500000 0.316760 0.385350 -0.628584
O3    O     O_R   0.346360 0.499990 0.595720 -0.610053
O4    O     O_R   0.346350 0.499960 0.366370 -0.625341
O5    O     O_R   0.500000 0.683240 0.614650 -0.591468
O6    O     O_R   0.499990 0.683210 0.385310 -0.616633
O7    O     O_R   0.653650 0.500040 0.633630 -0.633510
O8    O     O_R   0.653640 0.500010 0.404280 -0.633489
Zn1   Zn    Zn3+2 0.500010 0.500020 0.653130 0.982463
Zn2   Zn    Zn3+2 0.499990 0.499980 0.346870 0.960736
Cl1   Cl    Cl    0.442146 0.866560 0.868911 -0.639386
Cl2   Cl    Cl    0.284250 0.129974 0.604019 -0.640863
H15   H     H_    0.285699 0.483423 0.846005 0.221435
H16   H     H_    0.570820 0.113859 0.306169 0.169898

loop_
_geom_bond_atom_site_label_1
_geom_bond_atom_site_label_2
_ccdc_geom_bond_type
C23   C24   S    
C6    H10   S    
C26   H9    S    
C16   C21   S    
C21   H7    S    
C18   N2    A    
C25   C27   A    
C1    C8    S    
C9    C10   A    
C11   C22   S    
C23   O7    A    
C19   C20   S    
O3    Zn1   S    
C12   C25   S    
C22   O6    A    
C15   Cl2   S    
O2    Zn2   S    
C7    C15   S    
C14   Cl1   S    
C23   O8    A    
O1    Zn1   S    
C7    C8    A    
C2    C6    A    
C14   H14   S    
C19   N2    A    
C25   C28   A    
O4    Zn2   S    
C11   C13   A    
C16   N1    A    
C1    O1    A    
C26   C27   A    
O6    Zn2   S    
C5    C24   A    
C16   C19   A    
O5    Zn1   S    
C20   H5    S    
C12   O4    A    
O8    Zn2   S    
C17   C18   A    
C2    C3    A    
C12   O3    A    
C5    C6    A    
C17   H3    S    
C1    O2    A    
C18   H4    S    
C10   C11   A    
C28   H12   S    
C3    C4    A    
C5    H8    S    
C4    C24   A    
C7    C13   A    
C20   C21   S    
C15   H2    S    
C9    H16   S    
C22   O5    A    
C17   N1    A    
C14   C15   S    
C2    C28   A    
C21   H6    S    
N1    Zn2   S    
O7    Zn1   S    
C20   H15   S    
C13   C14   S    
N2    Zn1   S    
C3    C26   A    
C4    H1    S    
C27   H11   S    
C8    C9    A    
C10   H13   S    
