data_mof_unit_2789.cif
_audit_creation_date              2012-12-10T17:02:57-0500
_audit_creation_method            fapswitch 2.2
_symmetry_space_group_name_H-M    P1
_symmetry_Int_Tables_number       1
_space_group_crystal_system       triclinic
_cell_length_a                    9.813877
_cell_length_b                    11.046524
_cell_length_c                    13.514981
_cell_angle_alpha                 93.841811
_cell_angle_beta                  82.379429
_cell_angle_gamma                 111.103676
_cell_volume                      1354.51573234

loop_
_atom_site_label
_atom_site_type_symbol
_atom_type_description
_atom_site_fract_x
_atom_site_fract_y
_atom_site_fract_z
_atom_type_partial_charge
C1    C     C_R   0.555203 0.745145 0.509417 0.874651
C2    C     C_R   0.435466 0.448475 0.968541 0.089935
C3    C     C_R   0.477496 0.447988 0.864073 0.086940
C4    C     C_R   0.544602 0.469604 0.034526 -0.006309
C5    C     C_R   0.695560 0.515933 0.995397 0.126231
C6    C     C_R   0.731184 0.496121 0.893697 -0.226654
C7    C     C_R   0.621556 0.450746 0.831341 -0.178422
C8    C     C_R   0.510214 0.446375 0.137452 -0.089558
C9    C     C_R   0.763624 0.572351 0.162875 -0.245981
C10   C     C_R   0.375727 0.447766 0.797025 -0.104319
C11   C     C_2   0.581545 0.882703 0.523879 -0.338132
C12   C     C_R   0.421683 0.476594 0.689553 0.788009
C13   C     C_2   0.471549 0.927221 0.523776 -0.202866
C14   C     C_2   0.411574 0.115068 0.497740 -0.386980
C15   C     C_2   0.494716 0.064702 0.540952 0.011262
C16   C     C_2   0.924824 0.491317 0.493276 -0.075265
C17   C     C_2   0.079788 0.509181 0.510081 -0.071146
C18   C     C_R   0.442457 0.254433 0.496714 0.851627
C19   C     C_R   0.575827 0.507581 0.310026 0.819385
C20   C     C_R   0.805649 0.573487 0.059871 0.157498
C21   C     C_R   0.617818 0.507149 0.201973 -0.127090
C22   C     C_R   0.229529 0.428350 0.835037 -0.182368
C23   C     C_R   0.186602 0.420975 0.937162 -0.158721
C24   C     C_R   0.289401 0.438196 0.003295 -0.157512
Cu1   Cu    Cu3+1 0.362000 0.479240 0.482530 0.961088
Cu2   Cu    Cu3+1 0.638000 0.520760 0.517470 0.959056
H1    H     H_    0.845255 0.621055 0.213008 0.161269
H2    H     H_    0.363571 0.862430 0.506845 0.181994
H3    H     H_    0.322551 0.052098 0.457366 0.155025
H4    H     H_    0.691057 0.947372 0.537465 0.163328
H5    H     H_    0.131702 0.574991 0.568543 0.168409
H6    H     H_    0.876278 0.423150 0.434924 0.156771
H7    H     H_    0.105010 0.386637 0.400200 0.204859
H8    H     H_    0.842668 0.510602 0.861643 0.157825
H9    H     H_    0.148768 0.423216 0.785955 0.160811
H10   H     H_    0.253317 0.448341 0.081327 0.142653
H11   H     H_    0.073931 0.407403 0.965667 0.137553
H12   H     H_    0.654289 0.419533 0.757899 0.198406
N1    N     N_2   0.845330 0.551960 0.543750 -0.232222
N2    N     N_2   0.154690 0.448120 0.456210 -0.286448
O1    O     O_R   0.426290 0.668220 0.490680 -0.578438
O2    O     O_R   0.659360 0.703290 0.520190 -0.573923
O3    O     O_R   0.326580 0.473880 0.629020 -0.580775
O4    O     O_R   0.559660 0.508940 0.658530 -0.592392
O5    O     O_R   0.340640 0.296710 0.479810 -0.561650
O6    O     O_R   0.573710 0.331780 0.509320 -0.580844
O7    O     O_R   0.440340 0.491060 0.341470 -0.565491
O8    O     O_R   0.673420 0.526120 0.370980 -0.591343
C25   C     C_1   0.903354 0.639623 0.619647 0.417105
N3    N     N_1   0.951281 0.712491 0.682807 -0.355881
C26   C     C_3   0.965458 0.645887 0.021800 -0.434919
C27   C     C_3   0.984740 0.774198 0.975480 -0.764398
H13   H     H_    0.922161 0.757319 0.910104 0.266482
H14   H     H_    0.945979 0.836500 0.031518 0.252548
H15   H     H_    0.102904 0.826053 0.950107 0.245583
H16   H     H_    0.035486 0.667685 0.083707 0.205328
H17   H     H_    0.008501 0.586152 0.966611 0.194093
C28   C     C_1   0.377368 0.340979 0.174039 0.251464
N4    N     N_1   0.271906 0.256763 0.203281 -0.292416
C29   C     C_1   0.605183 0.140889 0.604700 0.310417
N5    N     N_1   0.693220 0.201006 0.655395 -0.315143

loop_
_geom_bond_atom_site_label_1
_geom_bond_atom_site_label_2
_ccdc_geom_bond_type
C2    C4    A    
C23   C24   A    
C13   H2    S    
C6    C7    A    
C26   H17   S    
C16   H6    S    
C15   C29   S    
C14   C18   S    
C9    C20   A    
C1    C11   S    
C27   H15   S    
Cu2   O8    S    
C4    C8    A    
C8    C28   S    
Cu1   O3    S    
C2    C3    A    
Cu1   Cu2   S    
Cu2   O4    S    
C12   O4    A    
C3    C10   A    
C10   C22   A    
C22   H9    S    
C11   C13   D    
C9    C21   A    
C24   H10   S    
C10   C12   S    
C18   O6    A    
C1    O1    A    
N1    C25   S    
C7    H12   S    
C27   H14   S    
C25   N3    T    
C20   C26   S    
C3    C7    A    
C13   C15   S    
Cu1   N2    S    
C2    C24   A    
C5    C6    A    
C17   H5    S    
C5    C20   A    
C19   O7    A    
Cu2   N1    S    
H7    N2    S    
C16   C17   S    
Cu2   O6    S    
C16   N1    D    
C26   C27   S    
C18   O5    A    
Cu1   O5    S    
C1    O2    A    
C27   H13   S    
C9    H1    S    
C26   H16   S    
Cu1   O1    S    
Cu2   O2    S    
Cu1   O7    S    
C14   C15   D    
C4    C5    A    
C14   H3    S    
C19   C21   S    
C28   N4    T    
C23   H11   S    
C12   O3    A    
C22   C23   A    
C6    H8    S    
C11   H4    S    
C19   O8    A    
C29   N5    T    
C17   N2    D    
C8    C21   A    
