data_mof_unit_3519.cif
_audit_creation_date              2012-12-10T18:11:44-0500
_audit_creation_method            fapswitch 2.2
_symmetry_space_group_name_H-M    P1
_symmetry_Int_Tables_number       1
_space_group_crystal_system       triclinic
_cell_length_a                    10.489302
_cell_length_b                    12.614869
_cell_length_c                    13.152682
_cell_angle_alpha                 82.311343
_cell_angle_beta                  90.217305
_cell_angle_gamma                 102.584916
_cell_volume                      1682.71498663

loop_
_atom_site_label
_atom_site_type_symbol
_atom_type_description
_atom_site_fract_x
_atom_site_fract_y
_atom_site_fract_z
_atom_type_partial_charge
C1    C     C_R   0.480297 0.438837 0.691165 0.851483
C2    C     C_R   0.470465 0.448441 0.973425 0.083096
C3    C     C_R   0.437436 0.468684 0.869854 0.073454
C4    C     C_R   0.742310 0.501191 0.498946 0.881583
C5    C     C_R   0.469877 0.530853 0.036379 0.076939
C6    C     C_R   0.418117 0.623683 0.000358 0.173632
C7    C     C_R   0.369645 0.634494 0.901896 -0.259484
C8    C     C_R   0.378447 0.557773 0.837521 -0.182775
C9    C     C_R   0.521106 0.524116 0.134052 -0.259217
C10   C     C_R   0.453961 0.688891 0.165188 -0.210685
C11   C     C_R   0.466332 0.400065 0.800885 -0.106093
C12   C     C_3   0.063343 0.577500 0.424171 -0.243609
C13   C     C_R   0.320691 0.088153 0.346551 -0.309950
C14   C     C_R   0.653084 0.799472 0.630018 0.019833
C15   C     C_R   0.684311 0.903789 0.658810 -0.250365
C16   C     C_R   0.513621 0.561111 0.308906 0.851329
C17   C     C_R   0.626029 0.985253 0.609880 -0.199154
C18   C     C_R   0.535925 0.962447 0.531205 0.015438
C19   C     C_R   0.507656 0.854649 0.504688 0.239574
C20   C     C_R   0.473068 0.041731 0.477951 -0.016129
C21   C     C_R   0.383529 0.011486 0.399923 0.197303
C22   C     C_R   0.357857 0.905192 0.375492 -0.299145
C23   C     C_3   0.986344 0.601108 0.515533 -0.213945
C24   C     C_R   0.419421 0.828228 0.426965 -0.208220
C25   C     C_R   0.495359 0.150614 0.498363 -0.050056
C26   C     C_R   0.347160 0.194260 0.370438 0.005526
C27   C     C_R   0.257641 0.499130 0.500142 0.886861
C28   C     C_3   0.936002 0.422476 0.572843 -0.286614
C29   C     C_3   0.045606 0.520887 0.588721 0.549306
C30   C     C_3   0.122057 0.498376 0.499024 -0.034981
C31   C     C_3   0.013273 0.400434 0.480994 -0.185496
C32   C     C_3   0.951806 0.479678 0.406360 -0.137951
C33   C     C_3   0.009739 0.552006 0.755625 0.069600
C34   C     C_3   0.877760 0.502452 0.498196 -0.041430
C35   C     C_3   0.021585 0.672477 0.768782 -0.339750
C36   C     C_3   0.924317 0.684648 0.850147 -0.968283
C37   C     C_R   0.413232 0.703329 0.064361 -0.201444
C38   C     C_R   0.504207 0.596963 0.200401 -0.043860
C39   C     C_R   0.500300 0.300704 0.838026 -0.200754
C40   C     C_R   0.513883 0.272736 0.942502 -0.152207
C41   C     C_R   0.502280 0.346537 0.009763 -0.193196
H1    H     H_    0.570204 0.459734 0.162438 0.146622
H2    H     H_    0.697823 0.735727 0.667857 0.140754
H3    H     H_    0.879852 0.360103 0.633347 0.132235
H4    H     H_    0.753324 0.921435 0.718965 0.150671
H5    H     H_    0.396344 0.748528 0.403902 0.206639
H6    H     H_    0.028306 0.319291 0.466386 0.160130
H7    H     H_    0.907893 0.463196 0.331566 0.137748
H8    H     H_    0.119962 0.639567 0.363659 0.143496
H9    H     H_    0.970696 0.682655 0.527833 0.144537
H10   H     H_    0.440077 0.745985 0.216475 0.147984
H11   H     H_    0.326879 0.703333 0.874057 0.147759
H12   H     H_    0.520581 0.246299 0.786050 0.150248
H13   H     H_    0.372826 0.773928 0.037851 0.135104
H14   H     H_    0.030170 0.506818 0.830178 0.169450
H15   H     H_    0.906925 0.515072 0.737622 0.121332
H16   H     H_    0.122256 0.707790 0.791596 0.224205
H17   H     H_    0.002701 0.719722 0.695091 0.212298
H18   H     H_    0.822628 0.651220 0.827997 0.265572
H19   H     H_    0.934711 0.772772 0.857501 0.262613
H20   H     H_    0.943207 0.640567 0.925676 0.267366
H21   H     H_    0.653379 0.064680 0.635225 0.133139
H22   H     H_    0.515474 0.320445 0.089848 0.133995
H23   H     H_    0.538880 0.195492 0.971106 0.141369
H24   H     H_    0.337443 0.568647 0.762387 0.219795
H25   H     H_    0.299920 0.254925 0.329813 0.135900
H26   H     H_    0.290071 0.881357 0.315897 0.148223
H27   H     H_    0.252249 0.066289 0.286881 0.143890
H28   H     H_    0.561602 0.181369 0.555687 0.124124
N1    N     N_R   0.432930 0.222190 0.444670 -0.101928
N2    N     N_R   0.566370 0.776980 0.554790 -0.130983
O1    O     O_R   0.467970 0.366730 0.627150 -0.614997
O2    O     O_R   0.510820 0.544830 0.662520 -0.622003
O3    O     O_R   0.664630 0.410960 0.482340 -0.616878
O4    O     O_R   0.707470 0.589060 0.517710 -0.627041
O5    O     O_R   0.489180 0.455170 0.337480 -0.617004
O6    O     O_R   0.532030 0.633270 0.372850 -0.637853
O7    O     O_R   0.292530 0.410940 0.482290 -0.626127
O8    O     O_R   0.335370 0.589040 0.517660 -0.624215
O9    O     O_3   0.104196 0.542305 0.682776 -0.672768
Zn1   Zn    Zn3+2 0.471390 0.381080 0.476380 0.934705
Zn2   Zn    Zn3+2 0.528610 0.618920 0.523620 0.929732

loop_
_geom_bond_atom_site_label_1
_geom_bond_atom_site_label_2
_ccdc_geom_bond_type
C33   H14   S    
C14   N2    A    
C19   N2    A    
C35   C36   S    
C1    C11   S    
C36   H18   S    
C12   H8    S    
C7    C8    A    
C12   C23   S    
C9    H1    S    
C35   H17   S    
C5    C6    A    
C23   C29   S    
C28   C29   S    
C7    H11   S    
C18   C19   A    
C27   O8    A    
C30   C31   S    
C20   C25   A    
C2    C41   A    
C16   O6    A    
N1    Zn1   S    
C4    O4    A    
C4    O3    A    
O1    Zn1   S    
N2    Zn2   S    
C27   O7    A    
C33   H15   S    
C28   C34   S    
C8    H24   S    
C31   H6    S    
C21   C22   A    
C12   C32   S    
C27   C30   S    
C32   H7    S    
C10   H10   S    
C4    C34   S    
C1    O1    A    
C26   H25   S    
C3    C8    A    
C39   C40   A    
C23   H9    S    
C28   H3    S    
C32   C34   S    
C5    C9    A    
C29   C30   S    
C17   H21   S    
C31   C32   S    
C23   C34   S    
C17   C18   A    
C6    C37   A    
C13   C21   A    
C33   O9    S    
C11   C39   A    
C37   H13   S    
C40   C41   A    
C10   C37   A    
C26   N1    A    
C22   C24   A    
C13   C26   A    
C2    C5    A    
C25   H28   S    
C15   H4    S    
O3    Zn1   S    
C36   H20   S    
O2    Zn2   S    
C15   C17   A    
C12   C30   S    
C16   O5    A    
C28   C31   S    
C36   H19   S    
O5    Zn1   S    
O8    Zn2   S    
O4    Zn2   S    
C6    C7    A    
C40   H23   S    
C35   H16   S    
C10   C38   A    
C1    O2    A    
C19   C24   A    
C24   H5    S    
O7    Zn1   S    
C39   H12   S    
C29   O9    S    
O6    Zn2   S    
C9    C38   A    
C33   C35   S    
C2    C3    A    
C18   C20   A    
C22   H26   S    
C3    C11   A    
C20   C21   A    
C41   H22   S    
C14   C15   A    
C25   N1    A    
C16   C38   S    
C14   H2    S    
C13   H27   S    
