data_mof_unit_3063.cif
_audit_creation_date              2012-12-10T17:24:43-0500
_audit_creation_method            fapswitch 2.2
_symmetry_space_group_name_H-M    P1
_symmetry_Int_Tables_number       1
_space_group_crystal_system       triclinic
_cell_length_a                    23.451062
_cell_length_b                    10.827811
_cell_length_c                    9.630896
_cell_angle_alpha                 88.397721
_cell_angle_beta                  89.230464
_cell_angle_gamma                 92.312161
_cell_volume                      2442.30652588

loop_
_atom_site_label
_atom_site_type_symbol
_atom_type_description
_atom_site_fract_x
_atom_site_fract_y
_atom_site_fract_z
_atom_type_partial_charge
C1    C     C_R   0.503525 0.262352 0.502827 0.862243
C2    C     C_R   0.969788 0.422355 0.264535 -0.151272
C3    C     C_R   0.029136 0.418697 0.263589 0.433246
C4    C     C_R   0.060551 0.457585 0.381061 -0.098782
C5    C     C_R   0.030538 0.497600 0.499686 -0.098685
C6    C     C_R   0.060542 0.536959 0.618877 -0.100858
C7    C     C_R   0.029118 0.576515 0.735769 0.430394
C8    C     C_R   0.969668 0.574134 0.733717 -0.153209
C9    C     C_R   0.120698 0.458467 0.385229 0.612587
C10   C     C_R   0.120680 0.534857 0.615792 0.618699
C11   C     C_R   0.242023 0.604044 0.464262 -0.043055
C12   C     C_R   0.391336 0.497962 0.500698 0.903696
C13   C     C_R   0.301448 0.603668 0.463731 -0.168437
C14   C     C_R   0.329113 0.495781 0.501712 -0.109702
C15   C     C_R   0.296917 0.386619 0.536824 0.363022
C16   C     C_R   0.237366 0.387480 0.536742 -0.090239
C17   C     C_R   0.209899 0.496110 0.501139 0.239469
C18   C     C_R   0.758162 0.387062 0.513903 0.372287
C19   C     C_R   0.698380 0.386881 0.513086 0.265582
C20   C     C_R   0.670799 0.499338 0.498179 -0.333394
C21   C     C_R   0.702734 0.611800 0.485310 0.258157
C22   C     C_R   0.762500 0.611622 0.483153 0.382520
C23   C     C_R   0.495755 0.736860 0.498742 0.839549
C24   C     C_R   0.790226 0.499304 0.497890 0.011439
C25   C     C_R   0.499295 0.101053 0.768772 -0.155018
C26   C     C_R   0.476280 0.034274 0.883416 0.341445
C27   C     C_R   0.445307 0.923304 0.864795 0.342144
C28   C     C_R   0.442629 0.873883 0.731925 0.288484
C29   C     C_R   0.474748 0.931820 0.620171 -0.060005
C30   C     C_R   0.493788 0.055725 0.633436 0.016032
C31   C     C_R   0.507437 0.127134 0.510456 -0.045521
C32   C     C_R   0.518551 0.066815 0.387369 -0.052239
C33   C     C_R   0.512072 0.939508 0.382142 -0.065332
C34   C     C_R   0.608575 0.499681 0.499308 0.939127
C35   C     C_R   0.490435 0.870786 0.497710 -0.054102
C36   C     C_R   0.573178 0.668811 0.136262 -0.247966
C37   C     C_R   0.606634 0.756882 0.061005 0.327641
C38   C     C_R   0.607136 0.756222 0.917198 0.320497
C39   C     C_R   0.574067 0.667971 0.849455 -0.247683
C40   C     C_R   0.536588 0.582010 0.921754 0.106325
C41   C     C_R   0.536338 0.582299 0.070981 0.153298
C42   C     C_R   0.464495 0.424009 0.078211 0.005409
C43   C     C_R   0.463953 0.424566 0.931001 0.479698
C44   C     C_R   0.879955 0.533897 0.614752 0.681546
C45   C     C_R   0.880120 0.464247 0.381973 0.682209
C46   C     C_R   0.939945 0.461547 0.380862 -0.089491
C47   C     C_R   0.970159 0.498246 0.499126 -0.006427
C48   C     C_R   0.939841 0.535556 0.616848 -0.088729
Cu1   Cu    Cu3+1 0.500000 0.499990 0.640660 1.064685
Cu2   Cu    Cu3+1 0.500000 0.500010 0.359340 1.024077
H1    H     H_    0.534144 0.118599 0.296195 0.222149
H2    H     H_    0.524752 0.894865 0.287998 0.199630
H3    H     H_    0.325912 0.687608 0.434442 0.199621
N1    N     N_R   0.851481 0.499294 0.498137 -0.428122
N2    N     N_R   0.148788 0.496407 0.500748 -0.485797
N3    N     N_R   0.500540 0.501210 0.147910 -0.215544
N4    N     N_R   0.500560 0.501290 0.852040 -0.219761
O1    O     O_R   0.500000 0.319640 0.618810 -0.563736
O2    O     O_2   0.850714 0.431984 0.268131 -0.461372
O3    O     O_2   0.151499 0.422638 0.275382 -0.409718
O4    O     O_2   0.151420 0.570074 0.726184 -0.399282
O5    O     O_R   0.500000 0.319660 0.381240 -0.574293
O6    O     O_R   0.417880 0.499950 0.618810 -0.479125
O7    O     O_R   0.417880 0.499980 0.381240 -0.581153
O8    O     O_R   0.500000 0.680340 0.618760 -0.584946
O9    O     O_R   0.500000 0.680360 0.381190 -0.604627
O10   O     O_R   0.582120 0.500020 0.618760 -0.588943
O11   O     O_R   0.582120 0.500050 0.381190 -0.583360
O12   O     O_2   0.850329 0.566582 0.728161 -0.459637
H4    H     H_    0.946927 0.392924 0.173359 0.224712
Cl1   Cl    Cl    0.658042 0.245712 0.531831 -0.451821
Cl2   Cl    Cl    0.667769 0.753200 0.476018 -0.425977
Cl3   Cl    Cl    0.803071 0.751882 0.461134 -0.345201
H5    H     H_    0.523770 0.184862 0.789248 0.223274
Cl4   Cl    Cl    0.483140 0.097213 0.048114 -0.576448
Cl5   Cl    Cl    0.410751 0.845470 0.007961 -0.441419
Cl6   Cl    Cl    0.389740 0.757546 0.701983 -0.508577
H6    H     H_    0.435273 0.362038 0.136931 0.197184
Cl7   Cl    Cl    0.060165 0.362013 0.111157 -0.406890
H7    H     H_    0.577413 0.672706 0.245519 0.240208
Cl8   Cl    Cl    0.647796 0.868061 0.149675 -0.376105
Cl9   Cl    Cl    0.649101 0.865706 0.818136 -0.363976
H8    H     H_    0.579396 0.672159 0.740031 0.243229
Cl10  Cl    Cl    0.413094 0.326823 0.853530 -0.464985
Cl11  Cl    Cl    0.060336 0.632491 0.888800 -0.411671
H9    H     H_    0.946767 0.604032 0.824482 0.225181
H10   H     H_    0.220864 0.687889 0.435660 0.179174
Cl12  Cl    Cl    0.329798 0.246472 0.574554 -0.488242
H11   H     H_    0.212301 0.303748 0.563318 0.189557
Cl13  Cl    Cl    0.793354 0.247031 0.537224 -0.348554

loop_
_geom_bond_atom_site_label_1
_geom_bond_atom_site_label_2
_ccdc_geom_bond_type
C44   C48   A    
Cu1   O6    S    
Cu2   O7    S    
C19   Cl1   S    
C19   C20   A    
C3    Cl7   S    
C1    O5    A    
C7    C8    A    
C32   H1    S    
C7    Cl11  S    
C45   C46   A    
C2    C46   A    
C33   H2    S    
C5    C47   A    
C26   C27   A    
C29   C30   A    
Cu1   O8    S    
C18   C24   A    
C23   O9    A    
C28   C29   A    
C25   H5    S    
C5    C6    A    
C12   O7    A    
C24   N1    S    
C15   C16   A    
C1    C31   S    
Cu1   N4    S    
C18   C19   A    
C42   N3    A    
C45   O2    S    
C31   C32   A    
C11   H10   S    
C16   C17   A    
C9    N2    A    
C13   C14   A    
C17   N2    S    
C20   C34   S    
C16   H11   S    
C21   C22   A    
C38   Cl9   S    
C43   Cl10  S    
C37   Cl8   S    
C36   C41   A    
C13   H3    S    
C38   C39   A    
C21   Cl2   S    
C18   Cl13  S    
C36   H7    S    
C34   O11   A    
C39   C40   A    
C12   O6    A    
C25   C26   A    
Cu2   N3    S    
Cu1   O1    S    
C8    C48   A    
C41   N3    A    
C37   C38   A    
C28   Cl6   S    
C47   C48   A    
C26   Cl4   S    
C44   O12   S    
C10   N2    A    
Cu2   O9    S    
C40   C41   A    
C12   C14   S    
C45   N1    A    
C42   H6    S    
C23   C35   S    
Cu2   O5    S    
C22   C24   A    
C10   O4    S    
C42   C43   A    
C27   Cl5   S    
C25   C30   A    
C46   C47   A    
C36   C37   A    
C40   N4    A    
Cu1   O10   S    
C4    C5    A    
C11   C17   A    
C34   O10   A    
C6    C10   A    
C6    C7    A    
C29   C35   A    
C9    O3    S    
C32   C33   A    
C23   O8    A    
C2    C3    A    
C39   H8    S    
C1    O1    A    
C11   C13   A    
C30   C31   A    
C33   C35   A    
C8    H9    S    
C43   N4    A    
C44   N1    A    
C20   C21   A    
Cu1   Cu2   S    
C27   C28   A    
C14   C15   A    
C22   Cl3   S    
C4    C9    A    
C2    H4    S    
Cu2   O11   S    
C3    C4    A    
C15   Cl12  S    
