data_mof_unit_2588.cif
_audit_creation_date              2012-12-10T16:57:49-0500
_audit_creation_method            fapswitch 2.2
_symmetry_space_group_name_H-M    P1
_symmetry_Int_Tables_number       1
_space_group_crystal_system       triclinic
_cell_length_a                    10.685969
_cell_length_b                    10.903673
_cell_length_c                    9.754727
_cell_angle_alpha                 89.673871
_cell_angle_beta                  90.152184
_cell_angle_gamma                 90.802876
_cell_volume                      1136.45104075

loop_
_atom_site_label
_atom_site_type_symbol
_atom_type_description
_atom_site_fract_x
_atom_site_fract_y
_atom_site_fract_z
_atom_type_partial_charge
C1    C     C_R   0.510381 0.266025 0.500311 0.882378
C2    C     C_3   0.958633 0.606594 0.442092 -0.209529
C3    C     C_3   0.040079 0.510510 0.370497 -0.164310
C4    C     C_3   0.123561 0.503961 0.499436 -0.244505
C5    C     C_2   0.572147 0.930583 0.414661 0.476932
C6    C     C_2   0.493814 0.866813 0.496865 0.351603
C7    C     C_2   0.567842 0.064993 0.397952 -0.094505
C8    C     C_2   0.532345 0.134600 0.504891 -0.350488
C9    C     C_2   0.496849 0.401891 0.922773 -0.035446
C10   C     C_2   0.464549 0.406994 0.073096 -0.038409
C11   C     C_R   0.259902 0.501649 0.499755 0.898200
C12   C     C_R   0.498909 0.734467 0.499533 0.851547
C13   C     C_R   0.740189 0.500415 0.500173 0.866841
C14   C     C_3   0.040666 0.399978 0.558019 -0.133523
C15   C     C_3   0.957381 0.406540 0.429525 0.649700
C16   C     C_3   0.876467 0.502105 0.500486 -0.183632
C17   C     C_3   0.958604 0.495222 0.631136 -0.266517
C18   C     C_3   0.042128 0.599703 0.571199 -0.034024
Cu1   Cu    Cu3+1 0.500030 0.500020 0.638630 1.039010
Cu2   Cu    Cu3+1 0.499970 0.499980 0.361370 1.088261
H1    H     H_    0.521196 0.093104 0.605522 0.220489
H2    H     H_    0.508805 0.313350 0.875015 0.202450
H3    H     H_    0.467819 0.578423 0.890656 0.216775
H4    H     H_    0.923966 0.488510 0.738202 0.212923
N1    N     N_2   0.498620 0.498660 0.846910 -0.285554
N2    N     N_2   0.498590 0.498630 0.153040 -0.285417
O1    O     O_R   0.500020 0.321960 0.617040 -0.587491
O2    O     O_R   0.499980 0.321920 0.382900 -0.568557
O3    O     O_R   0.316870 0.499990 0.617050 -0.533349
O4    O     O_R   0.316830 0.499950 0.382910 -0.539768
O5    O     O_R   0.500020 0.678080 0.617100 -0.559509
O6    O     O_R   0.499980 0.678040 0.382960 -0.545897
O7    O     O_R   0.683170 0.500050 0.617090 -0.582284
O8    O     O_R   0.683130 0.500010 0.382950 -0.542857
F1    F     F_    0.913248 0.306214 0.357373 -0.573303
C19   C     C_2   0.383467 0.303763 0.121884 0.917957
O9    O     O_2   0.390577 0.203487 0.067131 -0.570540
O10   O     O_R   0.293075 0.321210 0.222128 -0.712301
H5    H     H_    0.243152 0.243781 0.243877 0.356036
C20   C     C_2   0.596941 0.578035 0.105906 1.055794
O11   O     O_2   0.585946 0.689007 0.115463 -0.511570
O12   O     O_R   0.706700 0.529057 0.051982 -0.739551
H6    H     H_    0.767803 0.594685 0.019011 0.356141
C21   C     C_2   0.088061 0.285235 0.624182 0.901891
O13   O     O_2   0.062834 0.185307 0.574351 -0.487120
O14   O     O_R   0.161134 0.293534 0.742825 -0.725218
H7    H     H_    0.188537 0.210346 0.777729 0.361950
C22   C     C_2   0.084897 0.707112 0.655504 0.944777
O15   O     O_2   0.007335 0.769950 0.712991 -0.530285
O16   O     O_R   0.212272 0.734453 0.669209 -0.719504
H8    H     H_    0.228685 0.807588 0.730713 0.380126
C23   C     C_2   0.914112 0.720270 0.370939 0.962578
O17   O     O_2   0.931642 0.820877 0.422602 -0.488839
O18   O     O_R   0.856584 0.710189 0.242818 -0.718000
H9    H     H_    0.839026 0.792865 0.199441 0.396782
C24   C     C_2   0.081811 0.520449 0.223951 0.987317
O19   O     O_2   0.049810 0.442075 0.141422 -0.508425
O20   O     O_R   0.155925 0.620413 0.182436 -0.728321
H10   H     H_    0.178591 0.616924 0.081682 0.338611
F2    F     F_    0.658169 0.869414 0.339732 -0.634947
F3    F     F_    0.401353 0.920682 0.569560 -0.666476
C25   C     C_2   0.614591 0.115778 0.265249 0.989097
O21   O     O_2   0.595340 0.058837 0.159421 -0.493190
O22   O     O_R   0.687124 0.223347 0.261406 -0.677861
H11   H     H_    0.713472 0.247132 0.164959 0.364856

loop_
_geom_bond_atom_site_label_1
_geom_bond_atom_site_label_2
_ccdc_geom_bond_type
C1    O2    A    
C25   O22   S    
C7    C25   S    
C13   O7    A    
C25   O21   D    
C24   O20   S    
C2    C18   S    
C1    C8    S    
C2    C16   S    
C3    C24   S    
Cu1   Cu2   S    
C4    C18   S    
O22   H11   S    
C10   N2    D    
C22   O16   S    
C8    H1    S    
O20   H10   S    
Cu1   O5    S    
C13   O8    A    
C1    O1    A    
Cu2   O4    S    
C23   O17   D    
C12   O6    A    
C4    C11   S    
C6    C12   S    
C14   C17   S    
N2    C20   S    
C5    C6    D    
C2    C23   S    
C11   O4    A    
C6    F3    S    
C20   O12   S    
C22   O15   D    
C21   O14   S    
C17   C18   S    
C2    C3    S    
H3    N1    S    
C12   O5    A    
C4    C14   S    
O10   H5    S    
Cu1   N1    S    
C9    H2    S    
C17   H4    S    
C19   O10   S    
C9    N1    D    
Cu2   O8    S    
Cu1   O3    S    
C9    C10   S    
O14   H7    S    
C7    C8    D    
Cu1   O1    S    
C24   O19   D    
C11   O3    A    
C14   C21   S    
Cu2   O6    S    
C13   C16   S    
C15   F1    S    
C5    C7    S    
C20   O11   D    
O18   H9    S    
C19   O9    D    
C3    C15   S    
C10   C19   S    
Cu2   O2    S    
C5    F2    S    
O16   H8    S    
Cu1   O7    S    
C14   C15   S    
C21   O13   D    
C15   C16   S    
O12   H6    S    
C23   O18   S    
C16   C17   S    
Cu2   N2    S    
C3    C4    S    
C18   C22   S    
