data_mof_unit_1098.cif
_audit_creation_date              2012-12-11T14:38:26-0500
_audit_creation_method            fapswitch 2.2
_symmetry_space_group_name_H-M    P1
_symmetry_Int_Tables_number       1
_space_group_crystal_system       triclinic
_cell_length_a                    19.477069
_cell_length_b                    11.212276
_cell_length_c                    19.635618
_cell_angle_alpha                 89.999773
_cell_angle_beta                  96.499252
_cell_angle_gamma                 89.958279
_cell_volume                      4260.51174912

loop_
_atom_site_label
_atom_site_type_symbol
_atom_type_description
_atom_site_fract_x
_atom_site_fract_y
_atom_site_fract_z
_atom_type_partial_charge
C1    C     C_R   0.726137 0.950937 0.358905 0.567537
C2    C     C_3   0.185463 0.454318 0.471025 -0.265413
C3    C     C_3   0.314536 0.954174 0.528966 -0.265244
C4    C     C_3   0.685469 0.954328 0.471026 -0.265447
C5    C     C_3   0.755320 0.273390 0.565804 -0.041613
C6    C     C_3   0.244700 0.273382 0.434221 -0.041849
C7    C     C_3   0.255325 0.773396 0.565803 -0.041608
C8    C     C_3   0.744701 0.773385 0.434223 -0.041858
C9    C     C_3   0.755569 0.409610 0.571016 0.097250
C10   C     C_3   0.244437 0.409607 0.428988 0.096600
C11   C     C_3   0.255570 0.909614 0.571015 0.097273
C12   C     C_R   0.273865 0.950925 0.641093 0.565588
C13   C     C_3   0.744440 0.909608 0.428986 0.096586
C14   C     C_3   0.731820 0.352579 0.441216 0.065403
C15   C     C_3   0.268184 0.352559 0.558795 0.065954
C16   C     C_3   0.231819 0.852583 0.441215 0.065414
C17   C     C_3   0.768183 0.852575 0.558796 0.066085
C18   C     C_3   0.787968 0.450306 0.452969 -0.257567
C19   C     C_3   0.212021 0.450398 0.547029 -0.257627
C20   C     C_3   0.287965 0.950313 0.452967 -0.257568
C21   C     C_3   0.712030 0.950423 0.547030 -0.257603
C22   C     C_3   0.756719 0.245001 0.487783 -0.254484
C23   C     C_R   0.226136 0.450939 0.358906 0.567540
C24   C     C_3   0.243293 0.245024 0.512243 -0.254437
C25   C     C_3   0.256719 0.745005 0.487783 -0.254481
C26   C     C_3   0.743296 0.745035 0.512246 -0.254454
C27   C     C_3   0.493335 0.311952 0.961530 0.032114
C28   C     C_3   0.512355 0.312181 0.037113 0.023583
C29   C     C_3   0.993335 0.811952 0.961530 0.032113
C30   C     C_3   0.012355 0.812181 0.037113 0.023583
C31   C     C_3   0.421770 0.121102 0.980830 -0.072197
C32   C     C_3   0.576014 0.110557 0.019564 -0.066238
C33   C     C_3   0.921770 0.621101 0.980830 -0.072196
C34   C     C_R   0.773864 0.450923 0.641094 0.565579
C35   C     C_3   0.076014 0.610557 0.019564 -0.066237
C36   C     C_3   0.541719 0.103778 0.944109 -0.029626
C37   C     C_3   0.455888 0.111988 0.056524 -0.052748
C38   C     C_3   0.041719 0.603779 0.944109 -0.029625
C39   C     C_3   0.955888 0.611988 0.056524 -0.052747
C40   C     C_R   0.536169 0.180427 0.338486 0.559655
C41   C     C_R   0.463844 0.180388 0.661521 0.555843
C42   C     C_R   0.036169 0.680427 0.338486 0.559652
C43   C     C_R   0.963844 0.680388 0.661521 0.555820
C44   C     C_3   0.473737 0.180663 0.935895 0.035511
C45   C     C_3   0.663090 0.397814 0.467687 -0.022736
C46   C     C_3   0.526929 0.180196 0.064075 0.011085
C47   C     C_3   0.973736 0.680662 0.935895 0.035510
C48   C     C_3   0.026929 0.680196 0.064075 0.011086
C49   C     C_1   0.762217 0.427820 0.904739 0.023904
C50   C     C_1   0.237256 0.429588 0.094856 0.027173
C51   C     C_1   0.262217 0.927820 0.904739 0.023902
C52   C     C_1   0.737256 0.929588 0.094856 0.027173
C53   C     C_1   0.750395 0.409064 0.035651 -0.029740
C54   C     C_1   0.249282 0.411309 0.963989 0.003090
C55   C     C_1   0.250395 0.909065 0.035651 -0.029739
C56   C     C_3   0.336912 0.397622 0.532311 -0.022521
C57   C     C_1   0.749282 0.911309 0.963989 0.003091
C58   C     C_1   0.755054 0.417032 0.964582 -0.030508
C59   C     C_1   0.244262 0.419834 0.034934 -0.001179
C60   C     C_1   0.255054 0.917032 0.964582 -0.030508
C61   C     C_1   0.744262 0.919834 0.034934 -0.001178
C62   C     C_1   0.745799 0.395127 0.095821 0.009897
C63   C     C_1   0.254294 0.396016 0.904024 0.031826
C64   C     C_1   0.245799 0.895127 0.095821 0.009897
C65   C     C_1   0.754294 0.896016 0.904023 0.031827
C66   C     C_R   0.724761 0.314666 0.367919 0.561132
C67   C     C_3   0.163089 0.897817 0.467687 -0.022736
C68   C     C_R   0.275248 0.314669 0.632099 0.559789
C69   C     C_R   0.224762 0.814668 0.367919 0.561131
C70   C     C_R   0.775245 0.814680 0.632099 0.559813
C71   C     C_R   0.722307 0.954487 0.163183 0.552832
C72   C     C_R   0.277601 0.954191 0.836710 0.563201
C73   C     C_R   0.222307 0.454487 0.163183 0.552833
C74   C     C_R   0.777601 0.454191 0.836710 0.563202
C75   C     C_R   0.555845 0.182503 0.136388 0.560563
C76   C     C_R   0.444245 0.182658 0.863691 0.600872
C77   C     C_R   0.055845 0.682503 0.136388 0.560563
C78   C     C_3   0.836909 0.897655 0.532319 -0.022465
C79   C     C_R   0.944244 0.682658 0.863691 0.600872
C80   C     C_R   0.736892 0.359847 0.164426 0.553817
C81   C     C_R   0.263246 0.359575 0.835669 0.571546
C82   C     C_R   0.236892 0.859847 0.164426 0.553817
C83   C     C_R   0.763246 0.859575 0.835669 0.571549
C84   C     C_1   0.485505 0.172823 0.594430 -0.014044
C85   C     C_1   0.514524 0.172896 0.405583 -0.014332
C86   C     C_1   0.985505 0.672823 0.594430 -0.014136
C87   C     C_1   0.014524 0.672896 0.405583 -0.014341
C88   C     C_1   0.504265 0.169573 0.464857 -0.076148
C89   C     C_3   0.814536 0.454168 0.528969 -0.265237
C90   C     C_1   0.495774 0.169537 0.535157 -0.076073
C91   C     C_1   0.004265 0.669574 0.464857 -0.076156
C92   C     C_1   0.995774 0.669537 0.535157 -0.076122
C93   C     C_3   0.681618 0.451849 0.540156 -0.192527
C94   C     C_3   0.318380 0.451688 0.459842 -0.192651
C95   C     C_3   0.181616 0.951845 0.540158 -0.192534
C96   C     C_3   0.818387 0.951681 0.459835 -0.192590
Cr1   Cr    Cr6+3 0.765780 0.160710 0.267420 1.025666
Cr2   Cr    Cr6+3 0.383970 0.323720 0.751490 1.042434
Cr3   Cr    Cr6+3 0.116030 0.823720 0.248510 1.038374
Cr4   Cr    Cr6+3 0.883970 0.823720 0.751490 1.042427
Cr5   Cr    Cr6+3 0.234220 0.160710 0.732580 1.030843
Cr6   Cr    Cr6+3 0.265780 0.660710 0.267420 1.025667
Cr7   Cr    Cr6+3 0.734220 0.660710 0.732580 1.030856
Cr8   Cr    Cr6+3 0.612200 0.009560 0.248850 1.032247
Cr9   Cr    Cr6+3 0.387800 0.009560 0.751150 1.036345
Cr10  Cr    Cr6+3 0.112200 0.509560 0.248850 1.032247
Cr11  Cr    Cr6+3 0.887800 0.509560 0.751150 1.036357
Cr12  Cr    Cr6+3 0.616030 0.323720 0.248510 1.038374
H1    H     H_    0.678853 0.548562 0.538833 0.108331
H2    H     H_    0.140485 0.392543 0.462418 0.132473
H3    H     H_    0.359516 0.892287 0.537568 0.132347
H4    H     H_    0.640491 0.892552 0.462425 0.132476
H5    H     H_    0.832698 0.437007 0.423271 0.156282
H6    H     H_    0.167290 0.437183 0.576723 0.155956
H7    H     H_    0.332695 0.937017 0.423267 0.156274
H8    H     H_    0.667301 0.937225 0.576730 0.155913
H9    H     H_    0.539965 0.337795 0.936590 0.206154
H10   H     H_    0.466734 0.344488 0.061710 0.211797
H11   H     H_    0.039964 0.837797 0.936589 0.206155
H12   H     H_    0.321136 0.548393 0.461166 0.108372
H13   H     H_    0.966735 0.844489 0.061711 0.211800
H14   H     H_    0.527162 0.008889 0.933785 0.128683
H15   H     H_    0.466752 0.015748 0.066883 0.133754
H16   H     H_    0.027163 0.508890 0.933785 0.128683
H17   H     H_    0.966752 0.515748 0.066884 0.133754
H18   H     H_    0.581217 0.017430 0.039330 0.153172
H19   H     H_    0.411576 0.028541 0.961448 0.143222
H20   H     H_    0.081217 0.517430 0.039330 0.153171
H21   H     H_    0.911577 0.528540 0.961449 0.143222
H22   H     H_    0.641622 0.425423 0.573459 0.155452
H23   H     H_    0.178845 0.048558 0.538843 0.108328
H24   H     H_    0.358378 0.425170 0.426540 0.156063
H25   H     H_    0.141623 0.925406 0.573460 0.155420
H26   H     H_    0.858384 0.925122 0.426543 0.156068
H27   H     H_    0.629223 0.318974 0.471954 0.149968
H28   H     H_    0.370779 0.318701 0.528045 0.150222
H29   H     H_    0.129222 0.818977 0.471950 0.149935
H30   H     H_    0.870785 0.818735 0.528073 0.150033
H31   H     H_    0.340789 0.037916 0.545891 0.102533
H32   H     H_    0.659223 0.038136 0.454089 0.102338
H33   H     H_    0.840787 0.537912 0.545892 0.102545
H34   H     H_    0.821151 0.048389 0.461116 0.108365
H35   H     H_    0.159221 0.538132 0.454093 0.102339
H36   H     H_    0.263069 0.034265 0.437053 0.147050
H37   H     H_    0.736921 0.034316 0.562942 0.147173
H38   H     H_    0.763075 0.534260 0.437055 0.147027
H39   H     H_    0.236895 0.534299 0.562945 0.146955
H40   H     H_    0.803039 0.236899 0.594820 0.138564
H41   H     H_    0.196988 0.236978 0.405209 0.138768
H42   H     H_    0.303050 0.736913 0.594813 0.138466
H43   H     H_    0.696987 0.736982 0.405214 0.138761
H44   H     H_    0.727211 0.167906 0.471804 0.097725
H45   H     H_    0.811204 0.227536 0.479626 0.111776
H46   H     H_    0.272799 0.167860 0.528240 0.097738
H47   H     H_    0.227207 0.667910 0.471807 0.097720
H48   H     H_    0.772806 0.667874 0.528245 0.097728
H49   H     H_    0.393952 0.372715 0.923824 0.274335
H50   H     H_    0.458121 0.468653 0.912339 0.258650
H51   H     H_    0.612487 0.360848 0.076022 0.251029
H52   H     H_    0.552894 0.466223 0.084895 0.263066
H53   H     H_    0.893951 0.872712 0.923822 0.274337
H54   H     H_    0.958120 0.968656 0.912343 0.258648
H55   H     H_    0.112487 0.860848 0.076022 0.251030
H56   H     H_    0.188807 0.227698 0.520398 0.111812
H57   H     H_    0.052895 0.966224 0.084892 0.263065
H58   H     H_    0.358695 0.259826 0.004676 0.266802
H59   H     H_    0.318106 0.128906 0.992219 0.260914
H60   H     H_    0.646441 0.241896 0.000408 0.270489
H61   H     H_    0.667281 0.166680 0.075129 0.215844
H62   H     H_    0.858694 0.759824 0.004675 0.266805
H63   H     H_    0.818106 0.628903 0.992220 0.260914
H64   H     H_    0.146442 0.741895 0.000408 0.270490
H65   H     H_    0.167281 0.666679 0.075130 0.215843
H66   H     H_    0.576119 0.498471 0.441077 0.220891
H67   H     H_    0.311204 0.727544 0.479622 0.111817
H68   H     H_    0.648885 0.564096 0.422191 0.218387
H69   H     H_    0.423817 0.498313 0.558770 0.220664
H70   H     H_    0.351030 0.563785 0.577915 0.218307
H71   H     H_    0.076110 0.998434 0.441051 0.220903
H72   H     H_    0.148866 0.064118 0.422220 0.218371
H73   H     H_    0.923926 0.997911 0.559029 0.220848
H74   H     H_    0.851177 0.064021 0.577651 0.218130
H75   H     H_    0.710131 0.170888 0.637418 0.248674
H76   H     H_    0.660294 0.181100 0.559918 0.231224
H77   H     H_    0.289910 0.170805 0.362604 0.249766
H78   H     H_    0.688810 0.727706 0.520402 0.111813
H79   H     H_    0.339718 0.180825 0.440124 0.231125
H80   H     H_    0.210150 0.670883 0.637421 0.248643
H81   H     H_    0.160299 0.681110 0.559927 0.231241
H82   H     H_    0.789908 0.670798 0.362609 0.249767
H83   H     H_    0.839719 0.680828 0.440128 0.231145
H84   H     H_    0.859515 0.392280 0.537573 0.132348
I1    I     I_    0.388203 0.153197 0.135092 -0.392917
I2    I     I_    0.611640 0.137902 0.866601 -0.356946
I3    I     I_    0.888203 0.653199 0.135092 -0.392917
I4    I     I_    0.111640 0.637904 0.866601 -0.356951
N1    N     N_3   0.440765 0.406077 0.946022 -0.631079
N2    N     N_3   0.376679 0.482416 0.577956 -0.591601
N3    N     N_3   0.123340 0.982709 0.422021 -0.591449
N4    N     N_3   0.876640 0.982489 0.577971 -0.591749
N5    N     N_3   0.694594 0.226335 0.595658 -0.662109
N6    N     N_3   0.305436 0.226179 0.404382 -0.661004
N7    N     N_3   0.194606 0.726334 0.595665 -0.662120
N8    N     N_3   0.805435 0.726174 0.404385 -0.661026
N9    N     N_3   0.568211 0.400078 0.052173 -0.635808
N10   N     N_3   0.940762 0.906075 0.946023 -0.631082
N11   N     N_3   0.068211 0.900077 0.052172 -0.635815
N12   N     N_3   0.355263 0.183691 0.974018 -0.654444
N13   N     N_3   0.646361 0.158681 0.023978 -0.610690
N14   N     N_3   0.855262 0.683688 0.974017 -0.654445
N15   N     N_3   0.146361 0.658680 0.023978 -0.610690
N16   N     N_3   0.623337 0.482700 0.422022 -0.591421
O1    O     O_R   0.783100 0.287550 0.345460 -0.529807
O2    O     O_R   0.454350 0.284910 0.836260 -0.514028
O3    O     O_R   0.045650 0.784910 0.163740 -0.504634
O4    O     O_R   0.954350 0.784910 0.836260 -0.514023
O5    O     O_R   0.677950 0.374280 0.185410 -0.523164
O6    O     O_R   0.322050 0.374280 0.814590 -0.517884
O7    O     O_R   0.177950 0.874280 0.185410 -0.523163
O8    O     O_R   0.822050 0.874280 0.814590 -0.517879
O9    O     O_3   0.664670 0.164660 0.254930 -0.308230
O10   O     O_3   0.335330 0.164660 0.745070 -0.302659
O11   O     O_3   0.164670 0.664660 0.254930 -0.308232
O12   O     O_R   0.216900 0.287550 0.654540 -0.531772
O13   O     O_3   0.835330 0.664660 0.745070 -0.302666
O14   O     O_R   0.760020 0.037400 0.337700 -0.525497
O15   O     O_R   0.239980 0.037400 0.662300 -0.527587
O16   O     O_R   0.260020 0.537400 0.337700 -0.525489
O17   O     O_R   0.739980 0.537400 0.662300 -0.527581
O18   O     O_R   0.666600 0.921990 0.332020 -0.526778
O19   O     O_R   0.333400 0.921990 0.667980 -0.528111
O20   O     O_R   0.166600 0.421990 0.332020 -0.526782
O21   O     O_R   0.833400 0.421990 0.667980 -0.528105
O22   O     O_R   0.557260 0.082670 0.312540 -0.490229
O23   O     O_R   0.283100 0.787550 0.345460 -0.529810
O24   O     O_R   0.442740 0.082670 0.687460 -0.492467
O25   O     O_R   0.057260 0.582670 0.312540 -0.490225
O26   O     O_R   0.942740 0.582670 0.687460 -0.492434
O27   O     O_R   0.548410 0.285740 0.316480 -0.483475
O28   O     O_R   0.451590 0.285740 0.683520 -0.486460
O29   O     O_R   0.048410 0.785740 0.316480 -0.483490
O30   O     O_R   0.951590 0.785740 0.683520 -0.486607
O31   O     O_R   0.680500 0.375040 0.327000 -0.450835
O32   O     O_R   0.319500 0.375040 0.673000 -0.453311
O33   O     O_R   0.180500 0.875040 0.327000 -0.450820
O34   O     O_R   0.716900 0.787550 0.654540 -0.531785
O35   O     O_R   0.819500 0.875040 0.673000 -0.453180
O36   O     O_R   0.780350 0.286720 0.192720 -0.491731
O37   O     O_R   0.219650 0.286720 0.807280 -0.491027
O38   O     O_R   0.280350 0.786720 0.192720 -0.491731
O39   O     O_R   0.719650 0.786720 0.807280 -0.491028
O40   O     O_R   0.757470 0.036630 0.196110 -0.494227
O41   O     O_R   0.242530 0.036630 0.803890 -0.489526
O42   O     O_R   0.257470 0.536630 0.196110 -0.494227
O43   O     O_R   0.742530 0.536630 0.803890 -0.489525
O44   O     O_R   0.663840 0.921160 0.179280 -0.512911
O45   O     O_R   0.554710 0.081900 0.170950 -0.483069
O46   O     O_R   0.336160 0.921160 0.820720 -0.512345
O47   O     O_R   0.163840 0.421160 0.179280 -0.512910
O48   O     O_R   0.836160 0.421160 0.820720 -0.512341
O49   O     O_R   0.445290 0.081900 0.829050 -0.487936
O50   O     O_R   0.054710 0.581900 0.170950 -0.483069
O51   O     O_R   0.945290 0.581900 0.829050 -0.487934
O52   O     O_R   0.545650 0.284910 0.163740 -0.504636

loop_
_geom_bond_atom_site_label_1
_geom_bond_atom_site_label_2
_ccdc_geom_bond_type
C1    O14   A    
Cr7   O17   S    
C95   H23   S    
C76   O49   A    
C72   O46   A    
C8    C13   S    
C39   H17   S    
C53   C58   S    
C87   C91   T    
C25   H47   S    
C8    C26   S    
C51   C72   S    
C14   C18   S    
C26   H48   S    
C27   N1    S    
C47   C79   S    
C72   O41   A    
C68   O12   A    
H64   N15   S    
C45   C93   S    
Cr1   O36   S    
C23   O16   A    
Cr4   O35   S    
H65   N15   S    
H81   N7    S    
C15   C19   S    
C29   H11   S    
H79   N6    S    
C28   C46   S    
Cr9   O46   S    
H58   N12   S    
C63   C81   S    
C95   H25   S    
H66   N16   S    
C50   C59   T    
Cr9   O19   S    
C62   C80   S    
C68   O32   A    
C6    N6    S    
C40   O27   A    
C67   N3    S    
C52   C61   T    
C5    N5    S    
C32   N13   S    
C65   C83   S    
Cr2   O28   S    
C54   C63   T    
C10   C94   S    
C33   H21   S    
Cr9   O10   S    
Cr11  O13   S    
Cr10  O50   S    
H50   N1    S    
C79   O51   A    
C33   N14   S    
C32   H18   S    
C4    C13   S    
C44   C76   S    
C35   N15   S    
Cr11  O21   S    
C80   O36   A    
C7    N7    S    
H52   N9    S    
C37   H15   S    
C6    H41   S    
C94   H12   S    
C1    O18   A    
Cr4   O4    S    
C82   O7    A    
C75   O45   A    
C78   C96   S    
Cr10  O25   S    
C30   H13   S    
H51   N9    S    
C31   H19   S    
Cr3   O33   S    
Cr2   O32   S    
C74   O43   A    
Cr5   O10   S    
C70   O35   A    
Cr8   O45   S    
C27   C28   S    
Cr8   O22   S    
Cr1   O14   S    
C4    H4    S    
H61   N13   S    
C17   C70   S    
C5    H40   S    
Cr1   O1    S    
C55   C60   S    
H54   N10   S    
C67   C95   S    
C2    H35   S    
C18   C89   S    
C37   I1    S    
C56   C94   S    
C78   N4    S    
Cr5   O41   S    
C21   H8    S    
C35   C48   S    
C78   H30   S    
C18   H5    S    
C46   C75   S    
C56   H28   S    
C42   O25   A    
C24   H46   S    
Cr6   O11   S    
C7    C11   S    
C14   C45   S    
C56   N2    S    
C54   C59   S    
C27   H9    S    
C43   O30   A    
C71   O44   A    
Cr11  O26   S    
Cr3   O11   S    
C45   H27   S    
C45   N16   S    
C31   C44   S    
C5    C22   S    
C13   C96   S    
C22   H44   S    
C8    N8    S    
C35   C38   S    
H74   N4    S    
Cr1   O40   S    
H71   N3    S    
C40   O22   A    
C9    C93   S    
C77   O50   A    
C50   C73   S    
C9    C89   S    
C80   O5    A    
H63   N14   S    
C3    H3    S    
C12   O15   A    
C96   H26   S    
C19   H6    S    
C41   C84   S    
C39   I3    S    
C94   H24   S    
C29   N10   S    
C31   C37   S    
Cr11  O48   S    
Cr6   O42   S    
H75   N5    S    
H77   N6    S    
Cr3   O29   S    
C1    C13   S    
C36   H14   S    
C5    C9    S    
C29   C30   S    
C24   H56   S    
C43   O26   A    
C76   O2    A    
C4    H32   S    
C7    H42   S    
C53   C62   T    
C25   H67   S    
Cr8   O18   S    
Cr10  O11   S    
H62   N14   S    
Cr12  O27   S    
C16   C20   S    
C6    C24   S    
C55   C64   T    
C8    H43   S    
C48   C77   S    
Cr6   O16   S    
C14   C66   S    
C3    C20   S    
C16   C67   S    
C33   C39   S    
C4    C21   S    
H57   N11   S    
C64   C82   S    
C38   C47   S    
C70   O34   A    
Cr12  O5    S    
Cr5   O12   S    
C69   O33   A    
C15   C24   S    
Cr3   O7    S    
C20   H36   S    
H69   N2    S    
Cr2   O6    S    
C9    C34   S    
C33   C47   S    
Cr9   O24   S    
Cr12  O9    S    
H53   N10   S    
C36   C44   S    
C34   O17   A    
C3    H31   S    
H83   N8    S    
C17   C26   S    
C81   O6    A    
C93   H22   S    
C2    C10   S    
C32   C36   S    
Cr8   O9    S    
C91   C92   S    
Cr4   O30   S    
C77   O3    A    
C12   O19   A    
Cr7   O34   S    
H73   N4    S    
C84   C90   T    
C30   C48   S    
C16   C25   S    
Cr7   O43   S    
C2    H2    S    
C88   C90   S    
H76   N5    S    
H80   N7    S    
C40   C85   S    
C83   O39   A    
C2    C19   S    
Cr6   O38   S    
C43   C86   S    
C32   C46   S    
H60   N13   S    
C82   O38   A    
Cr5   O37   S    
C16   C69   S    
C23   O20   A    
C81   O37   A    
C18   H38   S    
C7    C25   S    
C6    C10   S    
C20   H7    S    
Cr11  O51   S    
C11   C12   S    
C73   O47   A    
C57   C61   S    
C51   C60   T    
C41   O24   A    
C74   O48   A    
C10   C23   S    
Cr7   O13   S    
C42   O29   A    
C15   C68   S    
Cr8   O44   S    
Cr5   O15   S    
H70   N2    S    
Cr7   O39   S    
H59   N12   S    
C14   C22   S    
C29   C47   S    
C69   O23   A    
C31   N12   S    
C52   C71   S    
C28   H10   S    
C15   C56   S    
C83   O8    A    
C26   H78   S    
H82   N8    S    
Cr10  O47   S    
Cr3   O3    S    
C66   O1    A    
C36   I2    S    
C89   H33   S    
C30   N11   S    
Cr2   O10   S    
Cr12  O31   S    
H55   N11   S    
C17   C78   S    
C89   H84   S    
Cr1   O9    S    
Cr12  O52   S    
H49   N1    S    
C85   C88   T    
C38   I4    S    
Cr2   O2    S    
Cr4   O13   S    
C67   H29   S    
C19   H39   S    
C71   O40   A    
C3    C11   S    
C49   C58   T    
C96   H34   S    
C73   O42   A    
Cr10  O20   S    
H68   N16   S    
Cr6   O23   S    
C28   N9    S    
C11   C95   S    
Cr4   O8    S    
Cr9   O49   S    
C79   O4    A    
C66   O31   A    
C93   H1    S    
C35   H20   S    
H72   N3    S    
C49   C74   S    
C86   C92   T    
C42   C87   S    
C37   C46   S    
C27   C44   S    
C34   O21   A    
C41   O28   A    
C38   H16   S    
C75   O52   A    
C21   H37   S    
C39   C48   S    
C57   C65   T    
C22   H45   S    
C17   C21   S    
