data_mof_unit_239.cif
_audit_creation_date              2012-10-26T18:50:02-0400
_audit_creation_method            fapswitch 2.2
_symmetry_space_group_name_H-M    P1
_symmetry_Int_Tables_number       1
_space_group_crystal_system       triclinic
_cell_length_a                    11.030395
_cell_length_b                    13.11603
_cell_length_c                    11.647055
_cell_angle_alpha                 101.276021
_cell_angle_beta                  93.99827
_cell_angle_gamma                 90.3102
_cell_volume                      1648.17614793

loop_
_atom_site_label
_atom_site_type_symbol
_atom_type_description
_atom_site_fract_x
_atom_site_fract_y
_atom_site_fract_z
_atom_type_partial_charge
C1    C     C_R   0.503574 0.298525 0.476802 0.567946
C2    C     C_R   0.454447 0.861650 0.441827 -0.033363
C3    C     C_R   0.523889 0.031714 0.552845 0.022405
C4    C     C_R   0.476117 0.968285 0.447152 0.022406
C5    C     C_R   0.381002 0.403617 0.019769 -0.018148
C6    C     C_R   0.619008 0.596375 0.980229 -0.018152
C7    C     C_R   0.395648 0.412061 0.142448 0.071260
C8    C     C_R   0.604359 0.587933 0.857551 0.071248
C9    C     C_R   0.548216 0.542385 0.159465 0.095474
C10   C     C_R   0.451783 0.457616 0.840535 0.095466
C11   C     C_R   0.543040 0.535054 0.035594 0.009869
C12   C     C_R   0.496426 0.701475 0.523197 0.567947
C13   C     C_R   0.456963 0.464944 0.964406 0.009861
C14   C     C_R   0.262338 0.502107 0.500584 0.546768
C15   C     C_R   0.737661 0.497892 0.499416 0.546769
C16   C     C_R   0.120124 0.683360 0.471145 -0.012780
C17   C     C_R   0.879874 0.316636 0.528842 -0.012783
C18   C     C_R   0.055340 0.756685 0.420676 -0.102824
C19   C     C_R   0.944657 0.243307 0.579306 -0.102826
C20   C     C_R   0.928969 0.755421 0.419462 0.011619
C21   C     C_R   0.071028 0.244571 0.580522 0.011614
C22   C     C_R   0.872529 0.680411 0.469689 0.003531
C23   C     C_R   0.490334 0.816423 0.539612 0.017801
C24   C     C_R   0.127470 0.319585 0.530302 0.003526
C25   C     C_R   0.933685 0.587175 0.477741 -0.012372
C26   C     C_R   0.066314 0.412822 0.522254 -0.012374
C27   C     C_R   0.062009 0.588769 0.478955 -0.009633
C28   C     C_R   0.937990 0.411228 0.521039 -0.009633
C29   C     C_R   0.871613 0.498491 0.498934 0.000676
C30   C     C_R   0.128387 0.501507 0.501064 0.000675
C31   C     C_1   0.137123 0.155771 0.605937 0.232848
C32   C     C_1   0.862874 0.844219 0.394044 0.232844
C33   C     C_2   0.283900 0.330951 0.956414 0.214109
C34   C     C_R   0.509668 0.183577 0.460387 0.017798
C35   C     C_2   0.716131 0.669021 0.043580 0.214110
C36   C     C_1   0.206463 0.727707 0.565583 0.193333
C37   C     C_1   0.793533 0.272293 0.434405 0.193333
C38   C     C_1   0.799239 0.720661 0.564858 0.196287
C39   C     C_1   0.200763 0.279339 0.435134 0.196289
C40   C     C_1   0.389204 0.800325 0.337964 0.202758
C41   C     C_1   0.610799 0.199675 0.662034 0.202759
C42   C     C_2   0.544635 0.850386 0.764617 0.277661
C43   C     C_2   0.455361 0.149612 0.235381 0.277659
C44   C     C_R   0.455313 0.011660 0.346973 -0.129730
C45   C     C_R   0.544693 0.988339 0.653025 -0.129728
C46   C     C_R   0.474888 0.116898 0.350533 0.032951
C47   C     C_R   0.525114 0.883102 0.649465 0.032950
C48   C     C_R   0.545557 0.138350 0.558171 -0.033366
Cu1   Cu    Cu3+1 0.509250 0.507730 0.615930 1.044432
Cu2   Cu    Cu3+1 0.490750 0.492270 0.384070 1.044438
H1    H     H_    0.101853 0.825851 0.406555 0.136521
H2    H     H_    0.739977 0.737010 0.009022 0.123754
H3    H     H_    0.621310 0.882924 0.824338 0.103802
H4    H     H_    0.378692 0.117064 0.175657 0.103799
H5    H     H_    0.898143 0.174138 0.593420 0.136520
H6    H     H_    0.425795 0.962995 0.263220 0.124511
H7    H     H_    0.574211 0.037004 0.736777 0.124512
H8    H     H_    0.392165 0.402135 0.782444 0.186825
H9    H     H_    0.607830 0.597869 0.217557 0.186825
H10   H     H_    0.660833 0.634766 0.814798 0.146192
H11   H     H_    0.339179 0.365224 0.185200 0.146206
H12   H     H_    0.260088 0.262948 0.990963 0.123758
N1    N     N_R   0.523180 0.519350 0.790130 -0.244790
N2    N     N_1   0.662911 0.248248 0.744597 -0.269422
N3    N     N_R   0.476820 0.480650 0.209870 -0.244792
N4    N     N_1   0.190249 0.084713 0.626121 -0.274560
N5    N     N_1   0.809747 0.915276 0.373856 -0.274566
N6    N     N_1   0.269867 0.764910 0.645969 -0.202605
N7    N     N_1   0.730127 0.235095 0.354018 -0.202602
N8    N     N_1   0.746922 0.753392 0.645874 -0.331659
N9    N     N_1   0.253080 0.246610 0.354118 -0.331652
N10   N     N_1   0.337092 0.751752 0.255401 -0.269427
O1    O     O_R   0.506570 0.354460 0.582000 -0.523373
O2    O     O_2   0.775722 0.651085 0.129424 -0.502020
O3    O     O_2   0.471828 0.794492 0.798307 -0.459626
O4    O     O_2   0.528158 0.205516 0.201692 -0.459637
O5    O     O_R   0.493430 0.645540 0.418000 -0.523374
O6    O     O_R   0.490940 0.341410 0.386200 -0.441631
O7    O     O_R   0.509060 0.658590 0.613800 -0.441636
O8    O     O_R   0.327470 0.506520 0.597900 -0.492374
O9    O     O_R   0.672530 0.493480 0.402100 -0.492370
O10   O     O_R   0.311840 0.493460 0.402100 -0.502398
O11   O     O_R   0.688160 0.506540 0.597900 -0.502402
O12   O     O_2   0.224292 0.348883 0.870579 -0.502017

loop_
_geom_bond_atom_site_label_1
_geom_bond_atom_site_label_2
_ccdc_geom_bond_type
C31   N4    T    
C38   N8    T    
C35   O2    D    
Cu1   N1    S    
C37   N7    T    
C10   N1    A    
C15   O9    A    
C21   C31   S    
C12   C23   S    
C45   H7    S    
C42   O3    D    
C28   C29   A    
C10   H8    S    
C24   C26   A    
C42   H3    S    
C22   C38   S    
C12   O7    A    
C3    C48   A    
C24   C39   S    
C6    C35   S    
C7    H11   S    
C33   H12   S    
C22   C25   A    
C5    C33   S    
C1    C34   S    
C34   C46   A    
C14   O8    A    
C5    C13   A    
C16   C27   A    
C27   C30   A    
C1    O6    A    
C14   C30   S    
Cu2   O6    S    
Cu2   N3    S    
C44   C46   A    
C18   H1    S    
C15   C29   S    
C45   C47   A    
C25   C29   A    
C23   C47   A    
C33   O12   D    
C6    C11   A    
C5    C7    A    
C15   O11   A    
C4    C44   A    
C3    C45   A    
Cu1   O7    S    
C9    H9    S    
C2    C4    A    
C7    N3    A    
C44   H6    S    
C43   H4    S    
C12   O5    A    
C17   C37   S    
C9    C11   A    
C32   N5    T    
C20   C22   A    
C26   C30   A    
Cu1   O1    S    
C34   C48   A    
C14   O10   A    
C3    C4    A    
Cu2   O5    S    
C35   H2    S    
Cu2   O10   S    
C20   C32   S    
C19   H5    S    
C43   O4    D    
C40   N10   T    
C19   C21   A    
C17   C28   A    
C10   C13   A    
C6    C8    A    
C36   N6    T    
C25   C27   A    
C26   C28   A    
Cu1   O8    S    
C1    O1    A    
Cu1   O11   S    
C8    H10   S    
C11   C13   A    
C17   C19   A    
C41   C48   S    
C18   C20   A    
C42   C47   S    
C43   C46   S    
C9    N3    A    
C8    N1    A    
C2    C40   S    
C16   C18   A    
Cu1   Cu2   S    
C21   C24   A    
C2    C23   A    
C39   N9    T    
C41   N2    T    
C16   C36   S    
Cu2   O9    S    
