data_mof_unit_4072.cif
_audit_creation_date              2013-03-05T16:13:54-0500
_audit_creation_method            fapswitch 2.2
_symmetry_space_group_name_H-M    P1
_symmetry_Int_Tables_number       1
_space_group_crystal_system       triclinic
_cell_length_a                    20.222102
_cell_length_b                    22.736177
_cell_length_c                    6.943636
_cell_angle_alpha                 90.004951
_cell_angle_beta                  86.582008
_cell_angle_gamma                 89.995444
_cell_volume                      3186.81938891

loop_
_atom_site_label
_atom_site_type_symbol
_atom_site_description
_atom_site_fract_x
_atom_site_fract_y
_atom_site_fract_z
_atom_type_partial_charge
O1    O     O_R   0.751270 0.447300 0.600030 -0.606440
O2    O     O_R   0.248730 0.947300 0.399970 -0.606383
O3    O     O_R   0.613530 0.440160 0.952150 -0.574893
O4    O     O_R   0.386470 0.940160 0.047850 -0.569976
O5    O     O_R   0.613050 0.552700 0.122560 -0.563348
O6    O     O_R   0.386950 0.052700 0.877440 -0.564113
C1    C     C_R   0.591444 0.425373 0.787473 1.077097
C2    C     C_R   0.408690 0.925464 0.212479 1.074608
O7    O     O_R   0.750780 0.440350 0.929820 -0.608420
O8    O     O_R   0.249220 0.940350 0.070180 -0.608478
O9    O     O_R   0.751280 0.552900 0.100070 -0.602616
O10   O     O_R   0.248720 0.052900 0.899930 -0.604842
C3    C     C_R   0.773960 0.426162 0.757158 0.898262
C4    C     C_R   0.226034 0.926166 0.242832 0.898518
O11   O     O_R   0.613040 0.447100 0.622520 -0.571557
O12   O     O_R   0.386960 0.947100 0.377480 -0.573255
O13   O     O_3   0.682160 0.536920 0.777780 -0.263710
O14   O     O_3   0.317840 0.036920 0.222220 -0.266791
V1    V     V_3+5 0.682160 0.493150 0.052630 1.202617
V2    V     V_3+5 0.317840 0.993150 0.947370 1.203075
O15   O     O_R   0.750790 0.559840 0.429870 -0.602025
O16   O     O_R   0.249210 0.059840 0.570130 -0.602213
C5    C     C_R   0.773599 0.574393 0.257192 0.913651
C6    C     C_R   0.226365 0.074356 0.742820 0.912706
O17   O     O_R   0.613540 0.559650 0.452200 -0.571766
O18   O     O_R   0.386460 0.059650 0.547800 -0.573293
C7    C     C_R   0.591548 0.574517 0.287826 0.992272
C8    C     C_R   0.408424 0.074541 0.712188 1.000095
V3    V     V_3+5 0.682160 0.506850 0.552630 1.203982
V4    V     V_3+5 0.317840 0.006850 0.447370 1.203457
O19   O     O_3   0.682150 0.463080 0.277610 -0.280031
O20   O     O_3   0.317850 0.963080 0.722390 -0.278327
C9    C     C_R   0.579602 0.859485 0.121187 -0.198563
C10   C     C_R   0.420273 0.359676 0.872560 -0.193080
H1    H     H_    0.627323 0.873846 0.060462 0.215440
H2    H     H_    0.371149 0.375028 0.916967 0.215923
C11   C     C_R   0.464885 0.883509 0.208096 -0.313930
C12   C     C_R   0.535454 0.383290 0.791777 -0.316036
C13   C     C_R   0.474582 0.599224 0.366118 -0.036616
C14   C     C_R   0.525025 0.099366 0.628505 -0.035586
C15   C     C_R   0.422030 0.638363 0.389087 -0.083257
C16   C     C_R   0.577671 0.138414 0.606030 -0.084410
C17   C     C_R   0.430885 0.697721 0.345653 -0.184352
C18   C     C_R   0.569377 0.197447 0.654944 -0.182765
C19   C     C_R   0.493450 0.719861 0.277865 0.118812
C20   C     C_R   0.507321 0.219327 0.728193 0.120468
C21   C     C_R   0.547014 0.678941 0.250815 0.034461
C22   C     C_R   0.453678 0.178481 0.754675 0.034915
C23   C     C_R   0.504521 0.781138 0.237645 0.098208
C24   C     C_R   0.496552 0.280458 0.771406 0.099629
C25   C     C_R   0.569125 0.800082 0.172113 -0.089606
C26   C     C_R   0.432165 0.299359 0.839155 -0.089250
C27   C     C_R   0.621830 0.759102 0.151964 0.371723
C28   C     C_R   0.380312 0.257929 0.869500 0.377690
C29   C     C_R   0.609923 0.699550 0.187965 -0.322052
C30   C     C_R   0.391427 0.198780 0.824955 -0.323841
C31   C     C_R   0.453387 0.824284 0.257738 -0.271508
C32   C     C_R   0.547592 0.323625 0.749912 -0.272138
C33   C     C_R   0.528615 0.901001 0.138696 0.543205
C34   C     C_R   0.470930 0.401401 0.850865 0.541072
C35   C     C_R   0.536979 0.618212 0.294057 -0.201307
C36   C     C_R   0.463152 0.118069 0.705883 -0.207603
H3    H     H_    0.403366 0.813183 0.306167 0.117963
H4    H     H_    0.597949 0.312261 0.705955 0.117213
H5    H     H_    0.466618 0.553772 0.407518 0.194899
H6    H     H_    0.532513 0.054225 0.582730 0.193637
H7    H     H_    0.387755 0.725088 0.369456 0.119456
H8    H     H_    0.612427 0.224855 0.630190 0.119502
H9    H     H_    0.373983 0.622660 0.443908 0.150393
H10   H     H_    0.625302 0.122941 0.546996 0.149706
H11   H     H_    0.651351 0.669431 0.170925 0.150340
H12   H     H_    0.350523 0.168388 0.848736 0.151575
C37   C     C_R   0.170710 0.882777 0.261321 -0.117408
C38   C     C_R   0.829270 0.382759 0.738649 -0.117219
C39   C     C_R   0.142997 0.859362 0.096460 -0.174242
C40   C     C_R   0.856793 0.359161 0.903519 -0.174421
C41   C     C_R   0.090352 0.819233 0.113889 -0.135155
C42   C     C_R   0.909425 0.319016 0.886095 -0.135705
C43   C     C_R   0.063992 0.801415 0.297738 0.236841
C44   C     C_R   0.935967 0.301373 0.702243 0.236382
C45   C     C_R   0.091859 0.824611 0.461463 -0.153460
C46   C     C_R   0.908295 0.324755 0.538503 -0.153957
C47   C     C_R   0.144408 0.864758 0.444096 -0.167917
C48   C     C_R   0.855748 0.364910 0.555866 -0.167854
C49   C     C_R   0.907711 0.682874 0.385975 -0.115850
C50   C     C_R   0.092549 0.183131 0.614070 -0.115205
C51   C     C_R   0.855811 0.642002 0.403459 -0.145562
C52   C     C_R   0.144515 0.142323 0.596575 -0.138767
C53   C     C_R   0.933175 0.701564 0.202137 0.228972
C54   C     C_R   0.066540 0.201284 0.797947 0.230430
N1    N     N_2   0.010311 0.760654 0.325606 -0.100368
N2    N     N_2   0.989679 0.260640 0.674390 -0.100929
N3    N     N_2   0.986644 0.742543 0.174206 -0.099435
N4    N     N_2   0.013016 0.242210 0.825855 -0.100399
C55   C     C_R   0.828011 0.618653 0.238665 -0.132038
C56   C     C_R   0.171854 0.118521 0.761395 -0.119224
H13   H     H_    0.837745 0.628481 0.546568 0.136118
H14   H     H_    0.163026 0.129237 0.453424 0.132589
H15   H     H_    0.927794 0.699491 0.516376 0.116988
H16   H     H_    0.072856 0.200135 0.483638 0.115942
H17   H     H_    0.072553 0.811550 0.603903 0.112161
H18   H     H_    0.927752 0.311835 0.396061 0.112130
H19   H     H_    0.164298 0.881748 0.574343 0.132648
H20   H     H_    0.836009 0.382051 0.425615 0.132706
C57   C     C_R   0.853173 0.637763 0.055930 -0.102005
C58   C     C_R   0.146129 0.137077 0.944194 -0.106950
C59   C     C_R   0.904976 0.678660 0.038503 -0.117752
C60   C     C_R   0.094254 0.177907 0.961632 -0.115379
H21   H     H_    0.833000 0.621017 0.925764 0.132053
H22   H     H_    0.165910 0.119946 0.074393 0.127306
H23   H     H_    0.070526 0.802377 0.983438 0.115631
H24   H     H_    0.929107 0.302021 0.016557 0.115600
H25   H     H_    0.923544 0.692431 0.896081 0.108147
H26   H     H_    0.075253 0.191257 0.104087 0.106053
H27   H     H_    0.161808 0.872165 0.953326 0.131527
H28   H     H_    0.837837 0.371827 0.046659 0.131646
S1    S     S_3+6 0.545314 0.973798 0.059701 -0.042261
O21   O     O_2   0.618354 0.986358 0.056665 -0.265395
O22   O     O_2   0.522272 0.979505 0.859022 -0.330432
O23   O     O_3   0.504545 0.022610 0.204956 -0.561429
H29   H     H_    0.509520 0.060790 0.136904 0.367671
S2    S     S_3+6 0.452494 0.475392 0.912530 -0.041269
O24   O     O_2   0.380167 0.487785 0.893189 -0.269317
O25   O     O_2   0.468708 0.484274 0.118628 -0.325718
O26   O     O_3   0.497794 0.522131 0.770963 -0.563016
H30   H     H_    0.491345 0.561163 0.832684 0.367534
N5    N     N_R   0.688578 0.777195 0.099073 0.237070
O27   O     O_R   0.725328 0.745664 0.978397 -0.392214
O28   O     O_R   0.716501 0.817807 0.198399 -0.361542
N6    N     N_R   0.315919 0.274763 0.949715 0.236315
O29   O     O_R   0.263045 0.253278 0.877939 -0.385081
O30   O     O_R   0.310231 0.301637 0.115357 -0.373774

loop_
_geom_bond_atom_site_label_1
_geom_bond_atom_site_label_2
_geom_bond_distance
_ccdc_geom_bond_type
C52   C56   1.408464 A    
O11   V3    1.988526 S    
O13   V3    1.706260 S    
O4    C2    1.296749 A    
V1    O19   1.705275 S    
C23   C31   1.426059 A    
C13   C15   1.387909 A    
C45   H17   1.082980 S    
C40   H28   1.082695 S    
C57   C59   1.400621 A    
O9    V1    1.990686 S    
C47   H19   1.082707 S    
C15   H9    1.082759 S    
C40   C42   1.401785 A    
O3    C1    1.296479 A    
C6    C56   1.490936 S    
C58   H22   1.082681 S    
C50   C52   1.401624 A    
O12   V4    1.988319 S    
C16   H10   1.082769 S    
C14   C36   1.398102 A    
O10   C6    1.300500 A    
C2    O12   1.299061 A    
C19   C21   1.431664 A    
C60   H26   1.082959 S    
C41   H23   1.082299 S    
O7    C3    1.301560 A    
C59   H25   1.082947 S    
C56   C58   1.407433 A    
C27   N5    1.437720 S    
O13   V1    2.152416 S    
O5    C7    1.300898 A    
O7    V1    1.988045 S    
O6    C8    1.300969 A    
C18   C20   1.415870 A    
C30   H12   1.082947 S    
C51   C55   1.408497 A    
C24   C26   1.424133 A    
O3    V1    1.994989 S    
O14   V4    1.706368 S    
C7    C35   1.483476 S    
C43   N1    1.431732 S    
C49   C51   1.401692 A    
C9    C33   1.397755 A    
C14   H6    1.082353 S    
C10   C34   1.397788 A    
C15   C17   1.392145 A    
C53   C59   1.401613 A    
C16   C18   1.392129 A    
C28   N6    1.437270 S    
O1    V3    1.987271 S    
C45   C47   1.400667 A    
C26   C28   1.415990 A    
C54   N4    1.431677 S    
C20   C22   1.431577 A    
C27   C29   1.395235 A    
O17   V3    1.992045 S    
C13   C35   1.397737 A    
C28   C30   1.395112 A    
C24   C32   1.425715 A    
C4    C37   1.491435 S    
C41   C43   1.413117 A    
C44   C46   1.401552 A    
C50   C54   1.413121 A    
S1    O23   1.681998 S    
O8    V2    1.988266 S    
C43   C45   1.401585 A    
C49   C53   1.413137 A    
C1    O11   1.298893 A    
C32   H4    1.076920 S    
C23   C25   1.424274 A    
O15   V3    1.990877 S    
C25   C27   1.416212 A    
C44   N2    1.431649 S    
N6    O30   1.301360 A    
N5    O28   1.301353 A    
C49   H15   1.082282 S    
N1    N3    1.250495 D    
C17   C19   1.415903 A    
C22   C36   1.424870 A    
C19   C23   1.435899 A    
O10   V2    1.990573 S    
N2    N4    1.250460 D    
C46   H18   1.082990 S    
C42   C44   1.413111 A    
C12   C32   1.405850 A    
C34   S2    1.770071 S    
C39   C41   1.401871 A    
C11   C33   1.406182 A    
C38   C40   1.408623 A    
C12   C34   1.405870 A    
C17   H7    1.076038 S    
C13   H5    1.082152 S    
O18   V4    1.992105 S    
C46   C48   1.400624 A    
O15   C5    1.301541 A    
O8    C4    1.301580 A    
O26   H30   0.990701 S    
C48   H20   1.082706 S    
O16   C6    1.301551 A    
C18   H8    1.076100 S    
O1    C3    1.300624 A    
C2    C11   1.482544 S    
C37   C39   1.408661 A    
S2    O25   1.500722 D    
N5    O27   1.301499 A    
C50   H16   1.082285 S    
O23   H29   0.990653 S    
C21   C29   1.400822 A    
V2    O20   1.705167 S    
C22   C30   1.400861 A    
C57   H21   1.082686 S    
O16   V4    1.990654 S    
O18   C8    1.294308 A    
C31   H3    1.076792 S    
C38   C48   1.407493 A    
C14   C16   1.387933 A    
C21   C35   1.425020 A    
C11   C31   1.405932 A    
O5    V1    1.985129 S    
C9    C25   1.408981 A    
O6    V2    1.985342 S    
C20   C24   1.435727 A    
C10   C26   1.409088 A    
O2    V4    1.987382 S    
S2    O26   1.681567 S    
S1    O22   1.501026 D    
N6    O29   1.301471 A    
C54   C60   1.401560 A    
V3    O19   2.153321 S    
S1    O21   1.503307 D    
V4    O20   2.153473 S    
C58   C60   1.400561 A    
O9    C5    1.300555 A    
C9    H1    1.080381 S    
C1    C12   1.481364 S    
C5    C55   1.491053 S    
O14   V2    2.152264 S    
C53   N3    1.431782 S    
O2    C4    1.300655 A    
C29   H11   1.082990 S    
O4    V2    1.994930 S    
C39   H27   1.082686 S    
C3    C38   1.491306 S    
C10   H2    1.080343 S    
C33   S1    1.769884 S    
C55   C57   1.407409 A    
C42   H24   1.082300 S    
S2    O24   1.503315 D    
C37   C47   1.407500 A    
C52   H14   1.082691 S    
C51   H13   1.082686 S    
O17   C7    1.294328 A    
C8    C36   1.483428 S    
