data_mof_unit_3275.cif
_audit_creation_date              2013-03-05T15:39:44-0500
_audit_creation_method            fapswitch 2.2
_symmetry_space_group_name_H-M    P1
_symmetry_Int_Tables_number       1
_space_group_crystal_system       triclinic
_cell_length_a                    19.735437
_cell_length_b                    17.12663
_cell_length_c                    15.549316
_cell_angle_alpha                 89.998789
_cell_angle_beta                  52.438894
_cell_angle_gamma                 90.003406
_cell_volume                      4166.2066273

loop_
_atom_site_label
_atom_site_type_symbol
_atom_site_description
_atom_site_fract_x
_atom_site_fract_y
_atom_site_fract_z
_atom_type_partial_charge
C1    C     C_R   0.336934 0.172624 0.052256 -0.051238
C2    C     C_R   0.663055 0.827361 0.947769 -0.051430
C3    C     C_R   0.624078 0.197599 0.008065 -0.044033
C4    C     C_R   0.375916 0.802402 0.991942 -0.044071
C5    C     C_R   0.875961 0.697603 0.991895 -0.043863
C6    C     C_R   0.124044 0.302397 0.008098 -0.043879
C7    C     C_R   0.163119 0.672564 0.947632 -0.050590
C8    C     C_R   0.836881 0.327435 0.052366 -0.050588
H1    H     H_    0.323480 0.219496 0.106439 0.130771
H2    H     H_    0.676493 0.780469 0.893621 0.130967
H3    H     H_    0.613262 0.253395 0.986935 0.188148
H4    H     H_    0.386722 0.746607 0.013082 0.188155
H5    H     H_    0.886841 0.753401 0.012947 0.188158
H6    H     H_    0.113171 0.246600 0.987036 0.188152
H7    H     H_    0.176634 0.719364 0.893314 0.130080
H8    H     H_    0.823367 0.280634 0.106683 0.130084
N1    N     N_R   0.408680 0.130810 0.995780 -0.039075
N2    N     N_R   0.591320 0.869190 0.004220 -0.039115
N3    N     N_R   0.591320 0.130810 0.004220 -0.068075
N4    N     N_R   0.408680 0.869190 0.995780 -0.068066
N5    N     N_R   0.908680 0.630810 0.995780 -0.068114
N6    N     N_R   0.091320 0.369190 0.004220 -0.068114
N7    N     N_R   0.091320 0.630810 0.004220 -0.038952
N8    N     N_R   0.908680 0.369190 0.995780 -0.038951
C9    C     C_R   0.348844 0.827530 0.222077 0.341257
C10   C     C_R   0.651157 0.172468 0.777923 0.341274
C11   C     C_R   0.604998 0.801084 0.788916 0.269295
C12   C     C_R   0.395067 0.198934 0.211048 0.269097
C13   C     C_R   0.895296 0.301003 0.210929 0.268430
C14   C     C_R   0.104703 0.698997 0.789071 0.268423
C15   C     C_R   0.151175 0.327569 0.777915 0.341323
C16   C     C_R   0.848817 0.672421 0.222085 0.341319
N9    N     N_R   0.421410 0.867210 0.153620 -0.079771
N10   N     N_R   0.578590 0.132790 0.846380 -0.079760
N11   N     N_R   0.578590 0.867210 0.846380 -0.090438
N12   N     N_R   0.421410 0.132790 0.153620 -0.090432
N13   N     N_R   0.921410 0.367210 0.153620 -0.090430
N14   N     N_R   0.078590 0.632790 0.846380 -0.090431
N15   N     N_R   0.078590 0.367210 0.846380 -0.079726
N16   N     N_R   0.921410 0.632790 0.153620 -0.079725
C17   C     C_R   0.365676 0.889983 0.896783 -0.137809
C18   C     C_R   0.634322 0.110018 0.103218 -0.137807
C19   C     C_R   0.670663 0.914007 0.047912 -0.111860
C20   C     C_R   0.329334 0.085990 0.952093 -0.111895
C21   C     C_R   0.829313 0.414029 0.952138 -0.112015
C22   C     C_R   0.170687 0.585971 0.047861 -0.112036
C23   C     C_R   0.134315 0.389979 0.103226 -0.137751
C24   C     C_R   0.865688 0.610022 0.896771 -0.137708
H9    H     H_    0.362160 0.916468 0.836442 0.112459
H10   H     H_    0.637839 0.083533 0.163558 0.112460
H11   H     H_    0.690559 0.947547 0.087932 0.125268
H12   H     H_    0.309440 0.052452 0.912070 0.125281
H13   H     H_    0.809422 0.447561 0.912108 0.125387
H14   H     H_    0.190578 0.552439 0.087891 0.125368
H15   H     H_    0.137841 0.416462 0.163558 0.112621
H16   H     H_    0.862162 0.583537 0.836439 0.112658
N17   N     N_R   0.403840 0.921910 0.935760 -0.056547
N18   N     N_R   0.596160 0.078090 0.064240 -0.056548
N19   N     N_R   0.596160 0.921910 0.064240 -0.054333
N20   N     N_R   0.403840 0.078090 0.935760 -0.054341
N21   N     N_R   0.903840 0.421910 0.935760 -0.054371
N22   N     N_R   0.096160 0.578090 0.064240 -0.054368
N23   N     N_R   0.096160 0.421910 0.064240 -0.056588
N24   N     N_R   0.903840 0.578090 0.935760 -0.056597
C25   C     C_R   0.400297 0.106511 0.307870 -0.201035
C26   C     C_R   0.599742 0.893501 0.692109 -0.200965
C27   C     C_R   0.643520 0.078978 0.683696 -0.185030
C28   C     C_R   0.356479 0.921024 0.316303 -0.185029
C29   C     C_R   0.856486 0.578943 0.316300 -0.185114
C30   C     C_R   0.143513 0.421050 0.683698 -0.185106
C31   C     C_R   0.099554 0.606559 0.692212 -0.201251
C32   C     C_R   0.900447 0.393441 0.307787 -0.201245
H17   H     H_    0.405868 0.078196 0.365433 0.118659
H18   H     H_    0.594168 0.921810 0.634545 0.118649
H19   H     H_    0.654606 0.044080 0.618410 0.126642
H20   H     H_    0.345391 0.955925 0.381588 0.126641
H21   H     H_    0.845422 0.544029 0.381564 0.126629
H22   H     H_    0.154582 0.455964 0.618430 0.126634
H23   H     H_    0.093984 0.578222 0.634660 0.118724
H24   H     H_    0.906018 0.421777 0.365338 0.118722
N25   N     N_R   0.426250 0.076100 0.213650 -0.056058
N26   N     N_R   0.573750 0.923900 0.786350 -0.056064
N27   N     N_R   0.573750 0.076100 0.786350 -0.058963
N28   N     N_R   0.426250 0.923900 0.213650 -0.058960
N29   N     N_R   0.926250 0.576100 0.213650 -0.058973
N30   N     N_R   0.073750 0.423900 0.786350 -0.058971
N31   N     N_R   0.073750 0.576100 0.786350 -0.056046
N32   N     N_R   0.926250 0.423900 0.213650 -0.056044
C33   C     C_R   0.285570 0.145892 0.026073 0.091424
C34   C     C_R   0.714421 0.854098 0.973945 0.091481
C35   C     C_R   0.651994 0.186204 0.069123 0.115913
C36   C     C_R   0.348001 0.813798 0.930882 0.115905
C37   C     C_R   0.848035 0.686208 0.930850 0.115862
C38   C     C_R   0.151971 0.313793 0.069143 0.115881
C39   C     C_R   0.214480 0.645844 0.973823 0.091393
C40   C     C_R   0.785520 0.354155 0.026175 0.091355
C41   C     C_R   0.306621 0.860967 0.323964 -0.099933
C42   C     C_R   0.693379 0.139033 0.676036 -0.099938
C43   C     C_R   0.620286 0.816929 0.691476 -0.073795
C44   C     C_R   0.379797 0.183096 0.308482 -0.073625
C45   C     C_R   0.880107 0.316811 0.308329 -0.073018
C46   C     C_R   0.119893 0.683189 0.691671 -0.073012
C47   C     C_R   0.193369 0.360997 0.676022 -0.099840
C48   C     C_R   0.806629 0.638994 0.323978 -0.099800
Ni1   Ni    Ni4+2 0.500000 0.131570 0.000000 0.309971
Ni2   Ni    Ni4+2 0.500000 0.868430 0.000000 0.309942
Ni3   Ni    Ni4+2 0.000000 0.631570 0.000000 0.310045
Ni4   Ni    Ni4+2 0.000000 0.368430 0.000000 0.310049
Ni5   Ni    Ni4+2 0.488900 1.000000 0.862310 0.202180
Ni6   Ni    Ni4+2 0.511100 1.000000 0.137690 0.202183
Ni7   Ni    Ni4+2 0.988900 0.500000 0.862310 0.202214
Ni8   Ni    Ni4+2 0.011100 0.500000 0.137690 0.202210
C49   C     C_3   0.309281 0.206360 0.513696 -0.098866
C50   C     C_3   0.690684 0.793623 0.486304 -0.098772
C51   C     C_3   0.787092 0.151237 0.462244 -0.074301
C52   C     C_3   0.212906 0.848764 0.537756 -0.074301
C53   C     C_3   0.713465 0.651426 0.537655 -0.074092
C54   C     C_3   0.286650 0.348612 0.462320 -0.074120
C55   C     C_3   0.190829 0.706295 0.486315 -0.099162
C56   C     C_3   0.809174 0.293704 0.513685 -0.099167
C57   C     C_3   0.625556 0.688852 0.585384 -0.127053
C58   C     C_3   0.374519 0.311127 0.414674 -0.126825
C59   C     C_3   0.277625 0.743528 0.440544 -0.134237
C60   C     C_3   0.722377 0.256473 0.559458 -0.134244
C61   C     C_3   0.222329 0.243359 0.559762 -0.134405
C62   C     C_3   0.777678 0.756682 0.440155 -0.134465
C63   C     C_3   0.874811 0.188958 0.414891 -0.126078
C64   C     C_3   0.125189 0.811041 0.585108 -0.126069
H25   H     H_    0.561938 0.662704 0.647663 0.149194
H26   H     H_    0.438166 0.337252 0.352458 0.149245
H27   H     H_    0.341074 0.716241 0.380405 0.161064
H28   H     H_    0.658928 0.283761 0.619598 0.161062
H29   H     H_    0.158979 0.215960 0.620089 0.161365
H30   H     H_    0.841001 0.784109 0.379779 0.161444
H31   H     H_    0.938562 0.162930 0.352909 0.149409
H32   H     H_    0.061436 0.837068 0.647089 0.149413
H33   H     H_    0.318358 0.147491 0.535063 0.139156
H34   H     H_    0.681544 0.852469 0.464951 0.139141
H35   H     H_    0.777921 0.091948 0.442036 0.138862
H36   H     H_    0.222076 0.908054 0.557964 0.138862
H37   H     H_    0.722904 0.592252 0.557863 0.138993
H38   H     H_    0.277269 0.407810 0.442110 0.138966
H39   H     H_    0.181988 0.647341 0.464907 0.139253
H40   H     H_    0.818017 0.352658 0.535092 0.139258
C65   C     C_3   0.658392 0.765311 0.598965 0.170802
C66   C     C_3   0.341673 0.234710 0.401009 0.170911
C67   C     C_3   0.245912 0.820028 0.425057 0.156772
C68   C     C_3   0.754089 0.179972 0.574943 0.156779
C69   C     C_3   0.253999 0.320026 0.574945 0.156716
C70   C     C_3   0.746019 0.679973 0.425052 0.156700
C71   C     C_3   0.841924 0.265212 0.400911 0.171294
C72   C     C_3   0.158076 0.734788 0.599089 0.171291
C73   C     C_3   0.340719 0.283735 0.529776 -0.132472
C74   C     C_3   0.659258 0.716205 0.470304 -0.132362
C75   C     C_3   0.755452 0.228249 0.446542 -0.138883
C76   C     C_3   0.244547 0.771753 0.553460 -0.138886
C77   C     C_3   0.745054 0.728643 0.552963 -0.138061
C78   C     C_3   0.255051 0.271437 0.446929 -0.138248
C79   C     C_3   0.159347 0.783503 0.469932 -0.132784
C80   C     C_3   0.840655 0.216495 0.530066 -0.132786
H41   H     H_    0.374854 0.290367 0.565506 0.155934
H42   H     H_    0.625077 0.709518 0.434642 0.155852
H43   H     H_    0.721067 0.234002 0.410981 0.132837
H44   H     H_    0.278930 0.766001 0.589023 0.132839
H45   H     H_    0.779693 0.734695 0.588152 0.133369
H46   H     H_    0.220467 0.265446 0.411660 0.133247
H47   H     H_    0.125380 0.789916 0.433951 0.156238
H48   H     H_    0.874623 0.210080 0.566045 0.156240
C81   C     C_2   0.288838 0.685530 0.950689 -0.149648
C82   C     C_2   0.711161 0.314470 0.049310 -0.149547
C83   C     C_2   0.811394 0.744396 0.902513 -0.201450
C84   C     C_2   0.188614 0.255606 0.097481 -0.201456
C85   C     C_2   0.688623 0.244386 0.097492 -0.201523
C86   C     C_2   0.311372 0.755617 0.902513 -0.201527
C87   C     C_2   0.211215 0.185563 0.049197 -0.149273
C88   C     C_2   0.788778 0.814432 0.950817 -0.149279
H49   H     H_    0.312300 0.664417 0.993846 0.167304
H50   H     H_    0.687702 0.335581 0.006149 0.167323
H51   H     H_    0.789640 0.723831 0.857201 0.142737
H52   H     H_    0.210377 0.276177 0.142779 0.142648
H53   H     H_    0.710429 0.223787 0.142731 0.142391
H54   H     H_    0.289564 0.776216 0.857277 0.142402
H55   H     H_    0.187797 0.164475 0.005979 0.167374
H56   H     H_    0.812188 0.835516 0.994047 0.167376
N33   N     N_R   0.334674 0.749901 0.202632 0.207988
O1    O     O_R   0.395794 0.698612 0.159805 -0.361825
O2    O     O_R   0.258735 0.728014 0.237399 -0.445109
N34   N     N_R   0.665335 0.250093 0.797370 0.207990
O3    O     O_R   0.604223 0.301391 0.840185 -0.361804
O4    O     O_R   0.741275 0.271972 0.762607 -0.445103
N35   N     N_R   0.591000 0.725097 0.836325 0.215287
O5    O     O_R   0.543122 0.717438 0.941146 -0.383956
O6    O     O_R   0.626601 0.663245 0.776279 -0.416270
N36   N     N_R   0.409125 0.274912 0.163586 0.215297
O7    O     O_R   0.456831 0.282512 0.058768 -0.383981
O8    O     O_R   0.373964 0.336852 0.223576 -0.416104
N37   N     N_R   0.909550 0.225054 0.163299 0.215369
O9    O     O_R   0.956647 0.217654 0.058501 -0.384028
O10   O     O_R   0.875958 0.162835 0.223048 -0.415534
N38   N     N_R   0.090448 0.774946 0.836703 0.215369
O11   O     O_R   0.043355 0.782345 0.941500 -0.384038
O12   O     O_R   0.124034 0.837166 0.776955 -0.415529
N39   N     N_R   0.165436 0.249984 0.797381 0.207886
O13   O     O_R   0.104380 0.198617 0.840196 -0.361930
O14   O     O_R   0.241427 0.228183 0.762488 -0.445037
N40   N     N_R   0.834537 0.749997 0.202618 0.207858
O15   O     O_R   0.895581 0.801377 0.159798 -0.362004
O16   O     O_R   0.758532 0.771785 0.237549 -0.444996

loop_
_geom_bond_atom_site_label_1
_geom_bond_atom_site_label_2
_geom_bond_distance
_ccdc_geom_bond_type
N16   N29   1.389874 A    
C2    H2    1.073320 S    
C14   N38   1.437239 S    
N39   O13   1.300343 A    
C27   N27   1.329120 A    
N8    N21   1.343145 A    
C2    N2    1.331546 A    
C55   H39   1.109742 S    
N13   N32   1.389892 A    
C29   H21   1.079299 S    
C8    C40   1.380608 A    
C24   H16   1.081784 S    
N29   Ni8   1.867287 S    
C67   C79   1.530782 S    
C18   N18   1.337942 A    
N33   O2    1.300358 A    
C31   H23   1.080919 S    
C51   C63   1.549898 S    
C21   C40   1.382225 A    
C80   H48   1.109813 S    
C60   C68   1.533006 S    
C11   C43   1.379463 A    
C82   H50   1.083654 S    
N34   O4    1.300357 A    
C30   H22   1.079302 S    
C63   H31   1.110055 S    
C64   H32   1.110053 S    
C23   N23   1.337965 A    
C50   C62   1.536524 S    
C19   H11   1.081329 S    
C24   N24   1.337963 A    
C49   C61   1.536526 S    
C32   C45   1.370925 A    
C6    N6    1.333001 A    
C34   C88   1.449480 S    
N14   Ni3   1.896008 S    
N19   Ni6   1.890477 S    
C25   H17   1.080914 S    
C35   C85   1.448729 S    
C3    C35   1.371412 A    
C18   C35   1.371021 A    
C54   C58   1.549833 S    
C48   C70   1.449651 S    
N23   Ni8   1.890477 S    
C2    C34   1.380600 A    
C53   C57   1.549812 S    
C28   C41   1.377435 A    
N5    N24   1.343164 A    
C69   C73   1.530772 S    
N20   Ni5   1.890477 S    
C27   C42   1.377430 A    
C38   C84   1.448709 S    
N6    N23   1.343162 A    
C10   N34   1.428399 S    
C10   N10   1.336831 A    
N7    N22   1.343143 A    
N17   Ni5   1.890303 S    
C22   C39   1.382226 A    
C72   C76   1.529736 S    
C44   C66   1.448377 S    
N38   O11   1.299522 A    
C6    C38   1.371369 A    
C56   H40   1.109742 S    
C12   N36   1.437061 S    
C81   C86   1.339219 D    
C16   C48   1.386645 A    
C3    N3    1.333047 A    
C53   C70   1.531634 S    
N8    Ni4   1.843023 S    
C71   C75   1.529735 S    
C4    H4    1.073382 S    
C57   H25   1.110065 S    
C15   N39   1.428397 S    
C7    N7    1.331609 A    
C84   C87   1.339219 D    
C19   N19   1.337769 A    
C63   C71   1.531723 S    
C12   C44   1.379506 A    
N22   Ni8   1.890300 S    
C58   C66   1.531688 S    
N36   O7    1.299572 A    
C43   C65   1.448291 S    
C21   H13   1.081327 S    
C8    H8    1.073418 S    
C40   C82   1.449550 S    
C41   C67   1.449723 S    
C83   H51   1.083308 S    
C11   N35   1.437010 S    
C62   H30   1.110530 S    
C17   H9    1.081787 S    
C32   N32   1.328612 A    
N11   N26   1.389877 A    
C64   C72   1.531723 S    
N4    Ni2   1.843023 S    
C59   C76   1.531401 S    
N3    N18   1.343143 A    
N15   Ni4   1.896011 S    
C19   C34   1.382220 A    
C57   C74   1.553283 S    
C53   C77   1.541122 S    
N35   O5    1.299566 A    
C28   N28   1.329119 A    
N26   Ni5   1.867287 S    
C1    H1    1.073342 S    
C50   C65   1.532598 S    
N13   Ni4   1.896008 S    
C24   C37   1.371031 A    
C77   H45   1.110631 S    
N40   O15   1.300345 A    
N24   Ni7   1.890477 S    
C49   C73   1.546812 S    
C7    H7    1.073419 S    
C11   N11   1.336020 A    
C58   H26   1.110064 S    
C51   C68   1.531597 S    
C45   C71   1.448608 S    
N28   Ni6   1.867114 S    
C73   H41   1.109826 S    
N34   O3    1.300335 A    
C4    N4    1.333047 A    
C26   C43   1.370948 A    
C15   C47   1.386640 A    
C54   C69   1.531623 S    
C53   H37   1.109907 S    
N35   O6    1.299186 A    
N1    Ni1   1.843022 S    
C26   N26   1.328584 A    
N39   O14   1.300371 A    
C25   N25   1.328599 A    
N12   N25   1.389874 A    
N7    Ni3   1.843021 S    
C22   H14   1.081328 S    
N27   Ni5   1.867114 S    
N36   O8    1.299213 A    
C13   C45   1.379639 A    
C61   C78   1.531341 S    
C20   N20   1.337775 A    
C39   C81   1.449549 S    
C76   H44   1.110616 S    
N5    Ni3   1.843022 S    
C9    N33   1.428399 S    
C14   C46   1.379639 A    
C10   C42   1.386628 A    
N16   Ni3   1.896011 S    
C31   N31   1.328610 A    
N3    Ni1   1.843021 S    
C9    C41   1.386633 A    
C31   C46   1.370928 A    
C22   N22   1.337791 A    
C13   N37   1.437236 S    
C81   H49   1.083653 S    
C52   C64   1.549900 S    
C58   C73   1.553263 S    
C57   C65   1.531669 S    
C54   C78   1.541132 S    
C27   H19   1.079295 S    
N10   N27   1.389895 A    
C33   C87   1.449503 S    
C16   N40   1.428396 S    
C30   N30   1.329052 A    
C16   N16   1.336845 A    
C29   N29   1.329029 A    
C78   H46   1.110630 S    
C23   H15   1.081786 S    
C46   C72   1.448608 S    
C83   C88   1.339214 D    
C29   C48   1.377348 A    
C61   H29   1.110534 S    
C55   C72   1.532662 S    
C88   H56   1.083654 S    
C37   C83   1.448696 S    
C56   C71   1.532663 S    
C1    C33   1.380601 A    
C18   H10   1.081786 S    
C59   H27   1.110537 S    
N12   Ni1   1.896011 S    
N18   Ni6   1.890300 S    
C87   H55   1.083653 S    
C5    H5    1.073396 S    
C74   H42   1.109828 S    
C55   C79   1.546760 S    
N9    Ni2   1.896008 S    
C25   C44   1.370956 A    
C59   C67   1.533006 S    
C54   H38   1.109910 S    
C20   H12   1.081327 S    
C52   C67   1.531596 S    
C5    C37   1.371360 A    
C66   C78   1.529661 S    
C86   H54   1.083302 S    
C55   C59   1.536507 S    
C52   H36   1.109908 S    
C28   H20   1.079300 S    
C68   C80   1.530781 S    
C7    C39   1.380604 A    
C65   C77   1.529633 S    
C1    N1    1.331562 A    
N15   N30   1.389876 A    
N14   N31   1.389897 A    
C36   C86   1.448726 S    
C62   C77   1.531318 S    
N37   O10   1.298879 A    
N30   Ni7   1.867289 S    
C51   C75   1.541147 S    
C17   N17   1.337937 A    
C6    H6    1.073404 S    
C32   H24   1.080919 S    
N11   Ni2   1.896011 S    
C56   C80   1.546759 S    
N31   Ni7   1.867112 S    
C62   C70   1.533085 S    
C84   H52   1.083308 S    
N33   O1    1.300336 A    
C42   C68   1.449724 S    
N2    Ni2   1.843020 S    
C60   H28   1.110536 S    
N21   Ni7   1.890303 S    
N6    Ni4   1.843020 S    
N10   Ni1   1.896008 S    
C21   N21   1.337789 A    
C8    N8    1.331614 A    
C23   C38   1.371036 A    
C79   H47   1.109812 S    
C49   H33   1.109748 S    
C50   H34   1.109748 S    
N37   O9    1.299522 A    
C61   C69   1.533073 S    
N9    N28   1.389893 A    
C52   C76   1.541148 S    
C49   C66   1.532617 S    
C3    H3    1.073392 S    
C47   C69   1.449679 S    
N1    N20   1.343164 A    
C85   H53   1.083304 S    
N32   Ni8   1.867116 S    
N2    N19   1.343162 A    
C17   C36   1.371017 A    
C5    N5    1.332994 A    
N25   Ni6   1.867287 S    
C12   N12   1.336057 A    
C75   H43   1.110615 S    
C70   C74   1.530763 S    
C60   C75   1.531402 S    
C13   N13   1.336185 A    
C15   N15   1.336845 A    
C14   N14   1.336185 A    
C4    C36   1.371410 A    
N4    N17   1.343145 A    
C51   H35   1.109907 S    
N40   O16   1.300375 A    
C63   C80   1.553183 S    
C50   C74   1.546821 S    
N38   O12   1.298879 A    
C20   C33   1.382226 A    
C56   C60   1.536507 S    
C64   C79   1.553182 S    
C9    N9    1.336827 A    
C30   C47   1.377374 A    
C82   C85   1.339218 D    
C26   H18   1.080912 S    
