data_mof_unit_3866.cif
_audit_creation_date              2012-12-10T20:31:01-0500
_audit_creation_method            fapswitch 2.2
_symmetry_space_group_name_H-M    P1
_symmetry_Int_Tables_number       1
_space_group_crystal_system       triclinic
_cell_length_a                    14.906924
_cell_length_b                    10.677531
_cell_length_c                    9.891154
_cell_angle_alpha                 90.252908
_cell_angle_beta                  90.692662
_cell_angle_gamma                 90.158328
_cell_volume                      1574.22987933

loop_
_atom_site_label
_atom_site_type_symbol
_atom_type_description
_atom_site_fract_x
_atom_site_fract_y
_atom_site_fract_z
_atom_type_partial_charge
C1    C     C_R   0.502177 0.260198 0.499788 0.966042
C2    C     C_R   0.185747 0.408612 0.423735 0.576038
C3    C     C_R   0.231565 0.500741 0.497566 -0.362387
C4    C     C_R   0.327057 0.500083 0.499291 1.054674
C5    C     C_R   0.186960 0.593237 0.570188 0.522680
C6    C     C_R   0.491723 0.064565 0.619056 -0.177807
C7    C     C_R   0.512620 0.128482 0.501300 -0.138994
C8    C     C_R   0.547522 0.063668 0.389740 0.603711
C9    C     C_R   0.547142 0.934041 0.390659 -0.243233
C10   C     C_R   0.513025 0.871319 0.503135 -0.166626
C11   C     C_R   0.493502 0.936745 0.620929 -0.115575
C12   C     C_R   0.907183 0.594772 0.569764 0.144516
C13   C     C_3   0.411406 0.930507 0.708362 0.347532
C14   C     C_3   0.409949 0.072950 0.705354 0.450560
C15   C     C_R   0.441869 0.424992 0.069837 -0.014948
C16   C     C_R   0.501979 0.739781 0.500437 0.915080
C17   C     C_R   0.562311 0.565426 0.074213 0.529817
C18   C     C_R   0.565988 0.559761 0.929879 0.424613
C19   C     C_R   0.440729 0.427001 0.927592 -0.009598
C20   C     C_3   0.340774 0.433903 0.922497 1.002172
C21   C     C_3   0.342042 0.428121 0.076335 -0.504857
C22   C     C_R   0.672907 0.500137 0.500411 0.864710
C23   C     C_R   0.950710 0.316095 0.351258 -0.330068
C24   C     C_R   0.814329 0.594231 0.569365 -0.271331
C25   C     C_R   0.768185 0.500047 0.500186 -0.042290
C26   C     C_R   0.812406 0.408222 0.426343 -0.211345
C27   C     C_R   0.905254 0.407915 0.424282 0.025102
C28   C     C_R   0.953084 0.501093 0.496947 0.142433
C29   C     C_3   0.507925 0.895747 0.899152 -0.152284
C30   C     C_3   0.716110 0.564800 0.890193 -0.235402
C31   C     C_3   0.209071 0.335250 0.855550 -0.126085
C32   C     C_R   0.043888 0.315590 0.349909 0.720322
C33   C     C_R   0.092443 0.407532 0.422493 -0.174732
C34   C     C_R   0.046556 0.500926 0.496434 -0.190386
C35   C     C_R   0.094008 0.594261 0.570053 0.002214
C36   C     C_R   0.047743 0.686767 0.641887 -0.081968
C37   C     C_R   0.954608 0.687188 0.641362 -0.248305
F1    F     F_    0.336493 0.118743 0.634261 -0.614768
F2    F     F_    0.619644 0.640749 0.144605 -0.655738
F3    F     F_    0.310497 0.547511 0.871740 -0.619364
F4    F     F_    0.085864 0.225151 0.277577 -0.598026
F5    F     F_    0.232734 0.318900 0.357208 -0.589919
F6    F     F_    0.234373 0.682769 0.638753 -0.626006
F7    F     F_    0.577093 0.124246 0.278275 -0.662855
H1    H     H_    0.777666 0.667864 0.620229 0.159344
H2    H     H_    0.919682 0.759223 0.697360 0.157438
H3    H     H_    0.526892 0.996141 0.906749 0.129125
H4    H     H_    0.559313 0.842827 0.842464 0.209224
H5    H     H_    0.507239 0.857881 0.003403 0.207862
H6    H     H_    0.770199 0.621855 0.845644 0.175578
H7    H     H_    0.718414 0.469436 0.844715 0.161182
H8    H     H_    0.732325 0.559188 0.999824 0.196151
H9    H     H_    0.186264 0.411695 0.787657 0.182031
H10   H     H_    0.181324 0.348426 0.958547 0.156011
H11   H     H_    0.181406 0.246241 0.814281 0.205327
H12   H     H_    0.569248 0.883519 0.301883 0.215063
H13   H     H_    0.353257 0.887451 0.653883 0.195334
H14   H     H_    0.422029 0.120843 0.803804 0.126521
H15   H     H_    0.316427 0.514772 0.124984 0.219031
H16   H     H_    0.774335 0.336970 0.371797 0.164363
H17   H     H_    0.314639 0.339414 0.117483 0.252990
H18   H     H_    0.914065 0.244614 0.295195 0.186905
H19   H     H_    0.083345 0.758828 0.698479 0.211428
N1    N     N_R   0.499390 0.499140 0.142800 -0.150292
N2    N     N_R   0.499390 0.499180 0.857150 -0.160168
O1    O     O_R   0.500010 0.316790 0.614690 -0.637778
O2    O     O_3   0.632774 0.622934 0.862365 -0.585497
O3    O     O_3   0.303476 0.326846 0.858405 -0.618902
O4    O     O_R   0.500000 0.316760 0.385350 -0.555535
O5    O     O_R   0.367850 0.499990 0.614680 -0.525040
O6    O     O_R   0.367840 0.499950 0.385340 -0.620787
O7    O     O_R   0.500000 0.683240 0.614650 -0.569971
O8    O     O_R   0.499990 0.683210 0.385310 -0.597135
O9    O     O_R   0.632160 0.500050 0.614660 -0.610397
O10   O     O_R   0.632150 0.500010 0.385320 -0.568598
O11   O     O_3   0.421616 0.878845 0.840616 -0.571920
Zn1   Zn    Zn3+2 0.500010 0.500020 0.653130 1.070766
Zn2   Zn    Zn3+2 0.499990 0.499980 0.346870 1.063028

loop_
_geom_bond_atom_site_label_1
_geom_bond_atom_site_label_2
_ccdc_geom_bond_type
C30   H7    S    
C19   C20   S    
C16   O7    A    
C4    O5    A    
C15   N1    A    
C7    C8    A    
C29   O11   S    
C29   H5    S    
C18   N2    A    
C15   C19   A    
C26   C27   A    
C29   H3    S    
C24   H1    S    
C36   C37   A    
C21   H15   S    
C17   N1    A    
C20   F3    S    
C13   H13   S    
C34   C35   A    
C17   F2    S    
C12   C37   A    
C23   H18   S    
C35   C36   A    
C8    C9    A    
C22   C25   S    
C32   F4    S    
C23   C27   A    
C36   H19   S    
C9    C10   A    
C21   H17   S    
C30   O2    S    
C5    F6    S    
C28   C34   A    
C13   C14   S    
O5    Zn1   S    
O4    Zn2   S    
C22   O10   A    
C33   C34   A    
C31   O3    S    
C14   H14   S    
N2    Zn1   S    
C29   H4    S    
C16   O8    A    
C24   C25   A    
C6    C11   A    
C18   O2    S    
O9    Zn1   S    
C1    O4    A    
C1    O1    A    
O7    Zn1   S    
C6    C14   S    
C13   O11   S    
O8    Zn2   S    
C17   C18   A    
C9    H12   S    
C31   H9    S    
C2    C33   A    
C12   C28   A    
C22   O9    A    
C14   F1    S    
O1    Zn1   S    
C30   H8    S    
C1    C7    S    
N1    Zn2   S    
C20   O3    S    
C8    F7    S    
C3    C5    A    
C6    C7    A    
C12   C24   A    
C23   C32   A    
C2    C3    A    
C25   C26   A    
C10   C16   S    
C32   C33   A    
C11   C13   S    
C2    F5    S    
C5    C35   A    
C19   N2    A    
O6    Zn2   S    
C31   H10   S    
C30   H6    S    
O10   Zn2   S    
C10   C11   A    
C15   C21   S    
C20   C21   S    
C27   C28   A    
C31   H11   S    
C37   H2    S    
C26   H16   S    
C4    O6    A    
C3    C4    S    
