data_mof_unit_405.cif
_audit_creation_date              2013-03-05T16:41:35-0500
_audit_creation_method            fapswitch 2.2
_symmetry_space_group_name_H-M    P1
_symmetry_Int_Tables_number       1
_space_group_crystal_system       triclinic
_cell_length_a                    12.868343
_cell_length_b                    10.701539
_cell_length_c                    9.882108
_cell_angle_alpha                 88.448624
_cell_angle_beta                  97.45865
_cell_angle_gamma                 90.823887
_cell_volume                      1348.78542944

loop_
_atom_site_label
_atom_site_type_symbol
_atom_site_description
_atom_site_fract_x
_atom_site_fract_y
_atom_site_fract_z
_atom_type_partial_charge
O1    O     O_R   0.500010 0.316790 0.614690 -0.615976
O2    O     O_R   0.500000 0.316760 0.385350 -0.585892
C1    C     C_R   0.510162 0.260240 0.502804 0.927218
O3    O     O_R   0.346360 0.499990 0.595720 -0.567524
O4    O     O_R   0.346350 0.499960 0.366370 -0.590678
C2    C     C_R   0.299721 0.517706 0.472365 0.948343
Zn1   Zn    Zn3+2 0.500010 0.500020 0.653130 1.043138
Zn2   Zn    Zn3+2 0.499990 0.499980 0.346870 1.051708
O5    O     O_R   0.500000 0.683240 0.614650 -0.593138
O6    O     O_R   0.499990 0.683210 0.385310 -0.588835
O7    O     O_R   0.653650 0.500040 0.633630 -0.592503
O8    O     O_R   0.653640 0.500010 0.404280 -0.585374
C3    C     C_R   0.507054 0.740134 0.499141 0.936157
C4    C     C_R   0.702627 0.495958 0.526431 0.924390
C5    C     C_R   0.816547 0.500536 0.539960 -0.132647
C6    C     C_R   0.189010 0.548963 0.452495 -0.216973
C7    C     C_R   0.022736 0.529768 0.313441 -0.149969
C8    C     C_R   0.129744 0.543615 0.322354 0.238360
C9    C     C_R   0.138476 0.577232 0.566130 0.239253
C10   C     C_R   0.030721 0.554641 0.558522 0.058022
C11   C     C_R   0.973854 0.522452 0.431744 -0.004420
C12   C     C_R   0.868908 0.487047 0.424167 0.256908
C13   C     C_R   0.873119 0.531879 0.665299 -0.193910
C14   C     C_R   0.979460 0.557755 0.675036 -0.068188
H1    H     H_    0.979044 0.523740 0.212716 0.225108
C15   C     C_R   0.538267 0.058584 0.627600 0.093689
C16   C     C_R   0.539347 0.129961 0.508396 -0.281953
C17   C     C_R   0.572182 0.070274 0.394843 0.254904
C18   C     C_R   0.567161 0.938986 0.389701 0.234159
C19   C     C_R   0.532077 0.871233 0.500717 -0.238365
C20   C     C_R   0.531909 0.932260 0.622385 0.073965
C21   C     C_3   0.467436 0.919360 0.736764 -0.385788
C22   C     C_3   0.479158 0.060412 0.747314 0.080386
H2    H     H_    0.385613 0.888535 0.701869 0.204398
C23   C     C_R   0.415229 0.455979 0.058300 0.213874
N1    N     N_R   0.499290 0.499140 0.142710 -0.125094
C24   C     C_R   0.576829 0.558873 0.084001 -0.037430
C25   C     C_R   0.575847 0.561875 0.940471 0.295119
N2    N     N_R   0.499290 0.499180 0.857070 -0.157923
C26   C     C_R   0.413835 0.458281 0.915758 0.196971
C27   C     C_3   0.364363 0.331514 0.906577 0.075258
C28   C     C_3   0.368578 0.328217 0.060927 -0.461002
H3    H     H_    0.290584 0.326863 0.097541 0.258917
H4    H     H_    0.424117 0.257999 0.112064 0.232730
Br1   Br    Br    0.804972 0.406427 0.259359 -0.399468
H5    H     H_    0.507645 0.865575 0.825765 0.270958
H6    H     H_    0.403390 0.110030 0.725876 0.139153
Br2   Br    Br    0.576344 0.105559 0.905926 -0.359673
H7    H     H_    0.639704 0.604495 0.148064 0.215416
Br3   Br    Br    0.678676 0.665862 0.869608 -0.430248
Br4   Br    Br    0.222074 0.330637 0.813398 -0.411479
H8    H     H_    0.415483 0.264222 0.867989 0.165164
H9    H     H_    0.835288 0.537295 0.756201 0.226945
H10   H     H_    0.020553 0.579060 0.774386 0.224202
Br5   Br    Br    0.185150 0.563252 0.151258 -0.420833
Br6   Br    Br    0.212970 0.660498 0.722641 -0.439652
Br7   Br    Br    0.629269 0.162626 0.251553 -0.302202
Br8   Br    Br    0.608685 0.858976 0.232481 -0.367675

loop_
_geom_bond_atom_site_label_1
_geom_bond_atom_site_label_2
_geom_bond_distance
_ccdc_geom_bond_type
C9    Br6   1.941710 S    
O4    Zn2   2.011201 S    
C13   C14   1.383811 A    
C13   H9    1.079097 S    
C18   C19   1.417461 A    
C25   Br3   1.906765 S    
N1    C24   1.361129 A    
C24   H7    1.079902 S    
C27   C28   1.518686 S    
C27   H8    1.091030 S    
C20   C21   1.488853 S    
C19   C20   1.383970 A    
Zn2   O8    1.984951 S    
C7    H1    1.080829 S    
C21   C22   1.519881 S    
C9    C10   1.396820 A    
C1    C16   1.446848 S    
C23   C26   1.405948 A    
C15   C20   1.355136 A    
C5    C12   1.412845 A    
C21   H5    1.111566 S    
O1    Zn1   2.007372 S    
C17   Br7   1.922212 S    
C10   C11   1.414868 A    
Zn1   O7    2.011200 S    
C15   C16   1.387991 A    
C24   C25   1.416296 A    
C28   H4    1.109932 S    
C8    Br5   1.923728 S    
O3    Zn1   1.984952 S    
O3    C2    1.297275 A    
C26   C27   1.490209 S    
C23   C28   1.486255 S    
O8    C4    1.287153 A    
C7    C8    1.374498 A    
O2    C1    1.286472 A    
C6    C9    1.410334 A    
O4    C2    1.292478 A    
C22   H6    1.110236 S    
O7    C4    1.303067 A    
O2    Zn2   1.987136 S    
C28   H3    1.109968 S    
C5    C13   1.399292 A    
C14   H10   1.081377 S    
C10   C14   1.400667 A    
C3    C19   1.434969 S    
C16   C17   1.419653 A    
C12   Br1   1.944620 S    
C25   N2    1.378437 A    
C18   Br8   1.932162 S    
C6    C8    1.409602 A    
Zn2   N1    2.016646 S    
N2    C26   1.369373 A    
Zn1   O5    1.987136 S    
C22   Br2   1.941388 S    
Zn1   N2    2.016356 S    
C4    C5    1.454900 S    
C17   C18   1.407526 A    
O5    C3    1.292123 A    
C15   C22   1.487882 S    
C11   C12   1.390516 A    
C2    C6    1.455220 S    
C27   Br4   1.939809 S    
Zn2   O6    2.007369 S    
C7    C11   1.397537 A    
C23   N1    1.360698 A    
O1    C1    1.296842 A    
O6    C3    1.285960 A    
C21   H2    1.112783 S    
