data_mof_unit_4403.cif
_audit_creation_date              2012-12-11T14:13:18-0500
_audit_creation_method            fapswitch 2.2
_symmetry_space_group_name_H-M    P1
_symmetry_Int_Tables_number       1
_space_group_crystal_system       triclinic
_cell_length_a                    11.668589
_cell_length_b                    18.70356
_cell_length_c                    10.087919
_cell_angle_alpha                 90.427149
_cell_angle_beta                  110.491277
_cell_angle_gamma                 89.975549
_cell_volume                      2062.25943522

loop_
_atom_site_label
_atom_site_type_symbol
_atom_type_description
_atom_site_fract_x
_atom_site_fract_y
_atom_site_fract_z
_atom_type_partial_charge
C1    C     C_R   0.073362 0.645932 0.140435 0.561705
C2    C     C_R   0.920017 0.355889 0.857506 0.577091
C3    C     C_R   0.926076 0.146305 0.859044 0.597683
C4    C     C_R   0.073909 0.853685 0.140955 0.595434
C5    C     C_R   0.445460 0.474472 0.591421 0.003359
C6    C     C_R   0.561487 0.526975 0.409876 0.012612
C7    C     C_R   0.604310 0.959159 0.511387 -0.004516
C8    C     C_R   0.395701 0.040836 0.488622 -0.004759
C9    C     C_2   0.406378 0.923681 0.922656 -0.125789
C10   C     C_2   0.593630 0.076312 0.077319 -0.125702
C11   C     C_2   0.608510 0.429305 0.060087 -0.098755
C12   C     C_2   0.381403 0.566253 0.965172 -0.099003
C13   C     C_2   0.493146 0.962885 0.015150 -0.155744
C14   C     C_2   0.506886 0.037101 0.984803 -0.155549
C15   C     C_2   0.499075 0.458455 0.025037 -0.182806
C16   C     C_2   0.488466 0.534778 0.995500 -0.189693
C17   C     C_2   0.003819 0.920119 0.111350 0.018517
C18   C     C_2   0.996119 0.079849 0.888650 0.017903
C19   C     C_2   0.968421 0.428443 0.877035 -0.001318
C20   C     C_2   0.007430 0.577217 0.114762 -0.008839
C21   C     C_2   0.032467 0.966504 0.025691 -0.196157
C22   C     C_2   0.967604 0.033531 0.974519 -0.196657
C23   C     C_2   0.931942 0.473066 0.959303 -0.222163
C24   C     C_2   0.972286 0.547742 0.984903 -0.212564
C25   C     C_R   0.437159 0.637968 0.376920 0.532209
C26   C     C_R   0.563105 0.362083 0.621958 0.528586
C27   C     C_R   0.530282 0.146924 0.557320 0.542924
C28   C     C_R   0.469722 0.853074 0.442685 0.543763
C29   C     C_R   0.372000 0.642652 0.971076 0.553093
C30   C     C_R   0.624772 0.354929 0.035537 0.543072
C31   C     C_R   0.623648 0.145479 0.035561 0.549853
C32   C     C_R   0.376354 0.854518 0.964433 0.551286
C33   C     C_R   0.545164 0.437462 0.576214 -0.017687
C34   C     C_R   0.457874 0.562725 0.421816 -0.016863
C35   C     C_R   0.496455 0.924867 0.509977 -0.019780
C36   C     C_R   0.503557 0.075130 0.490040 -0.019812
C37   C     C_R   0.394273 0.453732 0.692010 -0.128200
C38   C     C_R   0.621310 0.550355 0.317673 -0.129703
C39   C     C_R   0.712681 0.920218 0.532946 -0.140001
C40   C     C_R   0.287318 0.079773 0.467013 -0.139454
C41   C     C_R   0.287628 0.482496 0.696065 -0.021905
C42   C     C_R   0.732835 0.523534 0.323052 -0.037537
C43   C     C_R   0.810419 0.950874 0.505981 -0.012565
C44   C     C_R   0.189540 0.049104 0.493874 -0.011970
C45   C     C_R   0.231235 0.537158 0.606528 0.296300
C46   C     C_R   0.785613 0.468362 0.413308 0.287183
C47   C     C_R   0.803592 0.021211 0.459819 0.271252
C48   C     C_R   0.196361 0.978768 0.540036 0.271214
C49   C     C_R   0.280980 0.558599 0.506053 -0.089113
C50   C     C_R   0.726479 0.443476 0.502403 -0.095153
C51   C     C_R   0.700551 0.062303 0.450578 -0.095245
C52   C     C_R   0.299441 0.937690 0.549389 -0.095148
C53   C     C_R   0.393939 0.532284 0.504228 -0.035287
C54   C     C_R   0.610810 0.468314 0.496277 -0.027790
C55   C     C_R   0.602810 0.032995 0.484342 -0.026888
C56   C     C_R   0.397201 0.967002 0.515670 -0.026883
Cr1   Cr    Cr6+3 0.187610 0.750000 0.979860 1.024106
Cr2   Cr    Cr6+3 0.812390 0.250000 0.020140 1.026633
Cr3   Cr    Cr6+3 0.245810 0.750000 0.341640 1.031297
Cr4   Cr    Cr6+3 0.754190 0.250000 0.658360 1.034813
Cr5   Cr    Cr6+3 0.485760 0.750000 0.219910 1.040142
Cr6   Cr    Cr6+3 0.514240 0.250000 0.780090 1.047403
H1    H     H_    0.255467 0.463902 0.776530 0.143238
H2    H     H_    0.773821 0.544103 0.250607 0.154567
H3    H     H_    0.888926 0.918246 0.515085 0.207898
H4    H     H_    0.110997 0.081719 0.484676 0.208453
H5    H     H_    0.437470 0.415660 0.771570 0.169510
H6    H     H_    0.583323 0.589638 0.238392 0.170016
H7    H     H_    0.720806 0.865075 0.567065 0.140866
H8    H     H_    0.279199 0.134917 0.432896 0.141855
H9    H     H_    0.228318 0.594003 0.428479 0.187948
H10   H     H_    0.775094 0.407791 0.580724 0.175805
H11   H     H_    0.694545 0.115737 0.408529 0.125778
H12   H     H_    0.305443 0.884259 0.591450 0.125529
H13   H     H_    0.449637 0.058622 0.883184 0.181052
H14   H     H_    0.550409 0.941362 0.116762 0.180997
H15   H     H_    0.569392 0.566335 0.004794 0.137212
H16   H     H_    0.417886 0.425291 0.003657 0.140953
H17   H     H_    0.654520 0.052699 0.174022 0.109725
H18   H     H_    0.345473 0.947295 0.825961 0.109659
H19   H     H_    0.300669 0.535631 0.958929 0.090380
H20   H     H_    0.688470 0.462728 0.078324 0.096936
H21   H     H_    0.891459 0.046773 0.008000 0.136583
H22   H     H_    0.108763 0.953330 0.992429 0.136695
H23   H     H_    0.980557 0.577880 0.897174 0.165893
H24   H     H_    0.872710 0.453254 0.013443 0.143161
O1    O     O_R   0.267710 0.668200 0.902110 -0.495553
O2    O     O_R   0.732290 0.331800 0.097890 -0.503856
O3    O     O_R   0.732290 0.168200 0.097890 -0.528811
O4    O     O_R   0.267710 0.831800 0.902110 -0.528841
O5    O     O_R   0.099480 0.674460 0.038850 -0.516857
O6    O     O_R   0.900520 0.325540 0.961150 -0.512477
O7    O     O_R   0.900520 0.174460 0.961150 -0.513516
O8    O     O_R   0.099480 0.825540 0.038850 -0.514482
O9    O     O_R   0.116720 0.669210 0.267660 -0.506476
O10   O     O_R   0.883280 0.330790 0.732340 -0.506411
O11   O     O_R   0.883280 0.169210 0.732340 -0.468922
O12   O     O_R   0.116720 0.830790 0.267660 -0.470845
O13   O     O_R   0.366710 0.675440 0.427590 -0.518814
O14   O     O_R   0.633290 0.324560 0.572410 -0.518068
O15   O     O_R   0.633290 0.175440 0.572410 -0.509184
O16   O     O_R   0.366710 0.824560 0.427590 -0.508513
O17   O     O_R   0.534870 0.669390 0.371760 -0.509028
O18   O     O_R   0.465130 0.330610 0.628240 -0.501587
O19   O     O_R   0.465130 0.169390 0.628240 -0.500520
O20   O     O_R   0.534870 0.830610 0.371760 -0.501250
O21   O     O_R   0.453080 0.674480 0.075160 -0.533038
O22   O     O_R   0.546920 0.325520 0.924840 -0.530979
O23   O     O_R   0.546920 0.174480 0.924840 -0.485712
O24   O     O_R   0.453080 0.825520 0.075160 -0.485654
O25   O     O_3   0.306390 0.750000 0.180470 -0.288183
O26   O     O_3   0.693610 0.250000 0.819530 -0.290518
O27   O     O_3   0.132041 0.570752 0.623221 -0.651277
H25   H     H_    0.119868 0.617309 0.573839 0.356441
O28   O     O_3   0.892318 0.438322 0.409913 -0.643041
H26   H     H_    0.905379 0.392232 0.460858 0.359925
O29   O     O_3   0.897444 0.048070 0.422144 -0.683951
H27   H     H_    0.878491 0.098172 0.390549 0.317929
O30   O     O_3   0.102449 0.951889 0.577575 -0.684177
H28   H     H_    0.121402 0.901788 0.609181 0.317408
C57   C     C_2   0.091245 0.067055 0.824193 0.253223
H29   H     H_    0.134127 0.015463 0.828470 0.129357
O31   O     O_2   0.123112 0.115383 0.763998 -0.488759
C58   C     C_2   0.908450 0.932788 0.175506 0.252599
H30   H     H_    0.865335 0.984317 0.171061 0.129785
O32   O     O_2   0.876626 0.884413 0.235633 -0.492667
C59   C     C_2   0.000295 0.536653 0.237351 0.211903
H31   H     H_    0.001958 0.478717 0.238058 0.163514
O33   O     O_2   0.991714 0.568209 0.339448 -0.464098
C60   C     C_2   0.041807 0.452366 0.792774 0.221295
H32   H     H_    0.082403 0.504994 0.808433 0.150375
O34   O     O_2   0.058415 0.412575 0.704819 -0.480831

loop_
_geom_bond_atom_site_label_1
_geom_bond_atom_site_label_2
_ccdc_geom_bond_type
C44   C48   A    
C4    O12   A    
C12   C29   S    
Cr3   O13   S    
C44   H4    S    
C7    C55   A    
C6    C34   A    
C8    C56   A    
Cr2   O6    S    
Cr6   O19   S    
C10   H17   S    
C50   C54   A    
C40   H8    S    
C46   O28   S    
Cr2   O26   S    
C5    C53   A    
Cr5   O17   S    
Cr2   O7    S    
C38   C42   A    
C48   C52   A    
C52   H12   S    
C42   C46   A    
C15   H16   S    
Cr6   O22   S    
C5    C37   A    
C27   O19   A    
C15   C16   S    
C3    C18   S    
C16   H15   S    
C8    C36   A    
C9    C13   D    
C50   H10   S    
C26   C33   S    
C9    C32   S    
C26   O18   A    
C47   O29   S    
C11   C15   D    
C10   C31   S    
C25   O13   A    
C32   O4    A    
C20   C24   D    
C11   C30   S    
C28   O20   A    
C31   O3    A    
C23   H24   S    
C5    C33   A    
Cr3   O25   S    
C23   C24   S    
C6    C38   A    
C48   O30   S    
C24   H23   S    
C43   H3    S    
C25   C34   S    
C19   C60   S    
C35   C56   A    
C1    O5    A    
C21   C22   S    
Cr3   O9    S    
C6    C54   A    
Cr5   O24   S    
C21   H22   S    
Cr6   O18   S    
C11   H20   S    
C39   H7    S    
C29   O1    A    
Cr1   O4    S    
C12   C16   D    
C28   C35   S    
C20   C59   S    
Cr4   O11   S    
C10   C14   D    
C19   C23   D    
C25   O17   A    
C39   C43   A    
C27   O15   A    
C17   C21   D    
Cr1   O1    S    
C9    H18   S    
C60   O34   D    
C59   O33   D    
Cr4   O26   S    
C28   O16   A    
C3    O11   A    
C17   C58   S    
C13   H14   S    
C45   C49   A    
C1    O9    A    
C31   O23   A    
C3    O7    A    
C2    O6    A    
Cr5   O20   S    
C57   H29   S    
C32   O24   A    
C4    O8    A    
C4    C17   S    
Cr4   O10   S    
C38   H6    S    
Cr1   O8    S    
C41   H1    S    
C30   O2    A    
Cr4   O15   S    
Cr5   O25   S    
C42   H2    S    
C58   O32   D    
O27   H25   S    
C33   C54   A    
C1    C20   S    
C7    C39   A    
Cr1   O5    S    
C30   O22   A    
C2    C19   S    
C18   C22   D    
Cr3   O16   S    
C7    C35   A    
C51   H11   S    
Cr4   O14   S    
Cr2   O2    S    
C47   C51   A    
O30   H28   S    
C59   H31   S    
C27   C36   S    
C46   C50   A    
C14   H13   S    
C2    O10   A    
C60   H32   S    
C36   C55   A    
O29   H27   S    
C22   H21   S    
Cr1   O25   S    
Cr6   O23   S    
C52   C56   A    
C49   C53   A    
C37   H5    S    
C12   H19   S    
C51   C55   A    
C37   C41   A    
Cr5   O21   S    
Cr2   O3    S    
C57   O31   D    
C18   C57   S    
C45   O27   S    
C40   C44   A    
Cr6   O26   S    
C34   C53   A    
C49   H9    S    
Cr3   O12   S    
C41   C45   A    
C29   O21   A    
C8    C40   A    
C13   C14   S    
C43   C47   A    
O28   H26   S    
C26   O14   A    
C58   H30   S    
