data_mof_unit_1748.cif
_audit_creation_date              2012-12-11T14:08:13-0500
_audit_creation_method            fapswitch 2.2
_symmetry_space_group_name_H-M    P1
_symmetry_Int_Tables_number       1
_space_group_crystal_system       triclinic
_cell_length_a                    10.947559
_cell_length_b                    10.965936
_cell_length_c                    18.743549
_cell_angle_alpha                 89.694736
_cell_angle_beta                  89.254566
_cell_angle_gamma                 60.130743
_cell_volume                      1951.09751337

loop_
_atom_site_label
_atom_site_type_symbol
_atom_type_description
_atom_site_fract_x
_atom_site_fract_y
_atom_site_fract_z
_atom_type_partial_charge
C1    C     C_R   0.237303 0.644871 0.609020 0.574346
C2    C     C_3   0.692928 0.538923 0.801479 0.012218
C3    C     C_3   0.695959 0.677864 0.813120 0.060595
C4    C     C_3   0.662830 0.647604 0.678074 -0.029645
C5    C     C_3   0.806270 0.640383 0.688820 -0.289293
C6    C     C_3   0.658026 0.530169 0.723133 -0.220760
C7    C     C_2   0.674455 0.157195 0.671217 -0.109188
C8    C     C_2   0.692475 0.164596 0.827445 -0.061179
C9    C     C_2   0.804577 0.109915 0.782903 -0.123132
C10   C     C_2   0.790289 0.138701 0.705662 0.171501
C11   C     C_2   0.185183 0.660442 0.682201 -0.098913
C12   C     C_R   0.650704 0.620031 0.602765 0.550910
C13   C     C_2   0.196908 0.662673 0.839740 -0.061378
C14   C     C_2   0.198959 0.558936 0.801152 -0.148619
C15   C     C_2   0.227739 0.546555 0.724073 -0.170381
C16   C     C_2   0.649563 0.645793 0.316812 -0.082113
C17   C     C_2   0.633785 0.661671 0.159186 -0.069036
C18   C     C_2   0.711085 0.543794 0.196037 -0.168844
C19   C     C_2   0.691101 0.535468 0.272404 -0.144793
C20   C     C_2   0.670733 0.141830 0.333240 -0.136436
C21   C     C_2   0.649626 0.144491 0.179577 -0.060714
C22   C     C_2   0.584242 0.095597 0.223503 0.194771
C23   C     C_R   0.628429 0.227158 0.601899 0.561799
C24   C     C_2   0.582306 0.111753 0.299826 -0.122294
C25   C     C_2   0.120576 0.688733 0.343949 0.117577
C26   C     C_2   0.152170 0.665611 0.184480 -0.079907
C27   C     C_2   0.163869 0.759373 0.225869 0.199261
C28   C     C_2   0.107382 0.791926 0.299885 0.087417
C29   C     C_R   0.703604 0.102500 0.897702 0.597698
C30   C     C_R   0.723532 0.689339 0.888476 0.644006
C31   C     C_R   0.119502 0.706434 0.907483 0.569685
C32   C     C_R   0.676053 0.101533 0.106001 0.569273
C33   C     C_R   0.692150 0.687933 0.094633 0.577336
C34   C     C_R   0.215769 0.652366 0.404030 0.606322
C35   C     C_R   0.095888 0.707743 0.112947 0.576099
C36   C     C_R   0.641226 0.620913 0.392356 0.550758
C37   C     C_R   0.621368 0.222935 0.397746 0.554950
C38   C     C_3   0.551818 0.803651 0.786191 0.142672
C39   C     C_3   0.543175 0.794920 0.705189 0.118311
C40   C     C_3   0.821210 0.669275 0.767801 -0.068307
Cr1   Cr    Cr6+3 0.393010 0.398050 0.501480 1.055817
Cr2   Cr    Cr6+3 0.398820 0.707980 0.501630 1.111346
Cr3   Cr    Cr6+3 0.708140 0.393940 0.496850 1.092996
Cr4   Cr    Cr6+3 0.937950 0.938450 0.008940 1.102858
Cr5   Cr    Cr6+3 0.626180 0.937030 0.994750 1.163307
Cr6   Cr    Cr6+3 0.937790 0.625760 0.001410 1.067854
H1    H     H_    0.735310 0.424309 0.702405 0.179008
H2    H     H_    0.921284 0.578519 0.787106 0.157519
H3    H     H_    0.894035 0.533927 0.674149 0.167031
H4    H     H_    0.909101 0.037591 0.802800 0.179149
H5    H     H_    0.587745 0.236944 0.807892 0.151727
H6    H     H_    0.598631 0.137629 0.699457 0.115616
H7    H     H_    0.170171 0.486246 0.825118 0.167981
H8    H     H_    0.282931 0.441291 0.701517 0.178862
H9    H     H_    0.232638 0.730464 0.816225 0.167692
H10   H     H_    0.467029 0.792124 0.813177 0.220546
H11   H     H_    0.129045 0.765767 0.704587 0.154922
H12   H     H_    0.801619 0.453927 0.171754 0.171197
H13   H     H_    0.724985 0.430915 0.293432 0.156814
H14   H     H_    0.538586 0.747055 0.182340 0.213297
H15   H     H_    0.614442 0.751605 0.297624 0.138513
H16   H     H_    0.493525 0.114483 0.328057 0.195898
H17   H     H_    0.703041 0.197830 0.199693 0.055132
H18   H     H_    0.765150 0.130675 0.307897 0.096123
H19   H     H_    0.138485 0.582566 0.206887 0.068473
H20   H     H_    0.560377 0.875832 0.678049 0.172041
H21   H     H_    0.816039 0.716168 0.652754 0.125580
H22   H     H_    0.798796 0.447558 0.812944 0.174949
H23   H     H_    0.551969 0.540487 0.718691 0.189406
O1    O     O_R   0.507110 0.256280 0.580300 -0.515979
O2    O     O_R   0.524640 0.695370 0.425100 -0.494528
O3    O     O_R   0.735890 0.504390 0.415980 -0.502158
O4    O     O_R   0.690560 0.277820 0.422350 -0.497120
O5    O     O_3   0.499990 0.499990 0.499980 -0.289539
O6    O     O_R   0.089190 0.825870 0.932320 -0.494649
O7    O     O_R   0.819070 0.053960 0.931440 -0.502203
O8    O     O_R   0.607070 0.076440 0.916460 -0.439971
O9    O     O_R   0.647110 0.806550 0.917690 -0.440633
O10   O     O_R   0.837080 0.593860 0.915300 -0.522217
O11   O     O_R   0.064770 0.636080 0.932550 -0.499410
O12   O     O_R   0.280830 0.527190 0.577940 -0.514115
O13   O     O_R   0.068250 0.829200 0.092940 -0.437340
O14   O     O_R   0.799650 0.057040 0.080330 -0.506105
O15   O     O_R   0.586130 0.079760 0.077080 -0.442054
O16   O     O_R   0.627700 0.809630 0.066580 -0.447032
O17   O     O_R   0.816140 0.597180 0.075920 -0.514921
O18   O     O_R   0.045360 0.639170 0.081440 -0.507084
O19   O     O_3   0.833980 0.833750 0.001700 -0.295353
O20   O     O_R   0.261360 0.738990 0.584270 -0.419751
O21   O     O_R   0.532590 0.694780 0.574370 -0.453987
O22   O     O_R   0.744470 0.503750 0.577000 -0.500883
O23   O     O_R   0.698520 0.277230 0.571620 -0.440489
O24   O     O_R   0.498530 0.256920 0.419280 -0.513800
O25   O     O_R   0.272880 0.527780 0.428680 -0.493858
O26   O     O_R   0.252780 0.739630 0.423250 -0.498949
Cl1   Cl    Cl    0.505726 0.981456 0.805630 -0.591308
Cl2   Cl    Cl    0.934821 0.136582 0.661519 -0.539377
Cl3   Cl    Cl    0.481684 0.021398 0.195397 -0.568262
Cl4   Cl    Cl    0.235728 0.861020 0.190074 -0.563546
Cl5   Cl    Cl    0.364032 0.844409 0.687940 -0.543045
N1    N     N_3   0.080187 0.923452 0.330506 -0.573773
H24   H     H_    0.007766 0.004345 0.298120 0.243751
H25   H     H_    0.172912 0.928800 0.329498 0.295473
N2    N     N_3   0.052569 0.607351 0.331614 -0.636107
H26   H     H_    0.975060 0.654313 0.292688 0.226952
H27   H     H_    0.128286 0.505918 0.315636 0.242690
N3    N     N_3   0.831535 0.796866 0.776257 -0.604444
H28   H     H_    0.761030 0.875882 0.742431 0.259811
H29   H     H_    0.931504 0.774921 0.759460 0.219852
Cl6   Cl    Cl    0.571093 0.521956 0.860201 -0.668768

loop_
_geom_bond_atom_site_label_1
_geom_bond_atom_site_label_2
_ccdc_geom_bond_type
Cr3   O4    S    
C7    C10   D    
Cr3   O3    S    
C22   Cl3   S    
C6    H23   S    
C12   O22   A    
C1    C11   S    
C5    H21   S    
Cr4   O14   S    
N2    H27   S    
C31   O11   A    
C29   O7    A    
C25   C28   D    
C27   Cl4   S    
C26   C27   D    
N1    H24   S    
C8    C29   S    
C12   O21   A    
C7    H6    S    
C2    H22   S    
Cr6   O10   S    
C1    O12   A    
C18   C19   S    
Cr4   O7    S    
C33   O16   A    
Cr1   O5    S    
C11   C15   D    
C28   N1    S    
C18   H12   S    
Cr1   O24   S    
C20   C24   D    
Cr4   O6    S    
C8    C9    D    
C1    O20   A    
N3    H28   S    
Cr5   O9    S    
C4    C12   S    
C9    C10   S    
C23   O23   A    
C36   O2    A    
C25   C34   S    
Cr3   O5    S    
N1    H25   S    
C13   C14   D    
N3    H29   S    
C23   O1    A    
C5    H3    S    
C2    C6    S    
C17   C33   S    
N2    H26   S    
C35   O13   A    
Cr6   O19   S    
C32   O15   A    
C21   C32   S    
Cr2   O5    S    
C6    H1    S    
Cr2   O26   S    
C15   H8    S    
Cr5   O19   S    
C34   O26   A    
C3    C38   S    
C4    C6    S    
C19   H13   S    
Cr3   O22   S    
Cr2   O21   S    
C20   H18   S    
C3    C30   S    
Cr5   O16   S    
C33   O17   A    
C31   O6    A    
Cr1   O25   S    
C4    C39   S    
Cr1   O12   S    
C17   C18   D    
C37   O24   A    
C8    H5    S    
C11   H11   S    
C40   N3    S    
C30   O10   A    
C3    C40   S    
C39   H20   S    
C22   C24   S    
Cr5   O15   S    
C16   H15   S    
Cr6   O18   S    
C35   O18   A    
C40   H2    S    
C32   O14   A    
C37   O4    A    
C2    Cl6   S    
C24   H16   S    
C10   Cl2   S    
C26   H19   S    
C13   C31   S    
C9    H4    S    
C34   O25   A    
C4    C5    S    
C25   N2    S    
C38   H10   S    
Cr4   O13   S    
Cr3   O23   S    
Cr2   O20   S    
C2    C3    S    
Cr4   O19   S    
C16   C36   S    
Cr6   O11   S    
C20   C37   S    
C39   Cl5   S    
C38   C39   S    
C16   C19   D    
C7    C23   S    
Cr2   O2    S    
C21   H17   S    
C17   H14   S    
C30   O9    A    
C26   C35   S    
C14   H7    S    
C29   O8    A    
C5    C40   S    
C38   Cl1   S    
C27   C28   S    
C14   C15   S    
Cr5   O8    S    
C13   H9    S    
C21   C22   D    
C36   O3    A    
Cr1   O1    S    
Cr6   O17   S    
