data_mof_unit_4959.cif
_audit_creation_date              2012-12-10T20:49:47-0500
_audit_creation_method            fapswitch 2.2
_symmetry_space_group_name_H-M    P1
_symmetry_Int_Tables_number       1
_space_group_crystal_system       triclinic
_cell_length_a                    8.093361
_cell_length_b                    8.944373
_cell_length_c                    16.900881
_cell_angle_alpha                 90.27098
_cell_angle_beta                  86.881449
_cell_angle_gamma                 89.873965
_cell_volume                      1221.62627892

loop_
_atom_site_label
_atom_site_type_symbol
_atom_type_description
_atom_site_fract_x
_atom_site_fract_y
_atom_site_fract_z
_atom_type_partial_charge
C1    C     C_R   0.499884 0.782089 0.500008 0.942687
C2    C     C_R   0.376806 0.424810 0.227076 -0.245379
C3    C     C_R   0.622952 0.575140 0.857182 0.140073
C4    C     C_R   0.375379 0.396550 0.146150 0.140168
C5    C     C_R   0.470755 0.561843 0.901524 0.166965
C6    C     C_R   0.526977 0.404762 0.100932 0.165662
C7    C     C_R   0.322116 0.542263 0.864421 -0.207395
C8    C     C_R   0.676094 0.429749 0.136884 -0.205585
C9    C     C_R   0.323716 0.525536 0.782905 -0.209163
C10   C     C_R   0.675283 0.457991 0.217576 -0.209284
C11   C     C_2   0.466129 0.543628 0.986282 -0.241156
C12   C     C_R   0.500117 0.217911 0.499982 0.942067
C13   C     C_2   0.529194 0.419642 0.015950 -0.240492
C14   C     C_3   0.210556 0.369822 0.109272 -0.435761
C15   C     C_3   0.203101 0.216470 0.068505 -0.310106
C16   C     C_3   0.042943 0.199458 0.025602 -0.915385
C17   C     C_3   0.787242 0.596734 0.895385 -0.434522
C18   C     C_3   0.795124 0.745843 0.940386 -0.309494
C19   C     C_3   0.954413 0.757183 0.984446 -0.917227
C20   C     C_1   0.499836 0.934849 0.499998 -0.196332
C21   C     C_1   0.500165 0.065153 0.499985 -0.195750
C22   C     C_R   0.480014 0.505729 0.653246 0.871609
C23   C     C_R   0.519928 0.492899 0.346811 0.871084
C24   C     C_R   0.474440 0.528777 0.738448 -0.055730
C25   C     C_R   0.524914 0.460797 0.262364 -0.055896
C26   C     C_R   0.622332 0.558420 0.775338 -0.245692
H1    H     H_    0.206257 0.530424 0.899070 0.146580
H2    H     H_    0.026304 0.294829 0.984869 0.256714
H3    H     H_    0.048292 0.095329 0.989723 0.255955
H4    H     H_    0.308367 0.202033 0.024294 0.228259
H5    H     H_    0.210550 0.126575 0.113374 0.218650
H6    H     H_    0.106728 0.376635 0.155079 0.190635
H7    H     H_    0.187845 0.459682 0.066181 0.201520
H8    H     H_    0.969905 0.657454 0.022300 0.256205
H9    H     H_    0.062883 0.767073 0.941687 0.261715
H10   H     H_    0.948757 0.857288 0.023439 0.255667
H11   H     H_    0.789279 0.840136 0.898008 0.218158
H12   H     H_    0.791496 0.438022 0.101544 0.146482
H13   H     H_    0.689224 0.757035 0.984484 0.228930
H14   H     H_    0.808680 0.502355 0.935926 0.200612
H15   H     H_    0.891689 0.593678 0.849800 0.190262
H16   H     H_    0.738456 0.565219 0.740489 0.159908
H17   H     H_    0.260955 0.422067 0.262327 0.160424
H18   H     H_    0.790960 0.482250 0.244293 0.158360
H19   H     H_    0.208295 0.505392 0.755108 0.158999
H20   H     H_    0.591749 0.335755 0.978333 0.150532
H21   H     H_    0.404244 0.627714 0.024047 0.151144
H22   H     H_    0.935258 0.193672 0.069074 0.262160
N1    N     N_1   0.926360 0.500000 0.499990 -0.039224
N2    N     N_1   0.073640 0.500000 0.500010 -0.039306
O1    O     O_R   0.363150 0.714660 0.500000 -0.613430
O2    O     O_R   0.636850 0.285340 0.500000 -0.613752
O3    O     O_R   0.636850 0.714660 0.500000 -0.614375
O4    O     O_R   0.363150 0.285340 0.500000 -0.614824
O5    O     O_R   0.346950 0.500000 0.615800 -0.622522
O6    O     O_R   0.653050 0.500000 0.384200 -0.622182
O7    O     O_R   0.620700 0.500000 0.615800 -0.626185
O8    O     O_R   0.379300 0.500000 0.384200 -0.626441
Zn1   Zn    Zn3+2 0.317220 0.500000 0.500010 0.982064
Zn2   Zn    Zn3+2 0.682780 0.500000 0.499990 0.982341

loop_
_geom_bond_atom_site_label_1
_geom_bond_atom_site_label_2
_ccdc_geom_bond_type
C16   H2    S    
C23   O8    A    
C2    C4    A    
C18   H13   S    
C9    C24   A    
C15   H5    S    
C22   O5    A    
O5    Zn1   S    
C11   C13   D    
C11   H21   S    
C2    H17   S    
C19   H10   S    
C16   H22   S    
C14   H7    S    
C17   C18   S    
C16   H3    S    
C23   O6    A    
C19   H9    S    
C6    C13   S    
C9    H19   S    
C1    O1    A    
N1    Zn2   S    
C8    H12   S    
C22   O7    A    
N2    Zn1   S    
C10   C25   A    
C4    C6    A    
C12   O2    A    
O3    Zn2   S    
C24   C26   A    
C3    C17   S    
C2    C25   A    
C17   H15   S    
O4    Zn1   S    
C23   C25   S    
C5    C11   S    
C4    C14   S    
C13   H20   S    
C22   C24   S    
O1    Zn1   S    
C10   H18   S    
C15   C16   S    
C7    C9    A    
C7    H1    S    
C20   C21   T    
C26   H16   S    
C15   H4    S    
C8    C10   A    
N1    N2    T    
C5    C7    A    
C1    O3    A    
C14   C15   S    
C18   C19   S    
O7    Zn2   S    
C6    C8    A    
O2    Zn2   S    
C3    C5    A    
O8    Zn1   S    
C17   H14   S    
C12   C21   S    
C18   H11   S    
C3    C26   A    
C12   O4    A    
O6    Zn2   S    
C14   H6    S    
C1    C20   S    
C19   H8    S    
