data_mof_unit_4924.cif
_audit_creation_date              2013-03-05T15:45:11-0500
_audit_creation_method            fapswitch 2.2
_symmetry_space_group_name_H-M    P1
_symmetry_Int_Tables_number       1
_space_group_crystal_system       triclinic
_cell_length_a                    11.56514
_cell_length_b                    11.635572
_cell_length_c                    19.487824
_cell_angle_alpha                 91.017347
_cell_angle_beta                  90.40873
_cell_angle_gamma                 59.984711
_cell_volume                      2270.3683993

loop_
_atom_site_label
_atom_site_type_symbol
_atom_site_description
_atom_site_fract_x
_atom_site_fract_y
_atom_site_fract_z
_atom_type_partial_charge
O1    O     O_R   0.267740 0.231990 0.575440 -0.495250
O2    O     O_R   0.527280 0.186680 0.570530 -0.486335
C1    C     C_R   0.640811 0.117415 0.598991 0.550984
O3    O     O_R   0.728090 0.003480 0.576380 -0.508888
O4    O     O_R   0.682970 0.789220 0.570490 -0.489268
C2    C     C_R   0.612732 0.746173 0.598484 0.558910
O5    O     O_R   0.499290 0.771920 0.575530 -0.493809
O6    O     O_R   0.285330 0.030900 0.569730 -0.499505
C3    C     C_R   0.241308 0.145468 0.598008 0.547545
O7    O     O_R   0.270980 0.227040 0.423900 -0.467752
O8    O     O_R   0.530280 0.182090 0.430050 -0.443491
C4    C     C_R   0.645147 0.109942 0.402452 0.611139
O9    O     O_R   0.731330 0.998530 0.424830 -0.507062
O10   O     O_R   0.685970 0.784630 0.430010 -0.449764
C5    C     C_R   0.616303 0.737199 0.402062 0.603358
O11   O     O_R   0.502530 0.766960 0.423990 -0.457424
O12   O     O_R   0.288330 0.026310 0.429250 -0.467373
C6    C     C_R   0.298048 0.116316 0.393792 0.576844
Cr1   Cr    Cr6+3 0.404720 0.198220 0.499960 1.104518
Cr2   Cr    Cr6+3 0.698290 0.897110 0.500380 1.087701
Cr3   Cr    Cr6+3 0.396970 0.904720 0.499610 1.105720
O13   O     O_3   0.499990 0.000020 0.499980 -0.321645
C7    C     C_1   0.669777 0.646441 0.860270 0.009501
C8    C     C_1   0.655245 0.683869 0.728391 -0.028046
C9    C     C_1   0.663202 0.666757 0.799775 -0.028888
C10   C     C_1   0.642016 0.704142 0.667852 0.013358
C11   C     C_1   0.126611 0.198453 0.859394 0.006594
C12   C     C_1   0.171267 0.170960 0.727562 -0.027957
C13   C     C_1   0.150049 0.182237 0.798906 -0.029128
C14   C     C_1   0.195138 0.161857 0.667157 0.010285
C15   C     C_1   0.678105 0.191014 0.861003 0.006948
C16   C     C_1   0.658753 0.167423 0.728977 -0.028179
C17   C     C_1   0.665354 0.180797 0.800404 -0.029430
C18   C     C_1   0.653510 0.149908 0.668420 0.013028
C19   C     C_R   0.528805 0.719011 0.288799 0.187712
C20   C     C_R   0.536945 0.736052 0.219410 -0.151549
H1    H     H_    0.451227 0.761136 0.187005 0.203846
C21   C     C_R   0.660482 0.689084 0.189089 0.000524
C22   C     C_R   0.774569 0.655063 0.229291 0.319803
C23   C     C_R   0.768091 0.641141 0.301340 0.230157
C24   C     C_R   0.641875 0.686311 0.331169 0.042200
C25   C     C_R   0.287923 0.212059 0.279783 0.207677
C26   C     C_R   0.241308 0.237109 0.212344 -0.209425
H2    H     H_    0.260252 0.301802 0.180961 0.131735
C27   C     C_R   0.169289 0.180061 0.185565 -0.049391
C28   C     C_R   0.158490 0.083651 0.223174 0.276954
C29   C     C_R   0.185901 0.073876 0.293971 0.260377
C30   C     C_R   0.256501 0.133393 0.321617 0.020310
C31   C     C_R   0.696436 0.038482 0.282130 0.236300
C32   C     C_R   0.689828 0.068669 0.212934 0.217943
C33   C     C_R   0.668102 0.193614 0.194978 -0.075516
C34   C     C_R   0.642134 0.290001 0.246700 0.156583
C35   C     C_R   0.641723 0.262644 0.315900 0.126328
C36   C     C_R   0.663782 0.137940 0.333026 -0.042579
O14   O     O_R   0.821500 0.119550 0.952820 -0.503385
O15   O     O_R   0.037130 0.162750 0.957360 -0.498435
C37   C     C_R   0.081457 0.231360 0.928730 0.536270
O16   O     O_R   0.056440 0.344950 0.951330 -0.508161
O17   O     O_R   0.797900 0.560570 0.957460 -0.500675
C38   C     C_R   0.683710 0.604293 0.929588 0.531042
O18   O     O_R   0.596140 0.579600 0.952720 -0.513686
O19   O     O_R   0.639070 0.321380 0.958660 -0.504190
C39   C     C_R   0.708041 0.206702 0.930389 0.535583
O20   O     O_R   0.821240 0.124490 0.104360 -0.502780
O21   O     O_R   0.036900 0.167320 0.097830 -0.449447
C40   C     C_R   0.088966 0.232814 0.123152 0.561620
O22   O     O_R   0.056190 0.349890 0.102870 -0.537074
O23   O     O_R   0.797670 0.565150 0.097930 -0.450794
C41   C     C_R   0.680293 0.620448 0.122785 0.585851
O24   O     O_R   0.595880 0.584540 0.104260 -0.460015
O25   O     O_R   0.638830 0.325960 0.099140 -0.452206
C42   C     C_R   0.706596 0.212245 0.126556 0.582917
Cr4   Cr    Cr6+3 0.926180 0.152240 0.028110 1.071937
Cr5   Cr    Cr6+3 0.921340 0.452070 0.027460 1.060368
Cr6   Cr    Cr6+3 0.626260 0.447120 0.028700 1.084492
O26   O     O_3   0.824590 0.350480 0.028090 -0.268953
N1    N     N_R   0.413171 0.714416 0.312904 0.140473
O27   O     O_R   0.305256 0.764752 0.276069 -0.310506
O28   O     O_R   0.427323 0.628394 0.358644 -0.249085
O29   O     O_3   0.720306 0.970383 0.163823 -0.517491
C43   C     C_3   0.599678 0.991075 0.134489 -0.073824
H3    H     H_    0.547450 0.086739 0.106828 0.099971
H4    H     H_    0.532404 0.987554 0.173989 0.123413
H5    H     H_    0.622914 0.910415 0.096393 0.138351
N2    N     N_R   0.625485 0.414171 0.229389 0.114982
O30   O     O_R   0.509214 0.505409 0.208059 -0.309586
O31   O     O_R   0.731645 0.423123 0.219880 -0.355791
N3    N     N_R   0.638760 0.353756 0.367950 0.091533
O32   O     O_R   0.560790 0.386235 0.421179 -0.299150
O33   O     O_R   0.723708 0.395708 0.365257 -0.278826
O34   O     O_3   0.877428 0.662421 0.196739 -0.545335
C44   C     C_3   0.004615 0.557841 0.212896 -0.060870
H6    H     H_    0.074697 0.548827 0.171835 0.141399
H7    H     H_    0.006106 0.462354 0.215112 0.191474
H8    H     H_    0.040593 0.580305 0.261091 0.103887
N4    N     N_R   0.885207 0.550993 0.339606 0.046899
O35   O     O_R   0.942434 0.424614 0.325347 -0.352785
O36   O     O_R   0.915574 0.587094 0.397313 -0.345613
O37   O     O_3   0.369947 0.258244 0.304581 -0.580607
C45   C     C_3   0.297839 0.397956 0.309681 -0.056091
H9    H     H_    0.200323 0.435028 0.336217 0.166795
H10   H     H_    0.285022 0.442946 0.258434 0.118910
H11   H     H_    0.355963 0.431068 0.341255 0.221161
O38   O     O_3   0.146746 0.986065 0.187038 -0.533120
C46   C     C_3   0.034748 0.979225 0.208224 -0.015583
H12   H     H_    0.007980 0.930516 0.166687 0.174481
H13   H     H_    0.946762 0.078621 0.218991 0.105169
H14   H     H_    0.060803 0.914551 0.252923 0.173884
O39   O     O_3   0.145235 0.005523 0.335520 -0.531103
C47   C     C_3   0.023410 0.097845 0.367481 -0.073717
H15   H     H_    0.942918 0.150558 0.329281 0.127934
H16   H     H_    0.033602 0.171917 0.399871 0.185915
H17   H     H_    0.991879 0.043401 0.401718 0.139610
O40   O     O_3   0.745421 0.908496 0.300455 -0.541831
C48   C     C_3   0.885367 0.850332 0.306933 -0.051285
H18   H     H_    0.916629 0.915278 0.334156 0.089249
H19   H     H_    0.932895 0.821051 0.255678 0.158231
H20   H     H_    0.924348 0.760992 0.338253 0.190970

loop_
_geom_bond_atom_site_label_1
_geom_bond_atom_site_label_2
_geom_bond_distance
_ccdc_geom_bond_type
O11   Cr3   2.053155 S    
C11   C13   1.201700 T    
C19   C20   1.380856 A    
C26   H2    1.082543 S    
O20   C42   1.275024 A    
O40   C48   1.413417 S    
O4    Cr2   1.939319 S    
C2    C10   1.425673 S    
N2    O30   1.299033 A    
O18   Cr6   2.055822 S    
C46   H13   1.110889 S    
O8    Cr1   1.935580 S    
Cr5   O26   1.993331 S    
C20   H1    1.083911 S    
C43   H3    1.112850 S    
C8    C10   1.200877 T    
C21   C22   1.408931 A    
O23   Cr5   1.934926 S    
C31   C36   1.411725 A    
O21   Cr4   1.925611 S    
O15   C37   1.280915 A    
C22   O34   1.392639 S    
C47   H15   1.109982 S    
C45   H9    1.113143 S    
C29   C30   1.408082 A    
O23   C41   1.271152 A    
C48   H19   1.106478 S    
O14   C39   1.271816 A    
O20   Cr4   2.054277 S    
C15   C17   1.200250 T    
N1    O27   1.298759 A    
N2    O31   1.297861 A    
C40   O22   1.286852 A    
C21   C41   1.464382 S    
O17   C38   1.274872 A    
Cr3   O13   1.992620 S    
C23   N4    1.443221 S    
C45   H10   1.110052 S    
O38   C46   1.402300 S    
C43   H4    1.114060 S    
O6    Cr3   1.935793 S    
N1    O28   1.299574 A    
C7    C38   1.425720 S    
C46   H14   1.099338 S    
O1    Cr1   2.053700 S    
C5    O11   1.257287 A    
C33   C34   1.411089 A    
C15   C39   1.424549 S    
Cr1   O13   1.997572 S    
O1    C3    1.275107 A    
C8    C9    1.404636 S    
C5    C24   1.465724 S    
C11   C37   1.427128 S    
O34   C44   1.399918 S    
C34   N2    1.405829 S    
O6    C3    1.280184 A    
C1    C18   1.424672 S    
C32   C33   1.396609 A    
C29   O39   1.382705 S    
C28   O38   1.388584 S    
C19   N1    1.446835 S    
C45   H11   1.106197 S    
O12   Cr3   1.930340 S    
N4    O36   1.299864 A    
C38   O18   1.270300 A    
C27   C40   1.469365 S    
O14   Cr4   2.044177 S    
Cr6   O26   1.986255 S    
O19   C39   1.278905 A    
O10   Cr2   1.932316 S    
O37   C45   1.409661 S    
C47   H17   1.108620 S    
O7    Cr1   2.041537 S    
C48   H20   1.098243 S    
N4    O35   1.300783 A    
C44   H7    1.104130 S    
O12   C6    1.315846 A    
O22   Cr5   2.044432 S    
C25   C30   1.413513 A    
N3    O32   1.300172 A    
C26   C27   1.393307 A    
O17   Cr5   1.929508 S    
C3    C14   1.427134 S    
C23   C24   1.406626 A    
Cr2   O13   1.986477 S    
O21   C40   1.276060 A    
Cr4   O26   1.997414 S    
O19   Cr6   1.934071 S    
C33   C42   1.462336 S    
C44   H8    1.103672 S    
C1    O3    1.271748 A    
C22   C23   1.423035 A    
C43   H5    1.109057 S    
C34   C35   1.391685 A    
O16   Cr5   2.053029 S    
C28   C29   1.407193 A    
C12   C13   1.405940 S    
O15   Cr4   1.936658 S    
O9    Cr2   2.056000 S    
O2    Cr1   1.925299 S    
N3    O33   1.299087 A    
O29   C43   1.410127 S    
C32   O29   1.382285 S    
C6    C30   1.467466 S    
O8    C4    1.279538 A    
C35   C36   1.388351 A    
C2    O5    1.270546 A    
C46   H12   1.108131 S    
C16   C17   1.403661 S    
C12   C14   1.201700 T    
O2    C1    1.275914 A    
O25   C42   1.277515 A    
O5    Cr3   2.050312 S    
O39   C47   1.414751 S    
O25   Cr6   1.937466 S    
C37   O16   1.274019 A    
O4    C2    1.277277 A    
O7    C6    1.293969 A    
C20   C21   1.381480 A    
C44   H6    1.108810 S    
C31   O40   1.376616 S    
C35   N3    1.442198 S    
C7    C9    1.200892 T    
C41   O24   1.286724 A    
C19   C24   1.426361 A    
C47   H16   1.111934 S    
O3    Cr2   2.049042 S    
C27   C28   1.407779 A    
C4    O9    1.259093 A    
C31   C32   1.391436 A    
C25   C26   1.396102 A    
O24   Cr6   2.051854 S    
O10   C5    1.295499 A    
C25   O37   1.384372 S    
C4    C36   1.439835 S    
C48   H18   1.113376 S    
C16   C18   1.200290 T    
