data_mof_unit_4120.cif
_audit_creation_date              2012-12-10T20:41:46-0500
_audit_creation_method            fapswitch 2.2
_symmetry_space_group_name_H-M    P1
_symmetry_Int_Tables_number       1
_space_group_crystal_system       triclinic
_cell_length_a                    15.051519
_cell_length_b                    15.130264
_cell_length_c                    9.913064
_cell_angle_alpha                 90.128861
_cell_angle_beta                  89.485862
_cell_angle_gamma                 90.114331
_cell_volume                      2257.43532138

loop_
_atom_site_label
_atom_site_type_symbol
_atom_type_description
_atom_site_fract_x
_atom_site_fract_y
_atom_site_fract_z
_atom_type_partial_charge
C1    C     C_R   0.381756 0.878727 0.500949 0.875941
C2    C     C_R   0.381822 0.121610 0.500415 0.886963
C3    C     C_R   0.882381 0.377716 0.500178 0.888342
C4    C     C_R   0.879778 0.619725 0.500810 0.877673
C5    C     C_3   0.243793 0.172984 0.733830 -0.526962
C6    C     C_3   0.190122 0.886494 0.633792 -0.529969
C7    C     C_3   0.722908 0.664379 0.726771 -0.530909
C8    C     C_3   0.753876 0.316315 0.739923 -0.532507
C9    C     C_R   0.422823 0.011503 0.071369 0.133555
C10   C     C_R   0.925080 0.478490 0.071489 0.135297
C11   C     C_R   0.577101 0.996469 0.071400 -0.158576
C12   C     C_R   0.076252 0.512161 0.071586 -0.157816
C13   C     C_R   0.577351 0.996158 0.927695 0.010241
C14   C     C_R   0.076576 0.512122 0.927905 0.006177
C15   C     C_R   0.423336 0.015763 0.929319 0.164069
C16   C     C_R   0.926392 0.473324 0.929342 0.160559
C17   C     C_3   0.338855 0.965267 0.917844 -0.580828
C18   C     C_3   0.837004 0.513065 0.918722 -0.593137
C19   C     C_3   0.341950 0.953341 0.070276 -0.071891
C20   C     C_3   0.837944 0.526155 0.070534 -0.061230
C21   C     C_R   0.622143 0.117586 0.499626 0.887123
C22   C     C_R   0.619631 0.880413 0.499065 0.875003
C23   C     C_R   0.119501 0.620143 0.499761 0.874757
C24   C     C_R   0.121363 0.381580 0.499648 0.883835
C25   C     C_R   0.287475 0.224496 0.622841 0.132397
C26   C     C_R   0.251861 0.812057 0.601476 0.112177
C27   C     C_R   0.735412 0.674395 0.577496 0.097580
C28   C     C_R   0.794241 0.268861 0.622175 0.134087
C29   C     C_R   0.325074 0.196257 0.501657 -0.088847
C30   C     C_R   0.320383 0.808351 0.506769 -0.080467
C31   C     C_R   0.812859 0.685465 0.501049 -0.092678
C32   C     C_R   0.827466 0.301298 0.500603 -0.089240
C33   C     C_R   0.308965 0.242984 0.382188 -0.198159
C34   C     C_R   0.331898 0.733444 0.425733 -0.188889
C35   C     C_R   0.820521 0.755449 0.410070 -0.177841
C36   C     C_R   0.808438 0.257167 0.379513 -0.192006
C37   C     C_R   0.754753 0.818791 0.405396 -0.185620
C38   C     C_R   0.743358 0.192435 0.379150 -0.210714
C39   C     C_R   0.243815 0.307375 0.381680 -0.214429
C40   C     C_R   0.264781 0.670489 0.421821 -0.188962
C41   C     C_R   0.682643 0.812199 0.494388 -0.095441
C42   C     C_R   0.697991 0.173125 0.499749 -0.105885
C43   C     C_R   0.195318 0.323813 0.500416 -0.101654
C44   C     C_R   0.188465 0.683263 0.501189 -0.084781
C45   C     C_R   0.670040 0.737509 0.573028 0.071698
C46   C     C_R   0.729115 0.206174 0.621673 0.103263
C47   C     C_R   0.222264 0.286817 0.621971 0.097316
C48   C     C_R   0.184841 0.751159 0.595870 0.092065
C49   C     C_3   0.648965 0.731820 0.719655 -0.200796
C50   C     C_3   0.681636 0.246140 0.740654 -0.210521
C51   C     C_3   0.170984 0.242595 0.733575 -0.210484
C52   C     C_3   0.114912 0.819727 0.622913 -0.220824
H1    H     H_    0.342374 0.226427 0.288251 0.172991
H2    H     H_    0.391037 0.725046 0.364304 0.171943
H3    H     H_    0.879009 0.762906 0.347339 0.190072
H4    H     H_    0.838721 0.276570 0.284515 0.173205
H5    H     H_    0.762724 0.875166 0.339051 0.159866
H6    H     H_    0.724650 0.162615 0.284058 0.169313
H7    H     H_    0.228146 0.339978 0.287675 0.169079
H8    H     H_    0.271374 0.613567 0.355967 0.155570
H9    H     H_    0.662518 0.793475 0.777154 0.179524
H10   H     H_    0.682241 0.202923 0.831176 0.160820
H11   H     H_    0.167783 0.283028 0.827262 0.159366
H12   H     H_    0.077626 0.808784 0.718697 0.164907
H13   H     H_    0.283826 0.174087 0.827518 0.202560
H14   H     H_    0.198664 0.911178 0.738328 0.197391
H15   H     H_    0.780322 0.691447 0.783251 0.206269
H16   H     H_    0.797140 0.312969 0.830053 0.203286
H17   H     H_    0.222707 0.105880 0.700406 0.197351
H18   H     H_    0.191334 0.939126 0.555364 0.203909
H19   H     H_    0.700783 0.596628 0.754941 0.206009
H20   H     H_    0.730841 0.383637 0.711884 0.199321
H21   H     H_    0.639076 0.992191 0.125639 0.146757
H22   H     H_    0.137415 0.523026 0.125945 0.149400
H23   H     H_    0.283980 0.008273 0.882925 0.187171
H24   H     H_    0.346896 0.903374 0.858245 0.228611
H25   H     H_    0.841896 0.573886 0.858621 0.221878
H26   H     H_    0.786206 0.465724 0.883705 0.193587
N1    N     N_R   0.499140 0.000000 0.142800 -0.118442
N2    N     N_R   0.999140 0.500000 0.142800 -0.118583
N3    N     N_R   0.499160 1.000000 0.857150 -0.120277
N4    N     N_R   0.999160 0.500000 0.857150 -0.122220
O1    O     O_R   0.408400 0.908380 0.614690 -0.620292
O2    O     O_R   0.408400 0.091620 0.614690 -0.609868
O3    O     O_R   0.908400 0.408380 0.614690 -0.611025
O4    O     O_R   0.908400 0.591620 0.614690 -0.624140
O5    O     O_R   0.408370 0.908370 0.385350 -0.614069
O6    O     O_R   0.408370 0.091630 0.385350 -0.622583
O7    O     O_R   0.908370 0.408370 0.385350 -0.624116
O8    O     O_R   0.908370 0.591630 0.385350 -0.611427
O9    O     O_R   0.591610 0.091610 0.614650 -0.617167
O10   O     O_R   0.591610 0.908390 0.614650 -0.622580
O11   O     O_R   0.091610 0.591610 0.614650 -0.614448
O12   O     O_R   0.091610 0.408390 0.614650 -0.620081
O13   O     O_R   0.591590 0.091600 0.385310 -0.627884
O14   O     O_R   0.591590 0.908400 0.385310 -0.621788
O15   O     O_R   0.091590 0.591600 0.385310 -0.619862
O16   O     O_R   0.091590 0.408400 0.385310 -0.626809
Zn1   Zn    Zn3+2 0.500010 0.000000 0.653130 0.960861
Zn2   Zn    Zn3+2 0.000010 0.500000 0.653130 0.958537
Zn3   Zn    Zn3+2 0.499980 0.000000 0.346870 0.957279
Zn4   Zn    Zn3+2 0.999980 0.500000 0.346870 0.959137
C53   C     C_1   0.266252 0.991774 0.144307 0.200019
N5    N     N_1   0.206774 0.022053 0.202876 -0.203880
C54   C     C_1   0.359165 0.860530 0.105134 0.252659
N6    N     N_1   0.372964 0.787047 0.128595 -0.217098
C55   C     C_1   0.842711 0.620854 0.102829 0.241324
N7    N     N_1   0.846277 0.696044 0.122704 -0.224685
C56   C     C_1   0.767159 0.478996 0.144039 0.197138
N8    N     N_1   0.711490 0.441848 0.202037 -0.207770
C57   C     C_1   0.559820 0.694815 0.743948 0.231801
N9    N     N_1   0.489581 0.665914 0.762972 -0.188072
C58   C     C_1   0.593195 0.281970 0.709029 0.235339
N10   N     N_1   0.523738 0.309929 0.684169 -0.205377
C59   C     C_1   0.084208 0.207292 0.691195 0.229613
N11   N     N_1   0.016058 0.179693 0.657882 -0.207000
C60   C     C_1   0.058447 0.837828 0.505764 0.224235
N12   N     N_1   0.015178 0.853275 0.413002 -0.214772
C61   C     C_1   0.661074 0.991560 0.857127 0.200836
N13   N     N_1   0.728721 0.988017 0.800933 -0.212113
C62   C     C_1   0.160019 0.522970 0.858152 0.226554
N14   N     N_1   0.227595 0.531385 0.802955 -0.195111

loop_
_geom_bond_atom_site_label_1
_geom_bond_atom_site_label_2
_ccdc_geom_bond_type
C1    O5    A    
C40   H8    S    
C12   H22   S    
O7    Zn4   S    
C3    O3    A    
C2    O2    A    
C57   N9    T    
O6    Zn3   S    
C15   N3    A    
C28   C46   A    
C33   C39   A    
C6    H14   S    
C2    C29   S    
C34   C40   A    
C32   C36   A    
C35   C37   A    
C38   C42   A    
C48   C52   S    
C7    H19   S    
C22   C41   S    
C4    O4    A    
C59   N11   T    
C13   N3    A    
C7    C27   S    
C6    H18   S    
C9    N1    A    
O8    Zn4   S    
C5    H17   S    
C38   H6    S    
C19   C53   S    
C9    C19   S    
C29   C33   A    
C10   C20   S    
C17   H24   S    
C55   N7    T    
C2    O6    A    
C45   C49   S    
O4    Zn2   S    
C25   C47   A    
C18   C20   S    
O15   Zn4   S    
C26   C48   A    
C49   C57   S    
C20   C55   S    
C52   C60   S    
C27   C45   A    
C14   C62   S    
O5    Zn3   S    
O14   Zn3   S    
C25   C29   A    
C22   O14   A    
C13   C61   S    
C4    O8    A    
C33   H1    S    
C8    H20   S    
C49   H9    S    
C30   C34   A    
C27   C31   A    
C28   C32   A    
C51   H11   S    
C7    C49   S    
C5    H13   S    
C52   H12   S    
C10   N2    A    
C39   C43   A    
N3    Zn1   S    
O16   Zn4   S    
C35   H3    S    
C51   C59   S    
C23   C44   S    
C23   O11   A    
N2    Zn4   S    
C36   H4    S    
C24   O12   A    
O12   Zn2   S    
C18   H26   S    
C39   H7    S    
C16   N4    A    
O11   Zn2   S    
C62   N14   T    
C11   N1    A    
C5    C25   S    
C19   C54   S    
C23   O15   A    
C12   C14   A    
C8    H16   S    
C42   C46   A    
C50   H10   S    
C24   O16   A    
C14   N4    A    
C8    C50   S    
C58   N10   T    
C21   O9    A    
C15   C17   S    
C22   O10   A    
C21   C42   S    
O2    Zn1   S    
N4    Zn2   S    
N1    Zn3   S    
C47   C51   S    
C61   N13   T    
C34   H2    S    
C1    O1    A    
C21   O13   A    
C54   N6    T    
C46   C50   S    
C3    O7    A    
C50   C58   S    
O9    Zn1   S    
C36   C38   A    
C9    C15   A    
O3    Zn2   S    
C10   C16   A    
C60   N12   T    
C11   C13   A    
C6    C26   S    
C18   H25   S    
C8    C28   S    
C12   N2    A    
C1    C30   S    
C17   C19   S    
C31   C35   A    
C37   C41   A    
C3    C32   S    
C11   H21   S    
C4    C31   S    
C7    H15   S    
C20   C56   S    
C44   C48   A    
C40   C44   A    
C16   C18   S    
C53   N5    T    
C17   H23   S    
C24   C43   S    
C41   C45   A    
C5    C51   S    
O1    Zn1   S    
C6    C52   S    
C56   N8    T    
C43   C47   A    
C37   H5    S    
O13   Zn3   S    
O10   Zn1   S    
C26   C30   A    
