data_mof_unit_2475.cif
_audit_creation_date              2012-12-11T15:55:59-0500
_audit_creation_method            fapswitch 2.2
_symmetry_space_group_name_H-M    P1
_symmetry_Int_Tables_number       1
_space_group_crystal_system       triclinic
_cell_length_a                    11.297009
_cell_length_b                    11.336559
_cell_length_c                    18.78724
_cell_angle_alpha                 91.346268
_cell_angle_beta                  90.221007
_cell_angle_gamma                 58.483089
_cell_volume                      2050.4718107

loop_
_atom_site_label
_atom_site_type_symbol
_atom_type_description
_atom_site_fract_x
_atom_site_fract_y
_atom_site_fract_z
_atom_type_partial_charge
C1    C     C_R   0.358074 0.770878 0.398741 0.531624
C2    C     C_R   0.258822 0.431284 0.204054 -0.168060
C3    C     C_R   0.249058 0.438056 0.278386 -0.037544
C4    C     C_R   0.383756 0.350549 0.389776 0.513984
C5    C     C_R   0.925128 0.807140 0.386664 0.036399
C6    C     C_R   0.956288 0.676542 0.407054 -0.141186
C7    C     C_R   0.061720 0.558555 0.372106 -0.081511
C8    C     C_R   0.137246 0.567444 0.315262 0.091048
C9    C     C_R   0.351860 0.326100 0.316712 -0.010352
C10   C     C_R   0.863885 0.351894 0.183814 0.084000
C11   C     C_R   0.785567 0.301484 0.208915 0.025793
C12   C     C_R   0.603895 0.079615 0.170290 0.022408
C13   C     C_R   0.766934 0.301266 0.282064 -0.013483
C14   C     C_R   0.904391 0.398953 0.304852 -0.068239
C15   C     C_R   0.910161 0.417367 0.232075 -0.002070
C16   C     C_R   0.775730 0.378233 0.403021 0.538701
C17   C     C_3   0.633343 0.367469 0.195463 0.042960
C18   C     C_3   0.615118 0.366592 0.275387 -0.244526
C19   C     C_R   0.832387 0.340989 0.331149 0.067984
C20   C     C_R   0.317593 0.921552 0.188998 -0.044921
C21   C     C_R   0.436025 0.798705 0.209923 -0.048817
C22   C     C_R   0.441617 0.745907 0.277524 0.014915
C23   C     C_R   0.358323 0.310900 0.167388 -0.012887
C24   C     C_R   0.233264 0.964035 0.312484 0.270940
C25   C     C_R   0.224305 0.009727 0.242680 0.241902
C26   C     C_3   0.580796 0.772126 0.224775 -0.082352
C27   C     C_3   0.594718 0.680927 0.283470 0.124765
C28   C     C_R   0.341577 0.771441 0.603030 0.556272
C29   C     C_R   0.343801 0.830444 0.329897 0.033136
C30   C     C_R   0.276902 0.273126 0.802694 0.006967
C31   C     C_R   0.394645 0.174939 0.764507 -0.055331
C32   C     C_R   0.415440 0.195972 0.695046 0.001913
C33   C     C_R   0.189177 0.401873 0.692153 -0.179907
C34   C     C_R   0.454258 0.205841 0.279892 -0.165237
C35   C     C_R   0.168086 0.381938 0.764217 -0.163752
C36   C     C_3   0.544812 0.110910 0.783084 -0.196656
C37   C     C_3   0.567016 0.138612 0.707696 0.146631
C38   C     C_R   0.319405 0.314799 0.659113 0.009991
C39   C     C_R   0.842977 0.316686 0.829933 -0.044706
C40   C     C_R   0.368874 0.350044 0.595139 0.553186
C41   C     C_R   0.822690 0.434146 0.796632 0.056460
C42   C     C_R   0.807724 0.447262 0.724408 -0.054568
C43   C     C_R   0.859686 0.213871 0.711180 -0.076859
C44   C     C_R   0.860740 0.203472 0.786401 -0.011230
C45   C     C_R   0.468390 0.197944 0.205675 -0.037743
C46   C     C_3   0.710806 0.581125 0.812125 0.441486
C47   C     C_3   0.685050 0.592476 0.732644 0.193960
C48   C     C_R   0.822880 0.339999 0.680219 -0.022253
C49   C     C_R   0.293571 0.864718 0.821443 0.043754
C50   C     C_R   0.200704 0.839973 0.786234 0.014807
C51   C     C_R   0.203379 0.828360 0.713168 0.121042
C52   C     C_R   0.764437 0.376791 0.609055 0.575427
C53   C     C_R   0.378851 0.888020 0.706326 -0.126162
C54   C     C_R   0.377114 0.897292 0.780588 -0.109394
C55   C     C_3   0.174389 0.725711 0.796467 -0.227095
C56   C     C_R   0.117098 0.698027 0.301184 0.311302
C57   C     C_3   0.173078 0.714493 0.715723 0.121582
C58   C     C_R   0.300950 0.840156 0.672481 0.022333
C59   C     C_R   0.913674 0.318237 0.111546 0.549125
C60   C     C_R   0.328165 0.290768 0.093579 0.544773
C61   C     C_R   0.279180 0.951642 0.112754 0.556457
C62   C     C_R   0.888307 0.305990 0.903823 0.517559
C63   C     C_R   0.271243 0.254910 0.879727 0.545598
C64   C     C_R   0.835956 0.887409 0.085857 0.298577
C65   C     C_R   0.273512 0.899350 0.896883 0.570945
C66   C     C_R   0.852259 0.958164 0.144313 -0.000780
C67   C     C_R   0.007279 0.817245 0.334284 0.043920
C68   C     C_R   0.737007 0.051941 0.186652 -0.146136
C69   C     C_2   0.810753 0.931453 0.422540 0.255253
C70   C     C_2   0.946651 0.518158 0.209133 0.202227
C71   C     C_2   0.702603 0.782406 0.037152 0.257201
C72   C     C_2   0.578440 0.892690 0.260856 0.251657
C73   C     C_2   0.859591 0.084267 0.816750 0.251623
C74   C     C_2   0.990606 0.916228 0.168564 0.290260
C75   C     C_R   0.605253 0.975537 0.128136 -0.092811
C76   C     C_R   0.715066 0.883560 0.083274 0.042151
Cr1   Cr    Cr6+3 0.601740 0.606840 0.505840 1.044409
Cr2   Cr    Cr6+3 0.291500 0.601560 0.495070 1.031304
Cr3   Cr    Cr6+3 0.606780 0.291630 0.499130 1.096553
Cr4   Cr    Cr6+3 0.062440 0.063060 0.008240 1.012082
Cr5   Cr    Cr6+3 0.062950 0.375000 0.998920 1.119580
Cr6   Cr    Cr6+3 0.374550 0.061770 0.992470 0.989383
H1    H     H_    0.539620 0.127729 0.310011 0.200294
H2    H     H_    0.108580 0.489389 0.664197 0.139043
H3    H     H_    0.071216 0.455759 0.790621 0.166994
H4    H     H_    0.597197 0.998667 0.793472 0.116219
H5    H     H_    0.563974 0.171522 0.823933 0.174030
H6    H     H_    0.991508 0.917300 0.322221 0.159244
H7    H     H_    0.636667 0.043951 0.675105 0.174109
H8    H     H_    0.869521 0.130460 0.677285 0.214192
H9    H     H_    0.699812 0.670954 0.706542 0.132974
H10   H     H_    0.452485 0.902028 0.676669 0.119117
H11   H     H_    0.444817 0.925243 0.806119 0.131311
H12   H     H_    0.899705 0.665524 0.450207 0.106816
H13   H     H_    0.073113 0.761334 0.823009 0.209142
H14   H     H_    0.264283 0.633520 0.820568 0.120881
H15   H     H_    0.256678 0.613740 0.692777 0.146310
H16   H     H_    0.753066 0.094216 0.234690 0.130280
H17   H     H_    0.517307 0.969123 0.133561 0.143971
H18   H     H_    0.187265 0.520987 0.174053 0.189847
H19   H     H_    0.751292 0.921669 0.464751 0.097979
H20   H     H_    0.012761 0.497887 0.164171 0.175569
H21   H     H_    0.474786 0.531998 0.159385 0.349850
H22   H     H_    0.158650 0.014626 0.409635 0.317477
H23   H     H_    0.092205 0.458251 0.392692 0.111942
H24   H     H_    0.612192 0.773514 0.041089 0.122360
H25   H     H_    0.158615 0.173583 0.187789 0.290342
H26   H     H_    0.480210 0.976833 0.280751 0.101280
H27   H     H_    0.743661 0.668382 0.340926 0.375527
H28   H     H_    0.534855 0.322786 0.733364 0.312447
H29   H     H_    0.839019 0.081397 0.872613 0.142546
H30   H     H_    0.685104 0.758166 0.840097 0.329037
H31   H     H_    0.630338 0.585787 0.903965 0.358654
H32   H     H_    0.555649 0.524389 0.735625 0.340565
H33   H     H_    0.993805 0.858292 0.030791 0.350046
H34   H     H_    0.934509 0.449151 0.341789 0.128082
H35   H     H_    0.006096 0.706068 0.711731 0.327114
H36   H     H_    0.006734 0.982276 0.204661 0.135960
H37   H     H_    0.298826 0.621742 0.256451 0.322209
H38   H     H_    0.609688 0.302715 0.161413 0.154665
H39   H     H_    0.550832 0.468357 0.302949 0.133425
H40   H     H_    0.598776 0.289610 0.296406 0.154964
H41   H     H_    0.656797 0.718830 0.180590 0.158833
H42   H     H_    0.652607 0.573408 0.266830 0.172536
O1    O     O_R   0.748670 0.497520 0.427970 -0.519329
O2    O     O_R   0.417470 0.174910 0.067830 -0.536838
O3    O     O_R   0.375160 0.946380 0.070880 -0.562873
O4    O     O_R   0.476470 0.723930 0.429450 -0.440958
O5    O     O_R   0.160500 0.919670 0.926690 -0.514203
O6    O     O_R   0.933140 0.190380 0.936050 -0.539372
O7    O     O_R   0.909010 0.403210 0.925030 -0.450332
O8    O     O_R   0.179590 0.361290 0.918480 -0.467169
O9    O     O_R   0.391360 0.170840 0.907510 -0.526416
O10   O     O_R   0.350950 0.942600 0.922260 -0.519698
O11   O     O_3   0.166650 0.166610 0.999880 -0.319294
O12   O     O_R   0.300170 0.471020 0.567120 -0.508326
O13   O     O_R   0.264730 0.744140 0.416740 -0.531018
O14   O     O_R   0.309440 0.472410 0.418220 -0.517102
O15   O     O_R   0.501630 0.260530 0.414310 -0.492814
O16   O     O_R   0.727920 0.305730 0.428950 -0.449749
O17   O     O_R   0.738670 0.496020 0.588600 -0.506947
O18   O     O_R   0.467190 0.722540 0.578350 -0.476295
O19   O     O_R   0.254720 0.742640 0.577370 -0.500878
O20   O     O_2   0.780754 0.046516 0.404878 -0.487220
O21   O     O_2   0.897277 0.630490 0.239151 -0.518482
O22   O     O_3   0.573619 0.500277 0.168105 -0.728543
O23   O     O_R   0.491630 0.259030 0.574940 -0.479378
O24   O     O_3   0.135721 0.055071 0.361818 -0.674068
O25   O     O_2   0.794221 0.705275 0.995032 -0.408064
O26   O     O_3   0.126996 0.144435 0.229330 -0.696319
O27   O     O_2   0.686682 0.885090 0.277612 -0.472005
O28   O     O_3   0.643478 0.705872 0.347546 -0.642771
O29   O     O_3   0.602117 0.240423 0.704149 -0.675384
O30   O     O_2   0.872622 0.990012 0.778260 -0.501574
O31   O     O_3   0.764414 0.661096 0.837712 -0.671657
O32   O     O_3   0.600173 0.596015 0.853667 -0.704582
O33   O     O_3   0.560427 0.600468 0.713458 -0.683395
O34   O     O_R   0.718640 0.304340 0.577850 -0.466947
O35   O     O_3   0.939677 0.812746 0.035818 -0.619902
O36   O     O_3   0.040990 0.759407 0.688035 -0.646432
O37   O     O_2   0.088072 0.802856 0.150065 -0.428641
O38   O     O_3   0.211059 0.711929 0.262006 -0.696375
O39   O     O_3   0.500010 0.500010 0.500020 -0.282207
O40   O     O_R   0.186620 0.923750 0.087000 -0.449726
O41   O     O_R   0.957350 0.194160 0.084660 -0.524599
O42   O     O_R   0.935120 0.407280 0.085350 -0.526172
O43   O     O_R   0.203800 0.365060 0.067090 -0.495870

loop_
_geom_bond_atom_site_label_1
_geom_bond_atom_site_label_2
_ccdc_geom_bond_type
Cr1   O39   S    
C66   C68   A    
C21   C26   S    
C75   C76   A    
C27   O28   S    
C23   C45   A    
C22   C29   A    
C61   O40   A    
C26   C72   S    
C41   C42   A    
H22   O24   S    
Cr3   O15   S    
C1    O4    A    
C5    C67   A    
C8    C56   A    
Cr3   O34   S    
C1    O13   A    
C7    C8    A    
C39   C41   A    
C71   O25   D    
C53   C54   A    
C69   O20   D    
C46   O31   S    
C12   C68   A    
C67   H6    S    
Cr4   O11   S    
C49   C65   S    
C13   C18   S    
C63   O9    A    
C36   C37   S    
C10   C15   A    
C30   C31   A    
Cr5   O7    S    
C20   C25   A    
C49   C54   A    
C66   C74   S    
C56   O38   S    
Cr6   O11   S    
C20   C61   S    
C61   O3    A    
C62   O6    A    
Cr1   O18   S    
Cr4   O40   S    
C54   H11   S    
C5    C69   S    
C17   H38   S    
C24   C29   A    
H25   O26   S    
Cr6   O2    S    
C72   H26   S    
C6    H12   S    
H30   O31   S    
C73   O30   D    
C41   C46   S    
C7    H23   S    
Cr5   O11   S    
C51   C57   S    
C32   C38   A    
C16   O1    A    
C65   O10   A    
C59   O41   A    
C53   C58   A    
C64   C76   A    
Cr3   O16   S    
C2    H18   S    
Cr2   O39   S    
C21   C22   A    
H35   O36   S    
C16   O16   A    
Cr2   O14   S    
H37   O38   S    
C75   H17   S    
C73   H29   S    
Cr1   O17   S    
C36   H5    S    
C52   O34   A    
C23   C60   S    
C74   H36   S    
C60   O43   A    
Cr4   O6    S    
C13   C19   A    
C43   H8    S    
C37   O29   S    
H27   O28   S    
C24   C25   A    
C55   H13   S    
C3    C8    S    
C24   O24   S    
C28   O19   A    
C12   C45   S    
Cr5   O8    S    
Cr3   O23   S    
C36   H4    S    
C63   O8    A    
H33   O35   S    
C25   O26   S    
C64   C66   A    
Cr6   O10   S    
C43   C44   A    
C34   C45   A    
H32   O33   S    
C3    C9    A    
C40   O12   A    
C31   C32   A    
Cr5   O42   S    
C72   O27   D    
C57   H15   S    
C53   H10   S    
C1    C29   S    
C17   C18   S    
Cr5   O43   S    
C50   C51   A    
C51   C58   A    
C42   C48   A    
C32   C37   S    
Cr1   O4    S    
C6    C7    A    
C59   O42   A    
C70   O21   D    
C18   H40   S    
C30   C35   A    
C57   O36   S    
C69   H19   S    
C22   C27   S    
C55   C57   S    
C26   C27   S    
C9    C34   A    
C12   C75   A    
C28   O18   A    
C26   H41   S    
H31   O32   S    
Cr2   O13   S    
Cr4   O41   S    
Cr1   O1    S    
C47   O33   S    
C15   C70   S    
C46   C47   S    
C11   C17   S    
Cr4   O5    S    
C40   O23   A    
C31   C36   S    
C47   H9    S    
C14   C19   A    
C52   O17   A    
Cr3   O39   S    
C55   H14   S    
C71   C76   S    
C74   O37   D    
C65   O5    A    
C27   H42   S    
C70   H20   S    
C39   C44   A    
C28   C58   S    
C56   C67   A    
C46   O32   S    
C33   C38   A    
C37   H7    S    
C43   C48   A    
Cr6   O9    S    
C60   O2    A    
C2    C3    A    
H28   O29   S    
Cr2   O19   S    
C4    O15   A    
C38   C40   S    
C11   C13   A    
C5    C6    A    
Cr2   O12   S    
C16   C19   S    
C14   H34   S    
C50   C55   S    
C64   O35   S    
C33   C35   A    
C17   O22   S    
C42   C47   S    
C44   C73   S    
C33   H2    S    
C68   H16   S    
Cr6   O3    S    
C10   C11   A    
C18   H39   S    
C4    O14   A    
C35   H3    S    
C48   C52   S    
C20   C21   A    
C49   C50   A    
C34   H1    S    
C71   H24   S    
C2    C23   A    
C39   C62   S    
C14   C15   A    
C4    C9    S    
C30   C63   S    
C10   C59   S    
C62   O7    A    
H21   O22   S    
