data_mof_unit_3565.cif
_audit_creation_date              2012-12-10T20:51:43-0500
_audit_creation_method            fapswitch 2.2
_symmetry_space_group_name_H-M    P1
_symmetry_Int_Tables_number       1
_space_group_crystal_system       triclinic
_cell_length_a                    8.112822
_cell_length_b                    8.911933
_cell_length_c                    16.881426
_cell_angle_alpha                 89.526575
_cell_angle_beta                  95.625613
_cell_angle_gamma                 90.060997
_cell_volume                      1214.6227022

loop_
_atom_site_label
_atom_site_type_symbol
_atom_type_description
_atom_site_fract_x
_atom_site_fract_y
_atom_site_fract_z
_atom_type_partial_charge
C1    C     C_R   0.499884 0.218049 0.499901 0.915899
C2    C     C_R   0.500115 0.781951 0.500097 0.915920
C3    C     C_R   0.523119 0.500514 0.653297 0.873220
C4    C     C_R   0.476881 0.499483 0.346703 0.873256
C5    C     C_R   0.541688 0.504063 0.739058 -0.227023
C6    C     C_R   0.458305 0.495906 0.260942 -0.227024
C7    C     C_R   0.462269 0.616367 0.779936 -0.108494
C8    C     C_R   0.537726 0.383592 0.220071 -0.108513
C9    C     C_R   0.472633 0.608330 0.862650 -0.123505
C10   C     C_R   0.527330 0.391589 0.137356 -0.123506
C11   C     C_R   0.561348 0.491597 0.904003 0.214572
C12   C     C_R   0.438583 0.508293 0.095994 0.214582
C13   C     C_R   0.649144 0.388498 0.863320 -0.265795
C14   C     C_R   0.350785 0.611400 0.136672 -0.265824
C15   C     C_R   0.637169 0.391497 0.780668 0.462543
C16   C     C_R   0.362792 0.608441 0.219325 0.462552
C17   C     C_1   0.499842 0.065241 0.499927 -0.202215
C18   C     C_1   0.500157 0.934759 0.500070 -0.202240
H1    H     H_    0.588261 0.307060 0.104845 0.199463
H2    H     H_    0.411706 0.692852 0.895166 0.199465
H3    H     H_    0.721459 0.301657 0.895779 0.170981
H4    H     H_    0.278448 0.698219 0.104206 0.170967
N1    N     N_1   0.073640 0.500030 0.499990 -0.017838
N2    N     N_1   0.926360 0.499970 0.500010 -0.017839
N3    N     N_2   0.562536 0.473321 0.986778 -0.166639
N4    N     N_2   0.437385 0.526550 0.013218 -0.166640
O1    O     O_R   0.636850 0.285340 0.500000 -0.616600
O2    O     O_R   0.363150 0.714660 0.500000 -0.616604
O3    O     O_R   0.363100 0.285350 0.500000 -0.614941
O4    O     O_R   0.636900 0.714650 0.500000 -0.614929
O5    O     O_R   0.652140 0.498630 0.616140 -0.571394
O6    O     O_R   0.347860 0.501370 0.383860 -0.571387
O7    O     O_R   0.378390 0.498650 0.616130 -0.632148
O8    O     O_R   0.621610 0.501350 0.383870 -0.632151
Zn1   Zn    Zn3+2 0.682780 0.499990 0.500010 1.014857
Zn2   Zn    Zn3+2 0.317220 0.500010 0.499990 1.014856
C19   C     C_2   0.627201 0.255868 0.262356 0.422386
H5    H     H_    0.622415 0.238406 0.325699 0.066655
O9    O     O_2   0.706358 0.166811 0.226590 -0.577500
C20   C     C_2   0.372836 0.744123 0.737661 0.422409
H6    H     H_    0.377634 0.761598 0.674320 0.066622
O10   O     O_2   0.293711 0.833193 0.773434 -0.577507
O11   O     O_3   0.723653 0.287255 0.740724 -0.590952
C21   C     C_3   0.628897 0.154390 0.731684 0.091968
H7    H     H_    0.512639 0.174897 0.692271 0.141984
H8    H     H_    0.597343 0.109807 0.790219 0.157671
C22   C     C_3   0.729066 0.035325 0.693627 -0.736214
H9    H     H_    0.842598 0.008085 0.733335 0.269854
H10   H     H_    0.654016 0.931762 0.683557 0.186077
H11   H     H_    0.765448 0.076799 0.635630 0.263132
O12   O     O_3   0.276310 0.712692 0.259265 -0.590950
C23   C     C_3   0.371021 0.845591 0.268255 0.091957
H12   H     H_    0.402436 0.890172 0.209694 0.157643
H13   H     H_    0.487359 0.825132 0.307620 0.141992
C24   C     C_3   0.270886 0.964628 0.306353 -0.736183
H14   H     H_    0.234660 0.923160 0.364382 0.263099
H15   H     H_    0.345901 0.068228 0.316370 0.186093
H16   H     H_    0.157256 0.991807 0.266697 0.269880

loop_
_geom_bond_atom_site_label_1
_geom_bond_atom_site_label_2
_ccdc_geom_bond_type
C6    C8    A    
C7    C20   S    
C16   O12   S    
C19   H5    S    
C14   C16   A    
C2    C18   S    
C21   C22   S    
C11   C13   A    
C9    H2    S    
C1    C17   S    
C22   H9    S    
C23   C24   S    
C2    O4    A    
C10   H1    S    
O11   C21   S    
C14   H4    S    
C24   H14   S    
C1    O3    A    
C17   C18   T    
C13   H3    S    
C19   O9    D    
C21   H7    S    
C3    O5    A    
C9    C11   A    
O3    Zn2   S    
C4    O6    A    
C10   C12   A    
O4    Zn1   S    
O6    Zn2   S    
C20   O10   D    
C20   H6    S    
C12   C14   A    
N1    Zn2   S    
C22   H11   S    
C4    O8    A    
C24   H15   S    
C13   C15   A    
O5    Zn1   S    
C5    C15   A    
N2    Zn1   S    
C8    C19   S    
C11   N3    S    
N1    N2    T    
C15   O11   S    
O12   C23   S    
C7    C9    A    
O7    Zn2   S    
C23   H12   S    
O2    Zn2   S    
C22   H10   S    
O8    Zn1   S    
C24   H16   S    
C12   N4    S    
C1    O1    A    
C3    O7    A    
C5    C7    A    
C2    O2    A    
C21   H8    S    
O1    Zn1   S    
N3    N4    D    
C4    C6    S    
C6    C16   A    
C8    C10   A    
C23   H13   S    
C3    C5    S    
