data_mof_unit_1021.cif
_audit_creation_date              2012-12-11T16:26:33-0500
_audit_creation_method            fapswitch 2.2
_symmetry_space_group_name_H-M    P1
_symmetry_Int_Tables_number       1
_space_group_crystal_system       triclinic
_cell_length_a                    13.979711
_cell_length_b                    13.968946
_cell_length_c                    31.85911
_cell_angle_alpha                 90.089682
_cell_angle_beta                  90.082071
_cell_angle_gamma                 120.049916
_cell_volume                      5385.24521268

loop_
_atom_site_label
_atom_site_type_symbol
_atom_type_description
_atom_site_fract_x
_atom_site_fract_y
_atom_site_fract_z
_atom_type_partial_charge
C1    C     C_R   0.565889 0.445127 0.810088 0.580192
C2    C     C_R   0.444865 0.565617 0.189913 0.564132
C3    C     C_2   0.882210 0.620187 0.638762 0.278428
C4    C     C_2   0.738732 0.108040 0.857133 0.276378
C5    C     C_2   0.380366 0.260938 0.638226 0.260521
C6    C     C_2   0.620949 0.883335 0.361264 0.278195
C7    C     C_2   0.120002 0.738823 0.138805 0.263482
C8    C     C_2   0.261603 0.380098 0.361283 0.261607
C9    C     C_2   0.363855 0.717076 0.122665 0.239816
C10   C     C_2   0.122366 0.739515 0.361917 0.270022
C11   C     C_2   0.261890 0.376008 0.139497 0.273762
C12   C     C_2   0.952292 0.328029 0.162220 0.323371
C13   C     C_R   0.434235 0.879167 0.310095 0.586357
C14   C     C_2   0.390091 0.060819 0.335354 0.291629
C15   C     C_2   0.671133 0.615044 0.162384 0.289281
C16   C     C_2   0.951397 0.328395 0.337220 0.335251
C17   C     C_2   0.566704 0.116915 0.172166 0.310506
C18   C     C_2   0.670578 0.612113 0.336326 0.289437
C19   C     C_2   0.327867 0.952268 0.662092 0.333769
C20   C     C_2   0.059473 0.388625 0.835651 0.296955
C21   C     C_2   0.610754 0.670254 0.664115 0.288257
C22   C     C_2   0.329431 0.961089 0.842035 0.335158
C23   C     C_2   0.059193 0.388633 0.664320 0.292710
C24   C     C_R   0.120678 0.554866 0.189910 0.565713
C25   C     C_2   0.615939 0.672376 0.836276 0.289404
C26   C     C_2   0.911342 0.295124 0.070448 0.232975
C27   C     C_2   0.375997 0.082595 0.428230 0.228116
C28   C     C_2   0.700924 0.636678 0.069413 0.224043
C29   C     C_2   0.908116 0.295135 0.428618 0.243991
C30   C     C_2   0.586682 0.185776 0.082735 0.253712
C31   C     C_2   0.705328 0.627401 0.429295 0.239204
C32   C     C_2   0.295274 0.910394 0.570478 0.245469
C33   C     C_2   0.079930 0.373787 0.928521 0.223297
C34   C     C_2   0.626474 0.705205 0.571222 0.238991
C35   C     C_1   0.007270 0.491476 0.018317 -0.028508
C36   C     C_2   0.310122 0.933591 0.934436 0.248433
C37   C     C_2   0.080106 0.374198 0.571451 0.227693
C38   C     C_2   0.627240 0.706111 0.929243 0.237543
C39   C     C_1   0.488993 0.001807 0.480642 -0.020995
C40   C     C_1   0.505580 0.514094 0.018296 -0.018744
C41   C     C_1   0.006249 0.490776 0.481601 -0.031725
C42   C     C_1   0.508869 0.011728 0.019613 -0.026142
C43   C     C_1   0.510878 0.513596 0.481226 -0.025830
C44   C     C_1   0.491390 0.007580 0.518231 -0.031795
C45   C     C_R   0.878925 0.434051 0.689880 0.580826
C46   C     C_1   0.001145 0.488852 0.980744 -0.021949
C47   C     C_1   0.513599 0.510685 0.518820 -0.025655
C48   C     C_1   0.512654 0.023742 0.982360 -0.032054
C49   C     C_1   0.999957 0.487972 0.519180 -0.021109
C50   C     C_1   0.508320 0.511361 0.980685 -0.024479
C51   C     C_R   0.943047 0.477085 0.850001 -0.013048
C52   C     C_R   0.534322 0.058203 0.649592 -0.022471
C53   C     C_R   0.523096 0.466718 0.849882 -0.013752
C54   C     C_R   0.942318 0.476548 0.649963 -0.010772
C55   C     C_R   0.537270 0.060748 0.850521 -0.023691
C56   C     C_R   0.555213 0.120856 0.810019 0.571698
C57   C     C_R   0.523486 0.465208 0.649737 -0.013101
C58   C     C_R   0.477397 0.943437 0.349922 -0.008979
C59   C     C_R   0.058295 0.534431 0.149624 -0.013005
C60   C     C_R   0.465594 0.523914 0.350265 -0.013751
C61   C     C_R   0.461205 0.918039 0.147037 0.001699
C62   C     C_R   0.058817 0.534862 0.350397 -0.022306
C63   C     C_R   0.465046 0.523495 0.149670 -0.006876
C64   C     C_R   0.924737 0.548083 0.876658 -0.023206
C65   C     C_R   0.624497 0.079650 0.622998 -0.028832
C66   C     C_R   0.449691 0.377514 0.876025 -0.022637
C67   C     C_R   0.565911 0.444734 0.689814 0.582062
C68   C     C_R   0.923375 0.547024 0.623310 -0.020715
C69   C     C_R   0.629968 0.080053 0.875343 -0.028167
C70   C     C_R   0.453532 0.375453 0.622928 -0.022479
C71   C     C_R   0.548031 0.924800 0.376635 -0.020786
C72   C     C_R   0.079941 0.624753 0.123029 -0.019987
C73   C     C_R   0.375967 0.453582 0.376840 -0.022614
C74   C     C_R   0.425689 0.838470 0.114379 0.008206
C75   C     C_R   0.081344 0.625153 0.377302 -0.028955
C76   C     C_R   0.375028 0.451145 0.123423 0.013149
C77   C     C_R   0.947841 0.551515 0.919391 -0.065490
C78   C     C_R   0.879118 0.434220 0.810110 0.580343
C79   C     C_R   0.606335 0.062256 0.579928 -0.083427
C80   C     C_R   0.445320 0.396737 0.918762 -0.088004
C81   C     C_R   0.946163 0.550208 0.580581 -0.061371
C82   C     C_R   0.618668 0.069983 0.918770 -0.086606
C83   C     C_R   0.450901 0.394895 0.580148 -0.089008
C84   C     C_R   0.551491 0.948088 0.419352 -0.060778
C85   C     C_R   0.062397 0.606550 0.079982 -0.057059
C86   C     C_R   0.395370 0.450849 0.419632 -0.089051
C87   C     C_R   0.446936 0.874252 0.073042 -0.058425
C88   C     C_R   0.063249 0.606573 0.420290 -0.082756
C89   C     C_R   0.554920 0.120831 0.689860 0.571604
C90   C     C_R   0.392827 0.448494 0.080464 -0.039886
C91   C     C_R   0.991823 0.489802 0.935920 -0.020516
C92   C     C_R   0.500618 0.016246 0.563106 -0.029414
C93   C     C_R   0.508160 0.501966 0.935788 -0.030656
C94   C     C_R   0.990622 0.488918 0.564029 -0.016980
C95   C     C_R   0.516450 0.031877 0.937582 -0.031378
C96   C     C_R   0.512219 0.500707 0.563680 -0.029064
C97   C     C_R   0.490336 0.992761 0.435803 -0.016268
C98   C     C_R   0.016260 0.500721 0.063171 -0.014846
C99   C     C_R   0.501029 0.512430 0.436350 -0.029309
C100  C     C_R   0.444877 0.566040 0.310176 0.582201
C101  C     C_R   0.499309 0.986023 0.063359 -0.011904
C102  C     C_R   0.015730 0.500489 0.436753 -0.029089
C103  C     C_R   0.497235 0.513078 0.063232 -0.008271
C104  C     C_R   0.024958 0.431024 0.909429 0.012918
C105  C     C_R   0.407660 0.974748 0.589526 0.018825
C106  C     C_R   0.569247 0.594148 0.909718 0.013205
C107  C     C_R   0.024461 0.430793 0.590531 0.020012
C108  C     C_R   0.419672 0.990942 0.913086 0.014492
C109  C     C_R   0.569792 0.592938 0.590268 0.014760
C110  C     C_R   0.432364 0.026638 0.409223 0.021428
C111  C     C_R   0.432554 0.877051 0.189987 0.582958
C112  C     C_R   0.975049 0.407638 0.089564 0.022924
C113  C     C_R   0.593190 0.570474 0.409992 0.014503
C114  C     C_R   0.535568 0.067320 0.095137 0.027577
C115  C     C_R   0.973715 0.407714 0.410002 0.018409
C116  C     C_R   0.590017 0.574109 0.089202 0.003679
C117  C     C_R   0.005953 0.429776 0.865536 0.040175
C118  C     C_R   0.424483 0.994941 0.633433 0.039324
C119  C     C_R   0.571833 0.576927 0.865822 0.037588
C120  C     C_R   0.005511 0.429577 0.634422 0.043569
C121  C     C_R   0.429933 0.004376 0.868844 0.035233
C122  C     C_R   0.121056 0.555118 0.310159 0.574858
C123  C     C_R   0.570423 0.575411 0.634202 0.036434
C124  C     C_R   0.430906 0.007205 0.365341 0.044615
C125  C     C_R   0.995110 0.424529 0.133475 0.044313
C126  C     C_R   0.575719 0.571253 0.366036 0.035981
C127  C     C_R   0.518696 0.033080 0.137843 0.009632
C128  C     C_R   0.994540 0.424882 0.366181 0.038690
C129  C     C_R   0.574518 0.573455 0.133295 0.019963
C130  C     C_2   0.883830 0.621420 0.861207 0.276991
C131  C     C_2   0.738217 0.118707 0.638821 0.271138
C132  C     C_2   0.374417 0.263964 0.860025 0.260436
Cr1   Cr    Cr6+3 0.504240 0.249200 0.750000 1.064912
Cr2   Cr    Cr6+3 0.744960 0.495760 0.750000 1.073707
Cr3   Cr    Cr6+3 0.750800 0.255040 0.750000 1.072261
Cr4   Cr    Cr6+3 0.249200 0.504240 0.250000 1.061095
Cr5   Cr    Cr6+3 0.495760 0.744960 0.250000 1.085797
Cr6   Cr    Cr6+3 0.255040 0.750800 0.250000 1.065928
H1    H     H_    0.084703 0.675855 0.059077 0.179206
H2    H     H_    0.690048 0.090223 0.938311 0.185512
H3    H     H_    0.927643 0.600036 0.559634 0.184516
H4    H     H_    0.393366 0.328440 0.939372 0.180734
H5    H     H_    0.902021 0.654273 0.829611 0.145646
H6    H     H_    0.751670 0.097843 0.670187 0.141896
H7    H     H_    0.344035 0.250493 0.828021 0.144802
H8    H     H_    0.900762 0.653539 0.670350 0.145637
H9    H     H_    0.743999 0.081937 0.825572 0.137863
H10   H     H_    0.347419 0.246021 0.669804 0.144686
H11   H     H_    0.653891 0.901360 0.329682 0.147781
H12   H     H_    0.601270 0.929627 0.440375 0.184389
H13   H     H_    0.098592 0.752504 0.170046 0.146424
H14   H     H_    0.246862 0.346788 0.329694 0.144726
H15   H     H_    0.344437 0.685429 0.154350 0.119977
H16   H     H_    0.102029 0.754018 0.330614 0.143937
H17   H     H_    0.249341 0.343961 0.171190 0.141131
H18   H     H_    0.951829 0.253189 0.152765 0.173125
H19   H     H_    0.329657 0.083521 0.344461 0.169896
H20   H     H_    0.753700 0.675073 0.152457 0.164240
H21   H     H_    0.949050 0.252792 0.346817 0.167584
H22   H     H_    0.641430 0.195329 0.166712 0.184275
H23   H     H_    0.323974 0.396964 0.059867 0.173332
H24   H     H_    0.753388 0.673767 0.345514 0.173723
H25   H     H_    0.252737 0.950680 0.652323 0.168452
H26   H     H_    0.081286 0.327511 0.844768 0.174391
H27   H     H_    0.671676 0.753357 0.655084 0.172754
H28   H     H_    0.257062 0.963223 0.852918 0.176443
H29   H     H_    0.080517 0.327106 0.655237 0.171875
H30   H     H_    0.679746 0.754220 0.845576 0.174950
H31   H     H_    0.927850 0.281348 0.038397 0.143416
H32   H     H_    0.414046 0.138785 0.454505 0.114277
H33   H     H_    0.720872 0.601849 0.042622 0.134610
H34   H     H_    0.086024 0.675773 0.441428 0.184556
H35   H     H_    0.925157 0.279919 0.460396 0.143476
H36   H     H_    0.630577 0.213532 0.053182 0.133601
H37   H     H_    0.723198 0.589814 0.455707 0.121373
H38   H     H_    0.280742 0.928227 0.538725 0.144099
H39   H     H_    0.136084 0.411517 0.954819 0.119979
H40   H     H_    0.588885 0.723004 0.544772 0.121219
H41   H     H_    0.301594 0.957927 0.965947 0.141849
H42   H     H_    0.136095 0.412147 0.545247 0.114751
H43   H     H_    0.589415 0.724717 0.955371 0.121758
H44   H     H_    0.419697 0.814113 0.047711 0.172211
H45   H     H_    0.326902 0.401138 0.440510 0.178236
H46   H     H_    0.675539 0.084399 0.559014 0.184627
H47   H     H_    0.929803 0.601737 0.940362 0.185121
H48   H     H_    0.401515 0.326357 0.559083 0.178196
O1    O     O_R   0.480350 0.140770 0.796330 -0.466903
O2    O     O_R   0.140770 0.480350 0.203670 -0.466955
O3    O     O_R   0.519650 0.660420 0.296330 -0.459666
O4    O     O_R   0.339580 0.859230 0.203670 -0.462093
O5    O     O_R   0.514930 0.348530 0.793250 -0.528857
O6    O     O_R   0.833600 0.485070 0.706750 -0.529720
O7    O     O_R   0.651470 0.166400 0.793250 -0.527497
O8    O     O_R   0.514930 0.348530 0.706750 -0.529120
O9    O     O_R   0.833600 0.485070 0.793250 -0.529398
O10   O     O_R   0.651470 0.166400 0.706750 -0.528129
O11   O     O_R   0.348530 0.514930 0.293250 -0.527506
O12   O     O_R   0.660420 0.519650 0.703670 -0.461333
O13   O     O_R   0.485070 0.833600 0.206750 -0.510834
O14   O     O_R   0.166400 0.651470 0.293250 -0.525921
O15   O     O_R   0.348530 0.514930 0.206750 -0.532351
O16   O     O_R   0.485070 0.833600 0.293250 -0.525135
O17   O     O_R   0.166400 0.651470 0.206750 -0.538753
O18   O     O_3   0.666667 0.333333 0.750000 -0.257771
O19   O     O_3   0.333333 0.666667 0.250000 -0.270933
O20   O     O_2   0.832200 0.649223 0.884225 -0.475072
O21   O     O_2   0.818483 0.171654 0.616362 -0.475327
O22   O     O_2   0.341905 0.183851 0.883055 -0.529792
O23   O     O_R   0.859230 0.339580 0.796330 -0.457415
O24   O     O_2   0.829987 0.647329 0.615748 -0.474303
O25   O     O_2   0.823663 0.157826 0.877679 -0.470024
O26   O     O_2   0.352563 0.181516 0.615056 -0.529058
O27   O     O_2   0.648349 0.831465 0.384337 -0.474870
O28   O     O_2   0.174725 0.819111 0.116513 -0.485241
O29   O     O_2   0.182141 0.352542 0.384232 -0.527881
O30   O     O_2   0.332609 0.650152 0.093897 -0.518737
O31   O     O_2   0.176348 0.819235 0.384701 -0.476632
O32   O     O_2   0.181075 0.345961 0.116921 -0.517964
O33   O     O_2   0.915676 0.331088 0.196666 -0.444046
O34   O     O_R   0.480350 0.140770 0.703670 -0.469709
O35   O     O_2   0.427623 0.084543 0.299871 -0.431505
O36   O     O_2   0.660008 0.578102 0.197889 -0.429240
O37   O     O_2   0.916392 0.332207 0.302486 -0.432055
O38   O     O_2   0.523766 0.100162 0.206734 -0.423195
O39   O     O_2   0.657493 0.573352 0.300996 -0.438690
O40   O     O_2   0.331042 0.916824 0.696775 -0.437255
O41   O     O_2   0.084131 0.426642 0.800261 -0.435763
O42   O     O_2   0.572306 0.656810 0.699437 -0.439352
O43   O     O_2   0.326157 0.920722 0.807657 -0.438418
O44   O     O_2   0.084419 0.427191 0.699700 -0.435183
O45   O     O_R   0.660420 0.519650 0.796330 -0.461577
O46   O     O_2   0.577671 0.660944 0.800932 -0.439977
O47   O     O_2   0.836727 0.217927 0.089321 -0.533392
O48   O     O_2   0.284312 0.061783 0.416643 -0.462047
O49   O     O_2   0.768230 0.729936 0.081033 -0.490847
O50   O     O_2   0.831275 0.219752 0.409671 -0.507828
O51   O     O_2   0.576295 0.252439 0.104221 -0.503146
O52   O     O_2   0.776349 0.719047 0.417785 -0.453178
O53   O     O_2   0.219254 0.833674 0.589032 -0.507772
O54   O     O_2   0.058346 0.281765 0.916966 -0.459801
O55   O     O_2   0.717942 0.776418 0.582989 -0.453157
O56   O     O_R   0.859230 0.339580 0.703670 -0.460975
O57   O     O_2   0.229834 0.855522 0.918105 -0.502677
O58   O     O_2   0.059273 0.282439 0.582899 -0.461415
O59   O     O_2   0.719827 0.776073 0.918251 -0.452529
O60   O     O_R   0.140770 0.480350 0.296330 -0.468401
O61   O     O_R   0.519650 0.660420 0.203670 -0.463771
O62   O     O_R   0.339580 0.859230 0.296330 -0.462404

loop_
_geom_bond_atom_site_label_1
_geom_bond_atom_site_label_2
_ccdc_geom_bond_type
C55   C56   S    
C55   C121  A    
C25   O46   D    
C38   C106  S    
C65   C79   A    
C48   C95   S    
C54   C120  A    
C106  C119  A    
C36   C108  S    
C33   C104  S    
C77   H47   S    
C64   C77   A    
C14   O35   D    
C100  O3    A    
C52   C65   A    
C62   C122  S    
C91   C104  A    
C67   O12   A    
C131  O21   D    
C10   H16   S    
C87   H44   S    
C72   C85   A    
C24   O17   A    
Cr5   O19   S    
C79   H46   S    
C97   C110  A    
C32   H38   S    
C38   H43   S    
C11   O32   D    
C88   H34   S    
C68   C81   A    
C18   H24   S    
Cr3   O56   S    
C8    H14   S    
C19   O40   D    
C12   H18   S    
C37   C107  S    
C11   C76   S    
C37   H42   S    
Cr4   O19   S    
Cr5   O61   S    
C63   C129  A    
C58   C71   A    
C39   C97   S    
C54   C68   A    
C63   C76   A    
C20   H26   S    
C60   C73   A    
C21   H27   S    
C13   O16   A    
Cr6   O17   S    
Cr2   O6    S    
C21   O42   D    
C17   H22   S    
C1    C53   S    
C4    C69   S    
C82   H2    S    
C85   C98   A    
C28   C116  S    
C27   O48   D    
C110  C124  A    
Cr3   O10   S    
C87   C101  A    
C6    H11   S    
C116  C129  A    
C3    C68   S    
C19   C118  S    
Cr1   O8    S    
C47   C96   S    
C83   H48   S    
C102  C115  A    
C57   C70   A    
C35   C98   S    
C108  C121  A    
C12   O33   D    
C57   C123  A    
C44   C92   S    
C11   H17   S    
C59   C72   A    
C122  O60   A    
C111  O13   A    
C100  O11   A    
C8    O29   D    
C3    O24   D    
C81   H3    S    
C29   C115  S    
C9    H15   S    
C9    O30   D    
C5    H10   S    
C36   H41   S    
Cr4   O2    S    
C34   O55   D    
C101  C114  A    
C52   C89   S    
Cr6   O4    S    
C2    O15   A    
C57   C67   S    
C25   C119  S    
C41   C49   T    
Cr4   O15   S    
C65   C131  S    
Cr6   O19   S    
C66   C132  S    
C25   H30   S    
C6    C71   S    
C73   C86   A    
C45   O6    A    
C94   C107  A    
Cr1   O34   S    
C98   C112  A    
C90   H23   S    
C33   H39   S    
C75   C88   A    
C23   O44   D    
C84   H12   S    
Cr5   O13   S    
C14   C124  S    
C27   C110  S    
C15   H20   S    
C7    C72   S    
C130  H5    S    
C109  C123  A    
C31   H37   S    
C113  C126  A    
C14   H19   S    
C19   H25   S    
C89   O10   A    
C84   C97   A    
C115  C128  A    
C37   O58   D    
C21   C123  S    
C74   C87   A    
C2    O61   A    
C29   O50   D    
C5    C70   S    
C130  O20   D    
C18   O39   D    
C30   H36   S    
C93   C106  A    
Cr3   O7    S    
C16   C128  S    
C10   C75   S    
C1    O45   A    
C28   H33   S    
C15   C129  S    
C56   O1    A    
C41   C102  S    
Cr4   O11   S    
Cr4   O60   S    
C61   C127  A    
C42   C48   T    
Cr2   O45   S    
C86   C99   A    
C4    O25   D    
C78   O23   A    
C112  C125  A    
C39   C44   T    
C111  O4    A    
Cr5   O3    S    
C1    O5    A    
C26   O47   D    
Cr2   O9    S    
Cr3   O23   S    
C31   O52   D    
C64   C130  S    
C45   C54   S    
C132  O22   D    
C80   H4    S    
C32   C105  S    
C86   H45   S    
C49   C94   S    
C23   H29   S    
C105  C118  A    
C34   H40   S    
C9    C74   S    
C132  H7    S    
C30   O51   D    
C61   C111  S    
C42   C101  S    
C26   C112  S    
C107  C120  A    
C23   C120  S    
C114  C127  A    
C2    C63   S    
Cr1   O5    S    
C22   C121  S    
C79   C92   A    
C71   C84   A    
C30   C114  S    
Cr2   O12   S    
C5    O26   D    
C85   H1    S    
C77   C91   A    
C82   C95   A    
C36   O57   D    
C17   C127  S    
C51   C64   A    
C52   C118  A    
C29   H35   S    
C60   C100  S    
C99   C113  A    
C88   C102  A    
C53   C119  A    
C50   C93   S    
Cr2   O18   S    
Cr3   O18   S    
C13   C58   S    
C32   O53   D    
C61   C74   A    
C59   C125  A    
C67   O8    A    
C66   C80   A    
C96   C109  A    
C104  C117  A    
C58   C124  A    
C12   C125  S    
C24   O2    A    
C55   C69   A    
C15   O36   D    
C60   C126  A    
C103  C116  A    
C27   H32   S    
C51   C78   S    
C20   O41   D    
C17   O38   D    
C53   C66   A    
C43   C99   S    
C40   C103  S    
C62   C128  A    
C81   C94   A    
C4    H9    S    
C70   C83   A    
C22   O43   D    
C43   C47   T    
Cr1   O18   S    
C24   C59   S    
C40   C50   T    
C83   C96   A    
C8    C73   S    
C51   C117  A    
C31   C113  S    
C69   C82   A    
C78   O9    A    
C26   H31   S    
C62   C75   A    
C6    O27   D    
C90   C103  A    
C16   H21   S    
C7    O28   D    
Cr6   O62   S    
C95   C108  A    
Cr1   O1    S    
C28   O49   D    
C56   O7    A    
C22   H28   S    
C92   C105  A    
C13   O62   A    
C7    H13   S    
C3    H8    S    
Cr5   O16   S    
C33   O54   D    
C34   C109  S    
C38   O59   D    
C16   O37   D    
C122  O14   A    
C80   C93   A    
C35   C46   T    
C20   C117  S    
C45   O56   A    
C46   C91   S    
C18   C126  S    
C131  H6    S    
C10   O31   D    
C76   C90   A    
C89   O34   A    
Cr6   O14   S    
