data_mof_unit_601.cif
_audit_creation_date              2012-10-26T21:24:49-0400
_audit_creation_method            fapswitch 2.2
_symmetry_space_group_name_H-M    P1
_symmetry_Int_Tables_number       1
_space_group_crystal_system       triclinic
_cell_length_a                    9.553572
_cell_length_b                    10.841919
_cell_length_c                    15.441301
_cell_angle_alpha                 89.594374
_cell_angle_beta                  74.456536
_cell_angle_gamma                 90.116415
_cell_volume                      1540.84995539

loop_
_atom_site_label
_atom_site_type_symbol
_atom_type_description
_atom_site_fract_x
_atom_site_fract_y
_atom_site_fract_z
_atom_type_partial_charge
C1    C     C_R   0.998630 0.262567 0.502860 0.547431
C2    C     C_R   0.235839 0.583513 0.046847 0.028684
C3    C     C_R   0.333287 0.536583 0.094533 0.012256
C4    C     C_R   0.918357 0.499419 0.672251 0.546975
C5    C     C_R   0.085920 0.588262 0.090563 -0.120657
C6    C     C_R   0.033727 0.555713 0.180763 -0.146488
C7    C     C_R   0.275983 0.500968 0.185031 -0.131619
C8    C     C_R   0.117818 0.064385 0.515049 0.056703
C9    C     C_R   0.993057 0.130099 0.514796 -0.026755
C10   C     C_R   0.860547 0.066226 0.531258 -0.159245
C11   C     C_R   0.858074 0.936978 0.532266 0.068274
C12   C     C_R   0.680180 0.522123 0.909989 0.036624
C13   C     C_R   0.991173 0.871257 0.515576 0.038530
C14   C     C_R   0.117199 0.937442 0.514978 -0.021271
C15   C     C_3   0.267639 0.931506 0.453790 -0.267360
C16   C     C_R   0.998153 0.737867 0.503386 0.570870
C17   C     C_3   0.267697 0.072054 0.453379 -0.021899
C18   C     C_R   0.607073 0.525331 0.423007 0.157239
C19   C     C_R   0.542100 0.462292 0.573475 0.003925
C20   C     C_R   0.393486 0.462738 0.573575 0.022467
C21   C     C_R   0.459828 0.524247 0.422842 0.162366
C22   C     C_3   0.476749 0.639213 0.367903 -0.279887
C23   C     C_R   0.779697 0.486033 0.958846 0.051544
C24   C     C_3   0.634774 0.641844 0.369123 -0.277077
C25   C     C_R   0.082030 0.501362 0.327647 0.539877
C26   C     C_R   0.873944 0.498394 0.770928 0.001552
C27   C     C_R   0.129165 0.516080 0.229296 -0.000636
C28   C     C_R   0.924961 0.460909 0.913945 -0.116923
C29   C     C_R   0.972102 0.468039 0.820560 -0.094447
C30   C     C_R   0.729497 0.524681 0.815614 -0.135453
C31   C     C_2   0.200038 0.688023 0.905891 0.550755
C32   C     C_R   0.533417 0.548878 0.956623 0.006544
C33   C     C_R   0.484145 0.524997 0.050403 0.030319
C34   C     C_R   0.587934 0.491363 0.096899 -0.129630
C35   C     C_R   0.732832 0.473537 0.051839 -0.133989
C36   C     C_R   0.436200 0.602164 0.912639 -0.147550
C37   C     C_R   0.290172 0.622232 0.956542 0.046357
Cu1   Cu    Cu3+1 0.140670 0.499980 0.500000 0.968175
Cu2   Cu    Cu3+1 0.859330 0.500020 0.500000 0.957223
H1    H     H_    0.808051 0.446818 0.090069 0.103811
H2    H     H_    0.343088 0.460294 0.223311 0.117397
H3    H     H_    0.412605 0.715918 0.405048 0.146126
H4    H     H_    0.709344 0.628733 0.301442 0.117261
H5    H     H_    0.662314 0.720620 0.407170 0.164735
H6    H     H_    0.919169 0.564011 0.212738 0.116709
H7    H     H_    0.001677 0.433752 0.950987 0.109329
H8    H     H_    0.084126 0.446474 0.787176 0.146546
H9    H     H_    0.656029 0.542364 0.774951 0.121052
H10   H     H_    0.562186 0.480463 0.168762 0.095911
H11   H     H_    0.473552 0.636287 0.844561 0.136918
H12   H     H_    0.007044 0.616823 0.055921 0.163086
H13   H     H_    0.655970 0.900113 0.610015 0.233129
H14   H     H_    0.670726 0.905850 0.498623 0.210470
H15   H     H_    0.475936 0.109961 0.456442 0.221535
H16   H     H_    0.363146 0.082963 0.559098 0.237405
H17   H     H_    0.046578 0.815771 0.906248 0.344025
H18   H     H_    0.759436 0.115648 0.539179 0.137377
H19   H     H_    0.345106 0.890193 0.488039 0.141239
H20   H     H_    0.270019 0.891914 0.387172 0.116120
H21   H     H_    0.272220 0.115094 0.387040 0.151336
H22   H     H_    0.570387 0.432591 0.633499 0.118543
H23   H     H_    0.312135 0.434094 0.633583 0.124524
H24   H     H_    0.461763 0.623140 0.299996 0.125358
N1    N     N_R   0.648210 0.500930 0.499430 -0.228752
N2    N     N_R   0.352300 0.500890 0.499430 -0.226575
N3    N     N_3   0.721195 0.874584 0.546929 -0.598439
N4    N     N_3   0.371240 0.126505 0.497189 -0.610828
O1    O     O_R   0.118810 0.319640 0.500000 -0.472412
O2    O     O_R   0.100016 0.777334 0.948192 -0.706236
O3    O     O_R   0.881230 0.319680 0.499990 -0.510448
O4    O     O_R   0.055580 0.499970 0.629840 -0.501830
O5    O     O_R   0.818000 0.500010 0.629830 -0.517197
O6    O     O_R   0.118770 0.680320 0.500010 -0.506355
O7    O     O_R   0.881190 0.680360 0.500000 -0.458757
O8    O     O_R   0.182000 0.499990 0.370170 -0.510590
O9    O     O_R   0.944420 0.500030 0.370160 -0.503156
O10   O     O_2   0.218202 0.668016 0.825769 -0.542172

loop_
_geom_bond_atom_site_label_1
_geom_bond_atom_site_label_2
_ccdc_geom_bond_type
C6    H6    S    
C18   C21   A    
C19   C20   A    
C36   H11   S    
Cu2   N1    S    
C12   C23   A    
C28   H7    S    
C29   H8    S    
C16   O7    A    
C5    C6    A    
C32   C36   A    
C30   H9    S    
C36   C37   A    
C3    C7    A    
Cu1   Cu2   S    
C3    C33   A    
C1    O1    A    
C7    C27   A    
C34   C35   A    
Cu2   O7    S    
C22   H24   S    
C8    C9    A    
Cu2   O5    S    
C18   C24   S    
C9    C10   A    
C11   N3    S    
C12   C30   A    
C13   C14   A    
C12   C32   A    
C31   O10   D    
Cu1   O8    S    
C17   N4    S    
C16   O6    A    
C20   N2    A    
C10   H18   S    
C1    C9    S    
H15   N4    S    
Cu2   O9    S    
C31   C37   S    
C25   O8    A    
C4    C26   S    
C6    C27   A    
Cu1   N2    S    
C19   N1    A    
C33   C34   A    
C23   C28   A    
H14   N3    S    
Cu1   O1    S    
C26   C30   A    
C23   C35   A    
C24   H5    S    
C15   H19   S    
C22   C24   S    
C2    C5    A    
C4    O5    A    
H13   N3    S    
C15   C17   S    
Cu1   O4    S    
C28   C29   A    
C34   H10   S    
C8    C14   A    
C21   N2    A    
C15   H20   S    
C1    O3    A    
H16   N4    S    
C25   C27   S    
C8    C17   S    
C25   O9    A    
C32   C33   A    
C2    C3    A    
C11   C13   A    
C2    C37   A    
C18   N1    A    
C22   H3    S    
C19   H22   S    
Cu2   O3    S    
C35   H1    S    
C7    H2    S    
C20   H23   S    
C10   C11   A    
C17   H21   S    
C31   O2    S    
C26   C29   A    
H17   O2    S    
C13   C16   S    
C24   H4    S    
C14   C15   S    
C5    H12   S    
C21   C22   S    
C4    O4    A    
Cu1   O6    S    
