data_mof_unit_650.cif
_audit_creation_date              2012-12-10T17:02:32-0500
_audit_creation_method            fapswitch 2.2
_symmetry_space_group_name_H-M    P1
_symmetry_Int_Tables_number       1
_space_group_crystal_system       triclinic
_cell_length_a                    10.757079
_cell_length_b                    11.05709
_cell_length_c                    9.89838
_cell_angle_alpha                 111.956327
_cell_angle_beta                  101.205912
_cell_angle_gamma                 89.7435
_cell_volume                      1068.10984444

loop_
_atom_site_label
_atom_site_type_symbol
_atom_type_description
_atom_site_fract_x
_atom_site_fract_y
_atom_site_fract_z
_atom_type_partial_charge
C1    C     C_R   0.487563 0.253576 0.439362 0.855938
C2    C     C_R   0.512437 0.746424 0.560638 0.855938
C3    C     C_2   0.475692 0.112943 0.403076 -0.002483
C4    C     C_2   0.524309 0.887057 0.596924 -0.002483
C5    C     C_2   0.506135 0.069324 0.513539 -0.059079
C6    C     C_2   0.493869 0.930675 0.486460 -0.059082
C7    C     C_2   0.506027 0.513654 0.083063 0.092664
C8    C     C_2   0.493973 0.486346 0.916937 0.092665
C9    C     C_R   0.261429 0.512760 0.499224 0.860708
C10   C     C_R   0.738571 0.487239 0.500776 0.860708
C11   C     C_R   0.147456 0.707942 0.740177 0.349116
C12   C     C_R   0.852543 0.292058 0.259823 0.349116
C13   C     C_R   0.109228 0.759221 0.876089 -0.242477
C14   C     C_R   0.890772 0.240779 0.123911 -0.242477
C15   C     C_R   0.011249 0.695022 0.902138 0.342775
C16   C     C_R   0.988751 0.304977 0.097862 0.342775
C17   C     C_R   0.943805 0.584302 0.787080 0.349745
C18   C     C_R   0.056195 0.415698 0.212920 0.349746
C19   C     C_R   0.965364 0.548028 0.640148 -0.130047
C20   C     C_R   0.034636 0.451972 0.359851 -0.130048
C21   C     C_R   0.080950 0.594825 0.623973 -0.058485
C22   C     C_R   0.919050 0.405175 0.376027 -0.058485
C23   C     C_R   0.876452 0.469514 0.509239 -0.020108
C24   C     C_R   0.123547 0.530486 0.490761 -0.020107
Cu1   Cu    Cu3+1 0.521920 0.521810 0.644910 1.034475
Cu2   Cu    Cu3+1 0.478080 0.478190 0.355090 1.034475
H1    H     H_    0.157689 0.847994 0.962956 0.217123
H2    H     H_    0.842311 0.152006 0.037044 0.217123
H3    H     H_    0.458782 0.862094 0.372913 0.194766
H4    H     H_    0.541223 0.137905 0.627086 0.194766
H5    H     H_    0.430873 0.403881 0.837240 0.139604
H6    H     H_    0.569127 0.596119 0.162760 0.139604
N1    N     N_2   0.445130 0.445420 0.137360 -0.113399
N2    N     N_2   0.554870 0.554580 0.862640 -0.113399
O1    O     O_R   0.511700 0.332340 0.577400 -0.592690
O2    O     O_R   0.488300 0.667660 0.422600 -0.592690
O3    O     O_R   0.474680 0.295500 0.332650 -0.560837
O4    O     O_R   0.525320 0.704500 0.667350 -0.560837
O5    O     O_R   0.338170 0.518410 0.622370 -0.569728
O6    O     O_R   0.661830 0.481590 0.377630 -0.569729
O7    O     O_R   0.301150 0.481570 0.377630 -0.552347
O8    O     O_R   0.698850 0.518430 0.622370 -0.552347
Cl1   Cl    Cl    0.028281 0.241325 0.921338 -0.503944
Cl2   Cl    Cl    0.971719 0.758675 0.078662 -0.503944
Cl3   Cl    Cl    0.260720 0.804554 0.711311 -0.601069
Cl4   Cl    Cl    0.739280 0.195446 0.288689 -0.601069
Cl5   Cl    Cl    0.864998 0.473012 0.838073 -0.478139
Cl6   Cl    Cl    0.135002 0.526988 0.161927 -0.478138
N3    N     N_3   0.570368 0.975659 0.748252 -0.559339
H7    H     H_    0.660048 0.949349 0.785936 0.231681
H8    H     H_    0.509640 0.963204 0.813365 0.284279
N4    N     N_3   0.429631 0.024341 0.251749 -0.559340
H9    H     H_    0.339950 0.050652 0.214066 0.231682
H10   H     H_    0.490357 0.036796 0.186634 0.284278
N5    N     N_3   0.626918 0.667413 0.964425 -0.453748
H11   H     H_    0.664845 0.711521 0.903343 0.276628
H12   H     H_    0.705263 0.638757 0.023133 0.268418
N6    N     N_3   0.373082 0.332587 0.035575 -0.453747
H13   H     H_    0.335155 0.288479 0.096656 0.276628
H14   H     H_    0.294737 0.361242 0.976866 0.268418

loop_
_geom_bond_atom_site_label_1
_geom_bond_atom_site_label_2
_ccdc_geom_bond_type
Cu1   O8    S    
C19   C23   A    
N5    H11   S    
Cu2   O3    S    
N1    N6    S    
C10   C23   S    
C10   O8    A    
C11   C13   A    
C2    O4    A    
Cu2   N1    S    
C2    C4    S    
C1    O3    A    
C4    N3    S    
C3    N4    S    
C6    H3    S    
C13   C15   A    
Cu1   Cu2   S    
C3    C5    D    
N4    H10   S    
N2    N5    S    
C9    C24   S    
C8    N2    D    
Cu1   O5    S    
C7    N1    D    
C16   Cl1   S    
Cu2   O6    S    
Cu1   O1    S    
C4    C6    D    
C17   C19   A    
C12   C14   A    
C15   Cl2   S    
N3    H7    S    
C18   C20   A    
N5    H12   S    
C5    C6    S    
Cu1   O4    S    
C14   C16   A    
C11   Cl3   S    
Cu2   O7    S    
N6    H14   S    
C12   C22   A    
C7    C8    S    
Cu1   N2    S    
N4    H9    S    
C1    O1    A    
C16   C18   A    
C5    H4    S    
C21   C24   A    
C2    O2    A    
C1    C3    S    
C15   C17   A    
Cu2   O2    S    
C22   C23   A    
C13   H1    S    
C10   O6    A    
C7    H6    S    
C14   H2    S    
N6    H13   S    
C19   C21   A    
C8    H5    S    
C9    O7    A    
C11   C21   A    
C9    O5    A    
C20   C24   A    
C17   Cl5   S    
C20   C22   A    
N3    H8    S    
C12   Cl4   S    
C18   Cl6   S    
