data_mof_unit_3210.cif
_audit_creation_date              2012-12-10T21:07:49-0500
_audit_creation_method            fapswitch 2.2
_symmetry_space_group_name_H-M    P1
_symmetry_Int_Tables_number       1
_space_group_crystal_system       triclinic
_cell_length_a                    8.574379
_cell_length_b                    17.642028
_cell_length_c                    16.952443
_cell_angle_alpha                 90.199348
_cell_angle_beta                  96.103103
_cell_angle_gamma                 93.773778
_cell_volume                      2544.18129334

loop_
_atom_site_label
_atom_site_type_symbol
_atom_type_description
_atom_site_fract_x
_atom_site_fract_y
_atom_site_fract_z
_atom_type_partial_charge
C1    C     C_R   0.498802 0.353503 0.499882 0.875302
C2    C     C_R   0.403228 0.449301 0.243961 0.262505
C3    C     C_R   0.612671 0.541585 0.840113 -0.306289
C4    C     C_R   0.411522 0.447021 0.160994 -0.317993
C5    C     C_R   0.509803 0.492686 0.876865 0.039511
C6    C     C_R   0.506704 0.499408 0.123786 0.044159
C7    C     C_1   0.511673 0.494466 0.964351 -0.027087
C8    C     C_1   0.508931 0.495926 0.036579 -0.025900
C9    C     C_R   0.202171 0.496011 0.480963 0.888606
C10   C     C_R   0.797754 0.504272 0.518980 0.892279
C11   C     C_2   0.038982 0.480188 0.476136 0.166610
C12   C     C_R   0.498630 0.646487 0.499933 0.876263
C13   C     C_2   0.960717 0.520679 0.523449 0.155532
C14   C     C_R   0.514565 0.846385 0.578511 0.206953
C15   C     C_R   0.447269 0.153304 0.421020 0.212460
C16   C     C_R   0.517823 0.767651 0.573343 -0.385360
C17   C     C_R   0.454919 0.232422 0.426136 -0.374384
C18   C     C_R   0.493911 0.728950 0.500387 -0.167416
C19   C     C_R   0.493200 0.270855 0.498826 -0.178733
C20   C     C_R   0.461887 0.769397 0.429885 0.467090
C21   C     C_R   0.525811 0.229842 0.568851 0.466416
C22   C     C_R   0.461544 0.847919 0.433657 -0.338713
C23   C     C_1   0.481367 0.966021 0.502423 -0.023332
C24   C     C_R   0.515300 0.151203 0.565104 -0.337378
C25   C     C_R   0.486115 0.886325 0.506533 0.092443
C26   C     C_R   0.478476 0.112960 0.492581 0.089978
C27   C     C_3   0.023012 0.350612 0.460675 0.076644
C28   C     C_3   0.916883 0.284235 0.424510 -0.807169
C29   C     C_3   0.978429 0.649776 0.543202 0.081814
C30   C     C_3   0.068807 0.714299 0.591521 -0.804405
C31   C     C_3   0.542436 0.879183 0.662780 -0.402972
C32   C     C_3   0.546922 0.964983 0.674453 -0.881604
C33   C     C_3   0.404211 0.120426 0.337420 -0.404270
C34   C     C_1   0.478148 0.033071 0.496464 -0.023437
C35   C     C_3   0.398278 0.034599 0.325370 -0.882144
C36   C     C_3   0.273354 0.724182 0.334222 0.127278
C37   C     C_3   0.243555 0.683084 0.254544 -0.816120
C38   C     C_3   0.724380 0.272055 0.660993 0.124138
C39   C     C_3   0.763416 0.315601 0.738929 -0.818681
C40   C     C_3   0.306479 0.382862 0.869395 -0.413057
C41   C     C_3   0.404265 0.315644 0.892742 -0.872052
C42   C     C_3   0.690411 0.617000 0.129556 -0.412304
C43   C     C_3   0.582380 0.677172 0.096019 -0.867052
C44   C     C_3   0.264627 0.404391 0.694055 -0.359928
C45   C     C_R   0.403605 0.443859 0.828435 0.114146
C46   C     C_3   0.108227 0.441016 0.696770 -0.888679
C47   C     C_3   0.727179 0.600233 0.306173 -0.349964
C48   C     C_3   0.888470 0.568982 0.303959 -0.936650
C49   C     C_3   0.728411 0.600844 0.724729 -0.325836
C50   C     C_3   0.724602 0.681618 0.757686 -0.965786
C51   C     C_3   0.283734 0.393492 0.274795 -0.377622
C52   C     C_3   0.116873 0.411698 0.243781 -0.861135
C53   C     C_R   0.598792 0.554569 0.171486 0.116086
C54   C     C_R   0.395969 0.450259 0.743231 0.246350
C55   C     C_R   0.601813 0.550848 0.256759 0.242382
C56   C     C_R   0.607813 0.545671 0.756385 0.244738
H1    H     H_    0.538670 0.736076 0.627439 0.198457
H2    H     H_    0.958879 0.230033 0.449039 0.203608
H3    H     H_    0.794877 0.289718 0.438814 0.259075
H4    H     H_    0.851331 0.653012 0.549779 0.126245
H5    H     H_    0.998046 0.657944 0.479803 0.114919
H6    H     H_    0.196252 0.713096 0.585603 0.263974
H7    H     H_    0.027618 0.769634 0.569837 0.203455
H8    H     H_    0.049888 0.708386 0.655066 0.254572
H9    H     H_    0.643777 0.993258 0.644557 0.260767
H10   H     H_    0.431491 0.986728 0.653177 0.264811
H11   H     H_    0.570531 0.978676 0.738781 0.246531
H12   H     H_    0.430028 0.264354 0.372295 0.173927
H13   H     H_    0.449290 0.853521 0.697218 0.207192
H14   H     H_    0.656467 0.860236 0.690701 0.207487
H15   H     H_    0.515316 0.012908 0.343241 0.264311
H16   H     H_    0.305727 0.006134 0.358060 0.261800
H17   H     H_    0.367360 0.020990 0.261381 0.245672
H18   H     H_    0.287021 0.139637 0.314630 0.203186
H19   H     H_    0.490238 0.145798 0.298677 0.205578
H20   H     H_    0.221334 0.780353 0.327765 0.127001
H21   H     H_    0.213351 0.689809 0.378580 0.129917
H22   H     H_    0.286217 0.625033 0.259666 0.266162
H23   H     H_    0.440599 0.878842 0.378835 0.165269
H24   H     H_    0.115821 0.678946 0.234552 0.200430
H25   H     H_    0.305006 0.715246 0.209582 0.247622
H26   H     H_    0.783732 0.303522 0.614345 0.130886
H27   H     H_    0.771261 0.214808 0.668400 0.128623
H28   H     H_    0.702643 0.286804 0.786317 0.250348
H29   H     H_    0.892042 0.317689 0.756544 0.201054
H30   H     H_    0.725678 0.374489 0.732297 0.265272
H31   H     H_    0.439816 0.288447 0.838851 0.269179
H32   H     H_    0.511075 0.334263 0.932725 0.264044
H33   H     H_    0.333282 0.272967 0.924191 0.246760
H34   H     H_    0.537651 0.120040 0.619651 0.165612
H35   H     H_    0.263116 0.406718 0.923082 0.207275
H36   H     H_    0.198602 0.360421 0.833437 0.208654
H37   H     H_    0.482144 0.651356 0.055841 0.266084
H38   H     H_    0.536697 0.707496 0.145259 0.263553
H39   H     H_    0.649629 0.719162 0.061916 0.246808
H40   H     H_    0.787604 0.647061 0.167486 0.211149
H41   H     H_    0.748075 0.591979 0.080838 0.206299
H42   H     H_    0.065378 0.437010 0.756008 0.235940
H43   H     H_    0.122983 0.502170 0.683234 0.324029
H44   H     H_    0.017139 0.412920 0.652985 0.242938
H45   H     H_    0.698407 0.577093 0.877537 0.172297
H46   H     H_    0.285914 0.398558 0.632405 0.254681
H47   H     H_    0.255825 0.344497 0.713641 0.194035
H48   H     H_    0.882929 0.508615 0.321495 0.325996
H49   H     H_    0.927900 0.571837 0.243966 0.244300
H50   H     H_    0.976800 0.601492 0.345689 0.241223
H51   H     H_    0.727236 0.660283 0.287007 0.199788
H52   H     H_    0.708224 0.603423 0.368115 0.260729
H53   H     H_    0.601614 0.697801 0.757733 0.267696
H54   H     H_    0.784004 0.686404 0.819090 0.260562
H55   H     H_    0.788183 0.722394 0.720624 0.251570
H56   H     H_    0.339527 0.404593 0.124657 0.166317
H57   H     H_    0.847588 0.580449 0.740395 0.202446
H58   H     H_    0.711224 0.604934 0.660363 0.262688
H59   H     H_    0.101039 0.472287 0.255528 0.278578
H60   H     H_    0.093467 0.400338 0.179025 0.241875
H61   H     H_    0.030509 0.376097 0.274086 0.273793
H62   H     H_    0.304697 0.335020 0.255730 0.169281
H63   H     H_    0.290879 0.393199 0.339326 0.261167
H64   H     H_    0.022443 0.347852 0.526328 0.111545
H65   H     H_    0.144297 0.343956 0.445384 0.133803
H66   H     H_    0.917623 0.283001 0.359117 0.248498
N1    N     N_R   0.500040 0.500030 0.707230 -0.140596
N2    N     N_R   0.499960 0.499970 0.292770 -0.138297
O1    O     O_R   0.500000 0.389130 0.566570 -0.595874
O2    O     O_3   0.033050 0.579969 0.571288 -0.627859
O3    O     O_3   0.436900 0.733136 0.356756 -0.604783
O4    O     O_3   0.559733 0.265902 0.641795 -0.603203
O5    O     O_R   0.500000 0.610870 0.433430 -0.602257
O6    O     O_R   0.499990 0.389100 0.433480 -0.639864
O7    O     O_R   0.500010 0.610900 0.566520 -0.629912
O8    O     O_R   0.271750 0.500010 0.550980 -0.603361
O9    O     O_R   0.728250 0.499990 0.449020 -0.602424
O10   O     O_R   0.271740 0.499980 0.417890 -0.630081
O11   O     O_R   0.728260 0.500020 0.582110 -0.648048
O12   O     O_3   0.966979 0.419440 0.430180 -0.624032
Zn1   Zn    Zn3+2 0.500010 0.500020 0.588860 0.937146
Zn2   Zn    Zn3+2 0.499990 0.499980 0.411140 0.937868

loop_
_geom_bond_atom_site_label_1
_geom_bond_atom_site_label_2
_ccdc_geom_bond_type
C41   H33   S    
C46   H43   S    
C12   O7    A    
C30   H8    S    
C38   H27   S    
C49   H57   S    
C10   O9    A    
C14   C31   S    
C54   N1    A    
C28   H2    S    
C43   H38   S    
C27   H65   S    
C7    C8    T    
C27   H64   S    
C42   H40   S    
C27   O12   S    
C47   C55   S    
C36   C37   S    
C19   C21   A    
C1    O1    A    
C22   H23   S    
C36   H21   S    
C42   C53   S    
C38   C39   S    
C28   H66   S    
C28   H3    S    
C48   H48   S    
C50   H54   S    
C51   H62   S    
O11   Zn1   S    
C36   H20   S    
C43   H37   S    
C33   H19   S    
C31   H14   S    
C48   H50   S    
O5    Zn2   S    
C48   H49   S    
C22   C25   A    
C47   C48   S    
C43   H39   S    
C52   H61   S    
C3    H45   S    
C53   C55   A    
C49   H58   S    
C4    H56   S    
C35   H15   S    
O9    Zn2   S    
C14   C25   A    
C30   H7    S    
C38   H26   S    
C37   H25   S    
C44   H47   S    
C44   C46   S    
C52   H60   S    
C40   C45   S    
C41   H31   S    
C37   H24   S    
C29   H5    S    
C1    C19   S    
C12   O5    A    
C51   C52   S    
C56   N1    A    
C10   O11   A    
C20   O3    S    
C4    C6    A    
C1    O6    A    
C42   H41   S    
C5    C7    S    
C44   H46   S    
C17   C19   A    
C15   C26   A    
C6    C8    S    
O1    Zn1   S    
O8    Zn1   S    
C5    C45   A    
C50   H53   S    
C2    C4    A    
O10   Zn2   S    
C29   C30   S    
O7    Zn1   S    
C3    C56   A    
C51   H63   S    
C31   C32   S    
C29   H4    S    
C23   C34   T    
C40   H36   S    
C21   O4    S    
C9    C11   S    
C32   H11   S    
C13   O2    S    
C40   C41   S    
C20   C22   A    
C35   H16   S    
C47   H52   S    
C47   H51   S    
C30   H6    S    
C14   C16   A    
C36   O3    S    
C42   C43   S    
C39   H29   S    
C6    C53   A    
O6    Zn2   S    
C52   H59   S    
C32   H10   S    
C9    O8    A    
N2    Zn2   S    
C15   C17   A    
C41   H32   S    
C46   H44   S    
C55   N2    A    
C35   H17   S    
C17   H12   S    
C26   C34   S    
C24   C26   A    
C3    C5    A    
C10   C13   S    
C24   H34   S    
C45   C54   A    
C39   H28   S    
C38   O4    S    
C2    N2    A    
C49   C56   S    
C37   H22   S    
N1    Zn1   S    
C11   O12   S    
C9    O10   A    
C11   C13   D    
C50   H55   S    
C33   C35   S    
C18   C20   A    
C16   H1    S    
C23   C25   S    
C40   H35   S    
C46   H42   S    
C2    C51   S    
C44   C54   S    
C33   H18   S    
C31   H13   S    
C16   C18   A    
C49   C50   S    
C21   C24   A    
C12   C18   S    
C27   C28   S    
C39   H30   S    
C29   O2    S    
C15   C33   S    
C32   H9    S    
