data_mof_unit_2413.cif
_audit_creation_date              2013-03-05T16:32:08-0500
_audit_creation_method            fapswitch 2.2
_symmetry_space_group_name_H-M    P1
_symmetry_Int_Tables_number       1
_space_group_crystal_system       triclinic
_cell_length_a                    10.737667
_cell_length_b                    10.898931
_cell_length_c                    9.561513
_cell_angle_alpha                 91.220603
_cell_angle_beta                  89.480058
_cell_angle_gamma                 90.544292
_cell_volume                      1118.62674106

loop_
_atom_site_label
_atom_site_type_symbol
_atom_site_description
_atom_site_fract_x
_atom_site_fract_y
_atom_site_fract_z
_atom_type_partial_charge
O1    O     O_R   0.500000 0.319640 0.618810 -0.584351
O2    O     O_R   0.500010 0.319680 0.381230 -0.585707
C1    C     C_R   0.498025 0.262983 0.498596 0.793732
O3    O     O_R   0.317690 0.499960 0.618790 -0.594260
O4    O     O_R   0.317700 0.500000 0.381210 -0.593841
C2    C     C_R   0.259993 0.497159 0.500645 0.757839
Cu1   Cu    Cu3+1 0.499990 0.499980 0.640670 0.947442
Cu2   Cu    Cu3+1 0.500010 0.500020 0.359330 0.960983
O5    O     O_R   0.499990 0.680320 0.618770 -0.574093
O6    O     O_R   0.500000 0.680360 0.381190 -0.585657
O7    O     O_R   0.682300 0.500000 0.618790 -0.576631
O8    O     O_R   0.682310 0.500040 0.381210 -0.566827
C3    C     C_R   0.498861 0.737624 0.500953 0.841774
C4    C     C_R   0.740174 0.498415 0.499994 0.804827
C5    C     C_3   0.070228 0.467951 0.650276 -0.365406
H1    H     H_    0.103548 0.538260 0.727864 0.194110
H2    H     H_    0.103937 0.377050 0.684209 0.161986
C6    C     C_3   0.927346 0.467448 0.649773 -0.340859
H3    H     H_    0.892090 0.375550 0.681148 0.168186
H4    H     H_    0.893206 0.535144 0.729611 0.211346
H5    H     H_    0.111656 0.695188 0.534165 0.183115
C7    C     C_3   0.075283 0.623967 0.459711 -0.388831
C8    C     C_3   0.071491 0.397376 0.397670 -0.380133
C9    C     C_3   0.122185 0.496329 0.502118 0.110762
H6    H     H_    0.106500 0.415205 0.289964 0.183906
H7    H     H_    0.104752 0.305007 0.426882 0.163931
C10   C     C_3   0.878401 0.497955 0.501747 0.062248
C11   C     C_3   0.931529 0.624941 0.458082 0.012682
C12   C     C_3   0.927862 0.398175 0.397643 -0.409716
H8    H     H_    0.891385 0.306216 0.427039 0.174619
H9    H     H_    0.895099 0.415947 0.289883 0.208620
H10   H     H_    0.111890 0.647085 0.354033 0.178472
H11   H     H_    0.902126 0.642062 0.350052 0.227202
C13   C     C_R   0.502227 0.066843 0.618287 0.131913
C14   C     C_R   0.492317 0.130857 0.495890 -0.105978
C15   C     C_R   0.476477 0.061966 0.370821 -0.202533
H12   H     H_    0.465511 0.106930 0.271816 0.165480
C16   C     C_R   0.476124 0.932938 0.373176 -0.168813
H13   H     H_    0.463644 0.882740 0.275478 0.156952
C17   C     C_R   0.493251 0.870800 0.500219 -0.090250
C18   C     C_R   0.504143 0.943286 0.621045 0.140065
C19   C     C_3   0.533836 0.944944 0.773320 -0.484195
C20   C     C_3   0.530651 0.085286 0.768680 -0.439687
H14   H     H_    0.457080 0.905975 0.837869 0.193342
H15   H     H_    0.629340 0.911451 0.793085 0.230832
H16   H     H_    0.451634 0.126671 0.828306 0.195302
H17   H     H_    0.623117 0.129670 0.785518 0.210752
C21   C     C_R   0.598516 0.549021 0.073854 0.208541
N1    N     N_R   0.500800 0.500930 0.147930 -0.214471
C22   C     C_R   0.409301 0.440894 0.073812 -0.077858
H18   H     H_    0.334727 0.394604 0.128930 0.138513
C23   C     C_R   0.409246 0.440974 0.925089 -0.073359
H19   H     H_    0.334561 0.394896 0.869183 0.135089
N2    N     N_R   0.500800 0.500890 0.852020 -0.184585
C24   C     C_R   0.598310 0.548186 0.925937 0.209540
C25   C     C_3   0.639636 0.677349 0.918873 -0.536196
C26   C     C_3   0.639607 0.680778 0.076968 0.136243
H20   H     H_    0.732409 0.687325 0.867798 0.244345
H21   H     H_    0.564420 0.732141 0.875591 0.187966
H22   H     H_    0.569795 0.744480 0.123594 0.111886
N3    N     N_R   0.764641 0.699203 0.132679 0.139414
O9    O     O_R   0.789140 0.798216 0.206053 -0.355722
O10   O     O_R   0.855516 0.627787 0.092967 -0.413128
I1    I     I_    0.860593 0.777856 0.581510 -0.390873

loop_
_geom_bond_atom_site_label_1
_geom_bond_atom_site_label_2
_geom_bond_distance
_ccdc_geom_bond_type
C5    C6    1.534225 S    
C22   C23   1.422039 A    
C24   C25   1.474724 S    
C19   H14   1.111693 S    
C5    H2    1.113754 S    
C12   H8    1.113314 S    
C4    C10   1.484542 S    
C10   C12   1.552675 S    
C18   C19   1.493007 S    
C14   C15   1.409173 A    
C25   H21   1.098145 S    
C1    C14   1.440436 S    
C26   N3    1.459409 S    
C8    C9    1.552293 S    
C2    C9    1.479625 S    
C23   N2    1.369585 A    
C15   C16   1.406897 A    
O2    C1    1.292473 A    
C21   C24   1.414162 A    
Cu1   Cu2   2.690042 S    
C12   H9    1.113226 S    
C7    C11   1.543950 S    
H5    C7    1.112475 S    
C25   C26   1.511293 S    
Cu1   O7    1.966842 S    
C20   H16   1.111712 S    
C16   H13   1.081208 S    
C13   C18   1.347814 A    
C7    H10   1.113881 S    
C15   H12   1.083063 S    
O3    Cu1   1.970509 S    
C21   N1    1.367177 A    
O4    C2    1.295116 A    
C11   I1    2.162060 S    
O3    C2    1.292945 A    
C17   C18   1.390793 A    
C16   C17   1.417561 A    
O8    C4    1.300068 A    
C11   H11   1.103039 S    
C22   H18   1.081411 S    
C6    H4    1.112455 S    
C8    H6    1.113439 S    
N3    O9    1.300623 A    
C13   C14   1.380628 A    
O7    C4    1.289659 A    
C7    C9    1.547350 S    
O4    Cu2   1.966841 S    
C19   C20   1.531883 S    
C13   C20   1.481845 S    
C5    H1    1.113986 S    
C3    C17   1.453466 S    
C8    C12   1.542347 S    
C21   C26   1.498021 S    
C6    H3    1.113564 S    
C23   H19   1.081546 S    
Cu2   O6    1.972164 S    
N1    C22   1.369792 A    
C8    H7    1.113411 S    
C10   C11   1.555807 S    
Cu1   O5    1.981067 S    
O5    C3    1.299848 A    
N2    C24   1.359837 A    
C5    C9    1.553952 S    
C26   H22   1.110559 S    
Cu1   N2    2.020737 S    
O1    Cu1   1.972164 S    
C20   H17   1.111831 S    
Cu2   N1    2.021481 S    
O6    C3    1.292441 A    
N3    O10   1.302802 A    
O2    Cu2   1.981065 S    
C6    C10   1.557837 S    
Cu2   O8    1.970507 S    
C25   H20   1.110877 S    
O1    C1    1.293407 A    
C19   H15   1.110924 S    
