data_mof_unit_4032.cif
_audit_creation_date              2013-03-05T15:40:04-0500
_audit_creation_method            fapswitch 2.2
_symmetry_space_group_name_H-M    P1
_symmetry_Int_Tables_number       1
_space_group_crystal_system       triclinic
_cell_length_a                    7.795511
_cell_length_b                    8.63928
_cell_length_c                    10.609226
_cell_angle_alpha                 91.554003
_cell_angle_beta                  84.725459
_cell_angle_gamma                 93.228216
_cell_volume                      710.178417256

loop_
_atom_site_label
_atom_site_type_symbol
_atom_site_description
_atom_site_fract_x
_atom_site_fract_y
_atom_site_fract_z
_atom_type_partial_charge
O1    O     O_R   0.389250 0.738570 0.508180 -0.601708
O2    O     O_R   0.678390 0.711630 0.486820 -0.627733
C1    C     C_R   0.544801 0.794080 0.497201 0.926071
O3    O     O_R   0.355470 0.513470 0.691600 -0.613004
O4    O     O_R   0.644610 0.486520 0.670240 -0.555771
C2    C     C_R   0.496795 0.480006 0.735782 0.954915
Zn1   Zn    Zn3+2 0.306940 0.517990 0.514260 0.977065
Zn2   Zn    Zn3+2 0.693060 0.482010 0.485740 1.011267
O5    O     O_R   0.321610 0.288370 0.513180 -0.645121
O6    O     O_R   0.610750 0.261430 0.491820 -0.576554
O7    O     O_R   0.355390 0.513480 0.329760 -0.627921
O8    O     O_R   0.644530 0.486530 0.308400 -0.626646
C3    C     C_R   0.455302 0.205926 0.502979 0.914829
C4    C     C_R   0.500590 0.502660 0.262212 0.939264
C5    C     C_2   0.594658 0.399849 0.061860 -0.251547
C6    C     C_2   0.506428 0.509499 0.128689 -0.075815
H1    H     H_    0.653724 0.309738 0.110093 0.169988
C7    C     C_2   0.618948 0.396711 0.925018 0.342326
C8    C     C_2   0.483924 0.430113 0.863837 -0.478201
H2    H     H_    0.355958 0.429964 0.913873 0.180836
C9    C     C_2   0.565421 0.954975 0.478499 -0.083039
C10   C     C_2   0.435185 0.045178 0.522318 -0.086925
N1    N     N_2   0.950320 0.457950 0.466680 -0.100235
H3    H     H_    0.013977 0.382285 0.404682 0.175974
N2    N     N_2   0.049680 0.542050 0.533320 -0.038245
N3    N     N_3   0.449367 0.647969 0.076618 -0.467803
H4    H     H_    0.327665 0.626458 0.044250 0.210517
H5    H     H_    0.538657 0.689582 0.004152 0.206223
N4    N     N_R   0.781840 0.354101 0.862500 0.225994
O9    O     O_R   0.923374 0.390595 0.915126 -0.419795
O10   O     O_R   0.785614 0.251928 0.769954 -0.387469
N5    N     N_3   0.715655 0.012422 0.400458 -0.431530
H6    H     H_    0.719969 0.952562 0.313287 0.181090
H7    H     H_    0.825560 0.988556 0.444527 0.205624
N6    N     N_3   0.285704 0.988033 0.601170 -0.437806
H8    H     H_    0.282937 0.047603 0.688434 0.202965
H9    H     H_    0.175397 0.013089 0.558091 0.199697
N7    N     N_3   0.966718 0.643029 0.618918 -0.290397
H10   H     H_    0.016992 0.754531 0.596843 0.177670
H11   H     H_    0.003961 0.618885 0.708104 0.220951

loop_
_geom_bond_atom_site_label_1
_geom_bond_atom_site_label_2
_geom_bond_distance
_ccdc_geom_bond_type
O4    Zn2   1.958875 S    
N7    H11   1.044564 S    
N1    H3    1.029273 S    
C5    H1    1.088677 S    
N4    O9    1.301147 A    
C10   N6    1.442148 S    
N2    N7    1.384414 S    
C5    C7    1.446445 S    
N3    H5    1.045573 S    
C8    H2    1.086028 S    
Zn1   N2    2.018942 S    
Zn2   O8    1.954732 S    
N5    H6    1.046012 S    
O2    C1    1.289269 A    
N4    O10   1.301793 A    
C7    N4    1.439601 S    
C9    C10   1.355299 D    
Zn1   O7    1.958875 S    
C2    C8    1.429472 S    
N3    H4    1.043613 S    
O4    C2    1.289171 A    
O3    Zn1   1.954733 S    
O3    C2    1.286549 A    
N6    H9    1.045823 S    
O8    C4    1.281019 A    
C3    C10   1.407245 S    
N1    N2    1.279504 D    
C6    N3    1.440515 S    
N7    H10   1.043659 S    
C9    N5    1.442901 S    
C4    C6    1.415858 S    
C1    C9    1.407581 S    
C5    C6    1.349220 D    
Zn2   N1    2.018942 S    
Zn2   O6    1.977050 S    
C7    C8    1.335091 D    
O7    C4    1.289442 A    
Zn1   O5    1.993128 S    
O5    C3    1.289912 A    
O1    Zn1   1.977049 S    
O2    Zn2   1.993127 S    
N6    H8    1.046028 S    
O1    C1    1.274959 A    
O6    C3    1.274231 A    
N5    H7    1.045913 S    
