data_mof_unit_4579.cif
_audit_creation_date              2012-12-10T20:48:17-0500
_audit_creation_method            fapswitch 2.2
_symmetry_space_group_name_H-M    P1
_symmetry_Int_Tables_number       1
_space_group_crystal_system       triclinic
_cell_length_a                    11.053961
_cell_length_b                    9.075297
_cell_length_c                    8.182426
_cell_angle_alpha                 88.032063
_cell_angle_beta                  90.544301
_cell_angle_gamma                 89.774736
_cell_volume                      820.315844244

loop_
_atom_site_label
_atom_site_type_symbol
_atom_type_description
_atom_site_fract_x
_atom_site_fract_y
_atom_site_fract_z
_atom_type_partial_charge
C1    C     C_R   0.495926 0.218089 0.501410 0.991435
C2    C     C_R   0.257666 0.506065 0.499032 0.930052
C3    C     C_R   0.743317 0.495851 0.500984 1.066693
C4    C     C_R   0.494790 0.781830 0.498338 1.002245
C5    C     C_1   0.493529 0.064869 0.502075 -0.130987
C6    C     C_3   0.079998 0.329901 0.534994 0.374826
C7    C     C_3   0.072948 0.560367 0.315582 0.315073
C8    C     C_3   0.932156 0.324389 0.520357 0.302522
C9    C     C_3   0.926582 0.576554 0.327610 0.370191
C10   C     C_1   0.492961 0.935102 0.497727 -0.140942
C11   C     C_3   0.070222 0.612464 0.634466 0.086422
C12   C     C_3   0.929052 0.580729 0.657811 0.112629
C13   C     C_3   0.122283 0.502258 0.497048 -0.283801
C14   C     C_3   0.880829 0.495204 0.502148 -0.296471
N1    N     N_1   0.500000 0.500030 0.073640 -0.007474
N2    N     N_1   0.500000 0.500030 0.926360 -0.015679
O1    O     O_R   0.500000 0.285340 0.636850 -0.550554
O2    O     O_R   0.500000 0.285340 0.363150 -0.649701
O3    O     O_R   0.314790 0.499970 0.636880 -0.584469
O4    O     O_R   0.314790 0.499970 0.363120 -0.598164
O5    O     O_R   0.685210 0.499970 0.636880 -0.595594
O6    O     O_R   0.685210 0.499970 0.363120 -0.621172
O7    O     O_R   0.500000 0.714650 0.636900 -0.644677
O8    O     O_R   0.500000 0.714650 0.363100 -0.563934
Zn1   Zn    Zn3+2 0.500000 0.499990 0.682780 1.072332
Zn2   Zn    Zn3+2 0.500000 0.499990 0.317220 1.063362
S1    S     S_3+6 0.144969 0.247653 0.728353 0.109194
O9    O     O_2   0.279769 0.239684 0.721572 -0.309348
O10   O     O_2   0.112386 0.323624 0.880208 -0.264897
O11   O     O_3   0.104285 0.070972 0.752862 -0.468312
H1    H     H_    0.143875 0.035625 0.856143 0.392220
S2    S     S_3+6 0.158962 0.721553 0.217182 0.051926
O12   O     O_2   0.083505 0.815135 0.101138 -0.243840
O13   O     O_2   0.221494 0.822833 0.330697 -0.302970
O14   O     O_3   0.269499 0.654246 0.100660 -0.575885
H2    H     H_    0.313829 0.741802 0.057728 0.369263
S3    S     S_3+6 0.862437 0.199223 0.680515 0.047857
O15   O     O_2   0.887734 0.044241 0.634981 -0.287030
O16   O     O_2   0.902743 0.211669 0.855185 -0.207903
O17   O     O_3   0.713382 0.214496 0.681308 -0.597716
H3    H     H_    0.686123 0.136570 0.760278 0.388216
S4    S     S_3+6 0.871362 0.769197 0.292679 0.043413
O18   O     O_2   0.956038 0.883163 0.355081 -0.236471
O19   O     O_2   0.853394 0.801074 0.112367 -0.271129
O20   O     O_3   0.736016 0.796708 0.376014 -0.593654
H4    H     H_    0.720437 0.903646 0.358031 0.377637
N3    N     N_3   0.136093 0.226517 0.420175 -0.395955
H5    H     H_    0.098099 0.209707 0.305815 0.234677
H6    H     H_    0.229336 0.240483 0.408666 0.192996
N4    N     N_3   0.095097 0.444915 0.197900 -0.479458
H7    H     H_    0.073680 0.488521 0.082693 0.262527
H8    H     H_    0.184674 0.413006 0.185637 0.267771
N5    N     N_3   0.895351 0.252716 0.369423 -0.483781
H9    H     H_    0.800976 0.249996 0.359844 0.209591
H10   H     H_    0.921275 0.142594 0.369514 0.291684
N6    N     N_3   0.868341 0.502271 0.187100 -0.478647
H11   H     H_    0.893492 0.401049 0.141752 0.232773
H12   H     H_    0.792865 0.549558 0.127396 0.255067
N7    N     N_3   0.132390 0.594694 0.795022 -0.334205
H13   H     H_    0.216729 0.645339 0.797394 0.218979
H14   H     H_    0.089032 0.663935 0.874153 0.213723
N8    N     N_3   0.090159 0.766154 0.581915 -0.331863
H15   H     H_    0.181896 0.790109 0.595706 0.212087
H16   H     H_    0.052645 0.835016 0.666667 0.248690
N9    N     N_3   0.913692 0.488125 0.806892 -0.319658
H17   H     H_    0.932033 0.549187 0.908388 0.180805
H18   H     H_    0.823643 0.463947 0.829460 0.251562
N10   N     N_3   0.855888 0.713845 0.686390 -0.415161
H19   H     H_    0.867572 0.794685 0.598761 0.304710
H20   H     H_    0.880909 0.761197 0.796280 0.236350

loop_
_geom_bond_atom_site_label_1
_geom_bond_atom_site_label_2
_ccdc_geom_bond_type
C8    N5    S    
N3    H5    S    
N4    H8    S    
C9    C14   S    
N8    H15   S    
N2    Zn1   S    
S1    O10   D    
C11   C13   S    
C12   N9    S    
C3    O6    A    
C1    O1    A    
C6    S1    S    
O2    Zn2   S    
N8    H16   S    
C11   C12   S    
C11   N8    S    
O1    Zn1   S    
S2    O12   D    
N5    H10   S    
N4    H7    S    
C9    S4    S    
N7    H13   S    
S3    O16   D    
C9    N6    S    
N5    H9    S    
S1    O11   S    
C12   N10   S    
C6    C13   S    
C1    O2    A    
S3    O15   D    
C3    C14   S    
S4    O19   D    
C1    C5    S    
N10   H20   S    
O17   H3    S    
O8    Zn2   S    
S3    O17   S    
O7    Zn1   S    
O6    Zn2   S    
O11   H1    S    
C4    O8    A    
C11   N7    S    
N7    H14   S    
C3    O5    A    
C8    S3    S    
O3    Zn1   S    
C2    O4    A    
N1    N2    T    
C12   C14   S    
S2    O14   S    
C6    N3    S    
O4    Zn2   S    
C7    C13   S    
C2    C13   S    
N6    H11   S    
N3    H6    S    
N9    H17   S    
S4    O18   D    
S1    O9    D    
C7    C9    S    
C4    O7    A    
O5    Zn1   S    
N1    Zn2   S    
C6    C8    S    
C7    S2    S    
C8    C14   S    
C5    C10   T    
C2    O3    A    
O20   H4    S    
C4    C10   S    
O14   H2    S    
C7    N4    S    
N6    H12   S    
N10   H19   S    
N9    H18   S    
S4    O20   S    
S2    O13   D    
