data_mof_unit_4185.cif
_audit_creation_date              2012-12-10T17:09:30-0500
_audit_creation_method            fapswitch 2.2
_symmetry_space_group_name_H-M    P1
_symmetry_Int_Tables_number       1
_space_group_crystal_system       triclinic
_cell_length_a                    10.525507
_cell_length_b                    10.661848
_cell_length_c                    10.056776
_cell_angle_alpha                 91.697113
_cell_angle_beta                  89.755822
_cell_angle_gamma                 90.432814
_cell_volume                      1128.04859613

loop_
_atom_site_label
_atom_site_type_symbol
_atom_type_description
_atom_site_fract_x
_atom_site_fract_y
_atom_site_fract_z
_atom_type_partial_charge
C1    C     C_R   0.505284 0.262402 0.497563 0.814685
C2    C     C_3   0.962365 0.584073 0.412157 0.453949
C3    C     C_3   0.039685 0.466446 0.376972 0.385890
C4    C     C_3   0.123198 0.497722 0.499562 -0.337526
C5    C     C_2   0.454185 0.930107 0.394084 -0.326986
C6    C     C_2   0.449544 0.867529 0.507140 0.388844
C7    C     C_2   0.440071 0.065894 0.402124 0.494694
C8    C     C_2   0.519372 0.128280 0.486793 0.321968
C9    C     C_2   0.580921 0.564113 0.927010 0.600796
C10   C     C_2   0.596279 0.533969 0.073438 0.630268
C11   C     C_R   0.257732 0.497347 0.499940 0.982830
C12   C     C_R   0.488610 0.737422 0.502390 0.798199
C13   C     C_R   0.742333 0.502613 0.499976 1.005954
C14   C     C_3   0.038989 0.416207 0.588556 0.450275
C15   C     C_3   0.956360 0.385597 0.466272 0.250195
C16   C     C_3   0.877134 0.502867 0.499869 -0.321632
C17   C     C_3   0.960800 0.533972 0.621225 0.457649
C18   C     C_3   0.045911 0.617476 0.534421 -0.493574
H1    H     H_    0.088234 0.710121 0.562677 0.191660
H2    H     H_    0.485983 0.887695 0.300257 0.132044
N1    N     N_2   0.501360 0.501330 0.852150 0.018014
N2    N     N_2   0.501400 0.501360 0.147810 0.115130
O1    O     O_R   0.499980 0.319060 0.613040 -0.643077
O2    O     O_R   0.500020 0.319100 0.386900 -0.579051
O3    O     O_R   0.313930 0.499950 0.613050 -0.655136
O4    O     O_R   0.313970 0.499990 0.386910 -0.524609
O5    O     O_R   0.499980 0.680900 0.613100 -0.606210
O6    O     O_R   0.500020 0.680940 0.386960 -0.630849
O7    O     O_R   0.686030 0.500010 0.613090 -0.565648
O8    O     O_R   0.686070 0.500050 0.386950 -0.549845
Zn1   Zn    Zn3+2 0.499970 0.499970 0.650990 1.022029
Zn2   Zn    Zn3+2 0.500030 0.500030 0.349010 1.124211
O9    O     O_3   0.897853 0.270256 0.429677 -0.622466
C19   C     C_3   0.989596 0.174790 0.425148 -0.206982
H3    H     H_    0.017046 0.149093 0.527231 0.217691
H4    H     H_    0.075022 0.201389 0.366668 0.201593
H5    H     H_    0.947250 0.090077 0.375740 0.173506
O10   O     O_3   0.623863 0.065312 0.539141 -0.653981
C20   C     C_3   0.685876 0.132255 0.643455 -0.237500
H6    H     H_    0.620464 0.149439 0.729013 0.176476
H7    H     H_    0.728325 0.221237 0.608926 0.213168
H8    H     H_    0.764933 0.074091 0.679268 0.184648
O11   O     O_3   0.658781 0.651483 0.865946 -0.570789
C21   C     C_3   0.680940 0.757592 0.950124 -0.333943
H9    H     H_    0.755542 0.738519 0.024295 0.228429
H10   H     H_    0.592324 0.791479 0.999945 0.119054
H11   H     H_    0.717509 0.834762 0.888722 0.185521
O12   O     O_3   0.461631 0.391974 0.903540 -0.598232
C22   C     C_3   0.333576 0.373114 0.868206 0.074355
H12   H     H_    0.325949 0.318664 0.773228 0.192717
H13   H     H_    0.279755 0.462432 0.864276 0.149963
H14   H     H_    0.287352 0.316065 0.945481 0.144956
F1    F     F_    0.714103 0.540003 0.127254 -0.696273
F2    F     F_    0.386613 0.530164 0.101344 -0.618367
F3    F     F_    0.083831 0.332127 0.678948 -0.707675
O13   O     O_3   0.907644 0.569456 0.745610 -0.529759
C23   C     C_3   0.005604 0.593768 0.837848 -0.188195
H15   H     H_    0.074296 0.665305 0.802409 0.139611
H16   H     H_    0.055334 0.505917 0.861714 0.174795
H17   H     H_    0.962763 0.631965 0.931296 0.180019
O14   O     O_3   0.910302 0.668131 0.321736 -0.551081
C24   C     C_3   0.007576 0.746115 0.273264 -0.290584
H18   H     H_    0.088870 0.691081 0.231926 0.192138
H19   H     H_    0.040803 0.813562 0.352268 0.158595
H20   H     H_    0.968594 0.801481 0.191371 0.171232
O15   O     O_3   0.094653 0.429658 0.253709 -0.577976
C25   C     C_3   0.998912 0.412071 0.157591 -0.174665
H21   H     H_    0.957237 0.503128 0.131244 0.222755
H22   H     H_    0.923332 0.346288 0.190111 0.205803
H23   H     H_    0.042468 0.370372 0.066094 0.160059
O16   O     O_3   0.389159 0.923251 0.617979 -0.625327
C26   C     C_3   0.457197 0.908275 0.737070 -0.220093
H24   H     H_    0.561495 0.898983 0.721461 0.191593
H25   H     H_    0.418900 0.826682 0.790874 0.182041
H26   H     H_    0.442091 0.992696 0.802171 0.163268
O17   O     O_3   0.343431 0.129609 0.337156 -0.611704
C27   C     C_3   0.284320 0.055346 0.236416 -0.307520
H27   H     H_    0.230178 0.976260 0.279630 0.156248
H28   H     H_    0.354694 0.020759 0.161319 0.160637
H29   H     H_    0.215573 0.114401 0.183739 0.197104

loop_
_geom_bond_atom_site_label_1
_geom_bond_atom_site_label_2
_ccdc_geom_bond_type
O3    Zn1   S    
O4    Zn2   S    
C2    C18   S    
C19   H5    S    
C7    C8    D    
C20   H7    S    
C5    H2    S    
C27   H27   S    
C10   N2    D    
N1    Zn1   S    
N2    Zn2   S    
C12   O6    A    
C13   O7    A    
C18   H1    S    
C6    C12   S    
C5    C6    D    
C23   H16   S    
C11   O3    A    
C15   C16   S    
C1    C8    S    
O13   C23   S    
C19   H3    S    
C10   F1    S    
C24   H19   S    
C16   C17   S    
C22   H13   S    
C2    C16   S    
C9    C10   S    
C21   H11   S    
N1    O12   S    
C4    C18   S    
C14   F3    S    
N2    F2    S    
C14   C17   S    
C8    O10   S    
C26   H26   S    
C21   H10   S    
O9    C19   S    
C20   H8    S    
C27   H28   S    
C6    O16   S    
C9    O11   S    
C12   O5    A    
O5    Zn1   S    
C25   H21   S    
C13   O8    A    
O6    Zn2   S    
O17   C27   S    
C26   H25   S    
C20   H6    S    
C5    C7    S    
C23   H17   S    
C11   O4    A    
C25   H22   S    
O1    Zn1   S    
O11   C21   S    
O2    Zn2   S    
C24   H18   S    
C22   H14   S    
C17   C18   S    
C4    C11   S    
C17   O13   S    
O12   C22   S    
C1    O1    A    
C3    O15   S    
C3    C4    S    
C3    C15   S    
C21   H9    S    
C27   H29   S    
C24   H20   S    
C26   H24   S    
C2    O14   S    
C7    O17   S    
C25   H23   S    
C2    C3    S    
O16   C26   S    
O7    Zn1   S    
O8    Zn2   S    
C9    N1    D    
C23   H15   S    
O10   C20   S    
O15   C25   S    
C19   H4    S    
C4    C14   S    
O14   C24   S    
C1    O2    A    
C22   H12   S    
C13   C16   S    
C14   C15   S    
C15   O9    S    
