data_mof_unit_887.cif
_audit_creation_date              2012-12-10T17:29:18-0500
_audit_creation_method            fapswitch 2.2
_symmetry_space_group_name_H-M    P1
_symmetry_Int_Tables_number       1
_space_group_crystal_system       triclinic
_cell_length_a                    12.01636
_cell_length_b                    12.824028
_cell_length_c                    13.010757
_cell_angle_alpha                 86.868432
_cell_angle_beta                  114.456895
_cell_angle_gamma                 93.826072
_cell_volume                      1820.16413542

loop_
_atom_site_label
_atom_site_type_symbol
_atom_type_description
_atom_site_fract_x
_atom_site_fract_y
_atom_site_fract_z
_atom_type_partial_charge
C1    C     C_R   0.477425 0.299899 0.499754 0.999138
C2    C     C_R   0.557097 0.529523 0.988247 -0.009797
C3    C     C_R   0.535908 0.555539 0.875959 0.044334
C4    C     C_R   0.460641 0.534706 0.022149 0.113190
C5    C     C_R   0.360670 0.597154 0.957332 0.130296
C6    C     C_R   0.350253 0.639638 0.852923 -0.244769
C7    C     C_R   0.435309 0.617101 0.811308 -0.141917
C8    C     C_R   0.458627 0.478304 0.117290 0.096832
C9    C     C_R   0.292144 0.581547 0.107738 -0.215804
C10   C     C_R   0.617840 0.521533 0.833194 -0.230480
C11   C     C_R   0.540010 0.810798 0.506865 -0.160173
C12   C     C_R   0.569452 0.503939 0.710068 0.868086
C13   C     C_R   0.457466 0.190071 0.485192 -0.318069
C14   C     C_R   0.403394 0.055330 0.350350 0.553044
C15   C     C_R   0.398902 0.157348 0.374862 0.505043
C16   C     C_R   0.518502 0.121655 0.575771 0.020961
C17   C     C_R   0.532059 0.018629 0.551203 -0.106671
C18   C     C_R   0.467872 0.982971 0.437520 -0.185094
C19   C     C_R   0.468491 0.875895 0.416243 0.136408
C20   C     C_R   0.614221 0.848601 0.612296 -0.311671
C21   C     C_R   0.609667 0.950713 0.635765 0.671264
C22   C     C_R   0.999716 0.583789 0.381275 -0.177949
C23   C     C_R   0.522742 0.700061 0.500803 0.891834
C24   C     C_R   0.120472 0.576167 0.393046 0.039950
C25   C     C_R   0.165106 0.466114 0.555621 -0.005377
C26   C     C_R   0.042522 0.468717 0.546178 -0.063885
C27   C     C_R   0.959515 0.530230 0.457931 -0.071368
C28   C     C_R   0.837909 0.536239 0.447745 0.682948
C29   C     C_R   0.875999 0.418046 0.603367 -0.117983
C30   C     C_R   0.000277 0.411306 0.620911 0.073475
C31   C     C_R   0.431794 0.503412 0.290379 0.904216
C32   C     C_R   0.274547 0.617625 0.999453 -0.203327
C33   C     C_R   0.387837 0.515584 0.168439 -0.078010
C34   C     C_R   0.739333 0.498061 0.911571 0.032616
C35   C     C_R   0.767401 0.496314 0.027835 0.630627
C36   C     C_R   0.676584 0.508703 0.065162 -0.295876
H1    H     H_    0.234049 0.607709 0.145356 0.171347
H2    H     H_    0.669705 0.796305 0.679956 0.169902
H3    H     H_    0.839991 0.374190 0.656554 0.165615
H4    H     H_    0.937790 0.630022 0.311287 0.202219
H5    H     H_    0.148746 0.614286 0.331100 0.128977
H6    H     H_    0.275416 0.688630 0.802664 0.153638
H7    H     H_    0.231701 0.420186 0.621846 0.126536
H8    H     H_    0.199114 0.667085 0.952228 0.154623
H9    H     H_    0.702665 0.509617 0.155191 0.206489
H10   H     H_    0.424909 0.652835 0.730776 0.173839
N1    N     N_R   0.798200 0.480260 0.519790 -0.157288
N2    N     N_R   0.201820 0.519740 0.480210 -0.099905
O1    O     O_R   0.579910 0.341070 0.505280 -0.628480
O2    O     O_R   0.388440 0.353740 0.492580 -0.588790
O3    O     O_R   0.643280 0.490550 0.663120 -0.625717
O4    O     O_R   0.451810 0.503220 0.650420 -0.629641
O5    O     O_R   0.611560 0.646260 0.507420 -0.575571
O6    O     O_R   0.420090 0.658930 0.494720 -0.632781
O7    O     O_R   0.548190 0.496780 0.349580 -0.565985
O8    O     O_R   0.356720 0.509450 0.336880 -0.601018
Zn1   Zn    Zn3+2 0.627850 0.491540 0.508480 0.976466
Zn2   Zn    Zn3+2 0.372150 0.508460 0.491520 0.960027
F1    F     F_    0.350885 0.032425 0.239429 -0.651079
F2    F     F_    0.683146 0.980558 0.741879 -0.682010
F3    F     F_    0.340889 0.226523 0.289060 -0.641073
C37   C     C_3   0.555802 0.157868 0.695948 -0.288096
C38   C     C_3   0.685876 0.206951 0.746807 -0.758201
H11   H     H_    0.751368 0.159768 0.731704 0.297434
H12   H     H_    0.687620 0.285730 0.708869 0.226535
H13   H     H_    0.716318 0.214885 0.839174 0.245040
H14   H     H_    0.492056 0.216440 0.696937 0.156125
H15   H     H_    0.544506 0.092826 0.751178 0.247560
F4    F     F_    0.759537 0.599011 0.366237 -0.672995
C39   C     C_3   0.088268 0.344224 0.716928 -0.408745
C40   C     C_3   0.035339 0.284584 0.792796 -0.834384
H16   H     H_    0.003541 0.339832 0.836360 0.253782
H17   H     H_    0.959107 0.229474 0.742748 0.259391
H18   H     H_    0.107767 0.238466 0.858327 0.270189
H19   H     H_    0.124346 0.285660 0.680151 0.213618
H20   H     H_    0.166510 0.395397 0.771756 0.212353
C41   C     C_3   0.511864 0.370288 0.153624 -0.369183
C42   C     C_3   0.461604 0.294865 0.055889 -0.776488
H21   H     H_    0.359898 0.291639 0.017891 0.273634
H22   H     H_    0.494619 0.319227 0.989793 0.239482
H23   H     H_    0.493080 0.215220 0.087706 0.270453
H24   H     H_    0.612864 0.372890 0.191251 0.207851
H25   H     H_    0.486050 0.334357 0.220676 0.252839
C43   C     C_3   0.842065 0.479146 0.876927 -0.345628
C44   C     C_3   0.889731 0.580626 0.838649 -0.794416
H26   H     H_    0.815573 0.620109 0.767729 0.267835
H27   H     H_    0.930197 0.634773 0.910105 0.260587
H28   H     H_    0.961908 0.563200 0.810525 0.236898
H29   H     H_    0.920857 0.444872 0.948203 0.251496
H30   H     H_    0.813004 0.419866 0.811697 0.191231
F5    F     F_    0.882794 0.480851 0.106209 -0.681264
C45   C     C_3   0.389616 0.827746 0.301934 -0.289877
C46   C     C_3   0.253962 0.821158 0.279795 -0.771299
H31   H     H_    0.241478 0.779530 0.351468 0.239437
H32   H     H_    0.216610 0.899489 0.270039 0.297292
H33   H     H_    0.200264 0.778196 0.201305 0.229799
H34   H     H_    0.405616 0.869645 0.232239 0.260294
H35   H     H_    0.415708 0.747402 0.297152 0.163043

loop_
_geom_bond_atom_site_label_1
_geom_bond_atom_site_label_2
_ccdc_geom_bond_type
C38   H12   S    
C28   N1    A    
C46   H31   S    
C14   C18   A    
C28   F4    S    
C4    C8    A    
C25   H7    S    
C45   H35   S    
C41   C42   S    
C14   F1    S    
C11   C19   A    
C26   C27   A    
C37   C38   S    
C34   C43   S    
C37   H14   S    
C29   N1    A    
C18   C19   A    
C3    C7    A    
C5    C6    A    
C42   H22   S    
C41   H25   S    
O1    Zn1   S    
C34   C35   A    
C19   C45   S    
C9    C32   A    
C30   C39   S    
C35   C36   A    
C16   C17   A    
C31   C33   S    
C39   C40   S    
O3    Zn1   S    
C31   O8    A    
C1    O2    A    
C5    C32   A    
C38   H13   S    
C46   H32   S    
C9    C33   A    
C24   H5    S    
C43   H30   S    
C12   O4    A    
C45   H34   S    
C23   O5    A    
C44   H27   S    
C15   F3    S    
O4    Zn2   S    
C11   C20   A    
O2    Zn2   S    
C7    H10   S    
C43   C44   S    
C21   F2    S    
C40   H17   S    
O5    Zn1   S    
C42   H21   S    
C25   C26   A    
C44   H26   S    
C17   C21   A    
C24   N2    A    
C2    C4    A    
C29   C30   A    
N1    Zn1   S    
C20   H2    S    
C22   H4    S    
C29   H3    S    
C9    H1    S    
C17   C18   A    
C32   H8    S    
C36   H9    S    
C10   C34   A    
C25   N2    A    
C10   C12   S    
C26   C30   A    
C46   H33   S    
C22   C27   A    
C13   C15   A    
C39   H20   S    
C8    C41   S    
C22   C24   A    
C1    C13   S    
C43   H29   S    
C39   H19   S    
C12   O3    A    
C23   O6    A    
O6    Zn2   S    
C44   H28   S    
C2    C36   A    
C4    C5    A    
C40   H18   S    
N2    Zn2   S    
C6    C7    A    
C37   H15   S    
O7    Zn1   S    
C2    C3    A    
C40   H16   S    
C3    C10   A    
C42   H23   S    
C41   H24   S    
C11   C23   S    
C45   C46   S    
O8    Zn2   S    
C8    C33   A    
C38   H11   S    
C20   C21   A    
C6    H6    S    
C13   C16   A    
C27   C28   A    
C14   C15   A    
C31   O7    A    
C1    O1    A    
C16   C37   S    
C35   F5    S    
