data_mof_unit_1375.cif
_audit_creation_date              2012-12-10T20:51:26-0500
_audit_creation_method            fapswitch 2.2
_symmetry_space_group_name_H-M    P1
_symmetry_Int_Tables_number       1
_space_group_crystal_system       triclinic
_cell_length_a                    17.612878
_cell_length_b                    8.916327
_cell_length_c                    8.103092
_cell_angle_alpha                 90.082799
_cell_angle_beta                  90.129874
_cell_angle_gamma                 89.621689
_cell_volume                      1272.49492034

loop_
_atom_site_label
_atom_site_type_symbol
_atom_type_description
_atom_site_fract_x
_atom_site_fract_y
_atom_site_fract_z
_atom_type_partial_charge
C1    C     C_R   0.500226 0.218000 0.499956 1.013702
C2    C     C_R   0.849609 0.412253 0.397424 -0.077391
C3    C     C_R   0.765246 0.631253 0.574342 -0.098997
C4    C     C_R   0.234767 0.627883 0.411429 -0.110068
C5    C     C_R   0.228495 0.400932 0.583838 -0.109358
C6    C     C_R   0.770350 0.399126 0.408829 -0.111809
C7    C     C_R   0.728900 0.507500 0.499574 -0.174455
C8    C     C_R   0.270914 0.509926 0.498391 -0.178479
C9    C     C_R   0.885330 0.535579 0.472879 -0.020786
C10   C     C_R   0.113346 0.527807 0.494000 -0.034575
C11   C     C_1   0.965732 0.537412 0.479955 0.133115
C12   C     C_R   0.501519 0.781937 0.500151 0.971806
C13   C     C_1   0.032994 0.534476 0.487099 0.123070
C14   C     C_2   0.884339 0.776969 0.634436 0.980977
C15   C     C_2   0.115748 0.764248 0.324606 0.992225
C16   C     C_2   0.101970 0.291877 0.662076 0.954665
C17   C     C_2   0.895972 0.294110 0.313384 0.959587
C18   C     C_2   0.720311 0.751151 0.657032 0.940647
C19   C     C_2   0.279965 0.741780 0.322101 0.985444
C20   C     C_2   0.267599 0.277664 0.674746 0.993364
C21   C     C_2   0.730534 0.273647 0.324169 1.006733
C22   C     C_1   0.501224 0.065189 0.500074 -0.158274
C23   C     C_1   0.501811 0.934746 0.500376 -0.152618
C24   C     C_R   0.353397 0.501515 0.499698 0.944464
C25   C     C_R   0.646537 0.501106 0.500208 0.902725
C26   C     C_R   0.844172 0.646762 0.558601 -0.063647
C27   C     C_R   0.155252 0.637608 0.410218 -0.072988
C28   C     C_R   0.148735 0.409391 0.580639 -0.061672
H1    H     H_    0.963995 0.937197 0.610039 0.373126
H2    H     H_    0.033388 0.830266 0.166616 0.376885
H3    H     H_    0.014001 0.243954 0.811711 0.359988
H4    H     H_    0.980486 0.245343 0.153963 0.365055
H5    H     H_    0.686488 0.967438 0.657295 0.369629
H6    H     H_    0.356144 0.908496 0.335534 0.356220
H7    H     H_    0.344049 0.108418 0.668647 0.360182
H8    H     H_    0.654291 0.106774 0.339218 0.355447
N1    N     N_1   0.500000 0.500000 0.073640 -0.004714
N2    N     N_1   0.500000 0.500000 0.926360 0.001512
O1    O     O_R   0.500000 0.285350 0.636850 -0.614228
O2    O     O_R   0.940757 0.851287 0.545697 -0.749347
O3    O     O_2   0.135613 0.893475 0.349845 -0.548539
O4    O     O_R   0.055839 0.735308 0.215814 -0.736410
O5    O     O_2   0.115895 0.159057 0.638082 -0.556136
O6    O     O_R   0.041764 0.333580 0.764980 -0.772649
O7    O     O_2   0.885070 0.161548 0.343209 -0.557719
O8    O     O_R   0.952549 0.335173 0.201687 -0.747964
O9    O     O_2   0.687032 0.724894 0.785925 -0.563151
O10   O     O_R   0.718300 0.895145 0.589372 -0.764855
O11   O     O_2   0.271511 0.758252 0.173363 -0.575023
O12   O     O_R   0.500000 0.714650 0.363150 -0.618122
O13   O     O_R   0.330705 0.832018 0.409116 -0.792668
O14   O     O_2   0.252002 0.253583 0.819266 -0.567788
O15   O     O_R   0.321857 0.189021 0.594381 -0.795192
O16   O     O_2   0.744286 0.245205 0.179526 -0.568252
O17   O     O_R   0.677159 0.188894 0.409886 -0.803916
O18   O     O_R   0.500000 0.714650 0.636850 -0.602739
O19   O     O_R   0.500000 0.285350 0.363150 -0.613195
O20   O     O_R   0.389120 0.500000 0.636930 -0.608899
O21   O     O_R   0.610880 0.500000 0.363070 -0.617603
O22   O     O_R   0.610880 0.500000 0.636930 -0.577395
O23   O     O_R   0.389120 0.500000 0.363070 -0.608683
O24   O     O_2   0.868363 0.818450 0.774126 -0.565631
Zn1   Zn    Zn3+2 0.500000 0.500000 0.682780 1.076866
Zn2   Zn    Zn3+2 0.500000 0.500000 0.317220 1.058499

loop_
_geom_bond_atom_site_label_1
_geom_bond_atom_site_label_2
_ccdc_geom_bond_type
C10   C27   A    
C16   C28   S    
O23   Zn2   S    
C12   O12   A    
C6    C7    A    
C25   O22   A    
C1    O19   A    
H7    O15   S    
C5    C28   A    
C9    C11   S    
C19   O11   D    
C15   C27   S    
C7    C25   S    
C4    C8    A    
C18   O9    D    
C4    C27   A    
H6    O13   S    
O18   Zn1   S    
C21   O17   S    
C1    C22   S    
C20   O14   D    
H8    O17   S    
C2    C6    A    
C6    C21   S    
C14   C26   S    
C2    C17   S    
C11   C13   T    
C16   O5    D    
O21   Zn2   S    
C12   O18   A    
O19   Zn2   S    
C24   O23   A    
H1    O2    S    
C8    C24   S    
N1    N2    T    
C17   O7    D    
C9    C26   A    
C3    C7    A    
O1    Zn1   S    
O22   Zn1   S    
C21   O16   D    
C5    C8    A    
H3    O6    S    
C1    O1    A    
C14   O2    S    
C14   O24   D    
C19   O13   S    
N1    Zn2   S    
O12   Zn2   S    
C17   O8    S    
C15   O3    D    
C3    C18   S    
C24   O20   A    
N2    Zn1   S    
C10   C28   A    
O20   Zn1   S    
C5    C20   S    
H5    O10   S    
C16   O6    S    
C22   C23   T    
H2    O4    S    
C12   C23   S    
C25   O21   A    
C2    C9    A    
C4    C19   S    
H4    O8    S    
C3    C26   A    
C15   O4    S    
C20   O15   S    
C10   C13   S    
C18   O10   S    
