data_mof_unit_3941.cif
_audit_creation_date              2012-12-11T14:19:13-0500
_audit_creation_method            fapswitch 2.2
_symmetry_space_group_name_H-M    P1
_symmetry_Int_Tables_number       1
_space_group_crystal_system       triclinic
_cell_length_a                    19.400987
_cell_length_b                    7.241873
_cell_length_c                    17.750204
_cell_angle_alpha                 89.820576
_cell_angle_beta                  107.752226
_cell_angle_gamma                 90.19607
_cell_volume                      2375.12549179

loop_
_atom_site_label
_atom_site_type_symbol
_atom_type_description
_atom_site_fract_x
_atom_site_fract_y
_atom_site_fract_z
_atom_type_partial_charge
O1    O     O_R   0.414820 0.494320 0.416790 -0.540597
O2    O     O_R   0.585180 0.994320 0.583210 -0.540414
O3    O     O_R   0.560270 0.819500 0.430140 -0.543725
O4    O     O_R   0.439730 0.319500 0.569860 -0.542721
C1    C     C_R   0.581312 0.655813 0.414881 0.711264
C2    C     C_R   0.418653 0.155079 0.584904 0.711842
O5    O     O_R   0.413840 0.823740 0.407440 -0.538155
O6    O     O_R   0.586160 0.323740 0.592560 -0.538272
O7    O     O_R   0.437710 0.998590 0.560350 -0.539104
O8    O     O_R   0.562290 0.498590 0.439650 -0.539403
C3    C     C_R   0.387534 0.654904 0.385293 0.733529
C4    C     C_R   0.612446 0.154958 0.614716 0.732657
O9    O     O_3   0.508000 0.662290 0.550200 -0.379783
O10   O     O_3   0.492000 0.162290 0.449800 -0.380650
V1    V     V_3+5 0.498520 0.935380 0.490690 1.396429
V2    V     V_3+5 0.501480 0.435380 0.509310 1.396975
C5    C     C_2   0.785652 0.271901 0.788109 -0.133261
C6    C     C_2   0.214240 0.772077 0.212151 -0.131959
C7    C     C_2   0.820555 0.113490 0.816918 -0.309362
C8    C     C_2   0.179396 0.613573 0.183133 -0.303032
H1    H     H_    0.807784 0.402188 0.815140 0.142079
H2    H     H_    0.192072 0.902497 0.185292 0.141566
H3    H     H_    0.800222 0.981805 0.790543 0.130515
H4    H     H_    0.199754 0.481753 0.209369 0.129596
C9    C     C_2   0.717765 0.284718 0.720060 -0.136717
C10   C     C_2   0.282134 0.784726 0.280200 -0.136827
C11   C     C_2   0.679390 0.138541 0.682505 -0.303581
C12   C     C_2   0.320560 0.638493 0.317532 -0.304053
H5    H     H_    0.698732 0.423027 0.700867 0.138466
H6    H     H_    0.301144 0.923002 0.299576 0.138508
H7    H     H_    0.696992 0.999398 0.701057 0.131845
H8    H     H_    0.302984 0.499381 0.298832 0.131553
C13   C     C_R   0.317259 0.289614 0.625366 -0.217412
C14   C     C_R   0.677637 0.800571 0.367088 -0.219370
C15   C     C_R   0.367761 0.147140 0.632264 -0.078523
C16   C     C_R   0.631610 0.649694 0.366541 -0.078972
C17   C     C_R   0.368393 0.997860 0.683367 -0.220602
C18   C     C_R   0.634668 0.493916 0.320478 -0.222171
C19   C     C_R   0.320229 0.993173 0.728686 0.093426
C20   C     C_R   0.682632 0.489240 0.274967 0.091976
C21   C     C_R   0.269311 0.136662 0.721036 0.062545
C22   C     C_R   0.729759 0.639835 0.277266 0.065900
C23   C     C_R   0.267458 0.283598 0.668265 0.095833
C24   C     C_R   0.727184 0.795409 0.323780 0.093508
C25   C     C_R   0.322109 0.847800 0.781609 -0.182237
C26   C     C_R   0.684373 0.336575 0.227209 -0.190549
C27   C     C_R   0.275028 0.846310 0.827583 -0.175360
C28   C     C_R   0.731981 0.333432 0.181867 -0.175554
C29   C     C_R   0.224281 0.988370 0.820470 0.088836
C30   C     C_R   0.779853 0.481099 0.184751 0.086588
C31   C     C_R   0.220198 0.132991 0.766033 0.019357
C32   C     C_R   0.779713 0.634317 0.233360 0.018712
C33   C     C_R   0.166938 0.272485 0.755796 0.073409
C34   C     C_R   0.829848 0.780446 0.239118 0.083535
C35   C     C_R   0.165067 0.414559 0.700252 -0.185859
C36   C     C_R   0.825011 0.936106 0.285108 -0.191321
C37   C     C_R   0.215332 0.421531 0.658480 -0.191441
C38   C     C_R   0.774361 0.943368 0.326481 -0.197599
C39   C     C_R   0.178082 0.987603 0.867444 -0.263048
C40   C     C_R   0.826708 0.478741 0.138520 -0.250268
C41   C     C_R   0.124846 0.123743 0.859075 -0.106566
C42   C     C_R   0.877354 0.621189 0.143214 -0.114273
C43   C     C_R   0.116946 0.264809 0.800524 0.085796
C44   C     C_R   0.883518 0.766272 0.199402 0.092228
H9    H     H_    0.315668 0.403614 0.585103 0.124125
H10   H     H_    0.676094 0.920842 0.402777 0.125986
H11   H     H_    0.407249 0.887433 0.688965 0.127509
H12   H     H_    0.599042 0.377495 0.319188 0.128999
H13   H     H_    0.360466 0.735979 0.788002 0.129869
H14   H     H_    0.648635 0.219821 0.224589 0.132786
H15   H     H_    0.278103 0.733224 0.868603 0.128790
H16   H     H_    0.731789 0.214378 0.144961 0.130228
H17   H     H_    0.183769 0.879566 0.911364 0.134840
H18   H     H_    0.823407 0.364767 0.098061 0.136532
H19   H     H_    0.125430 0.523484 0.688152 0.138886
H20   H     H_    0.859606 0.055237 0.289203 0.144401
H21   H     H_    0.212774 0.534563 0.617544 0.129396
H22   H     H_    0.772505 0.065025 0.361221 0.134368
O11   O     O_R   0.937810 0.773680 0.060480 -0.541121
O12   O     O_R   0.062190 0.273680 0.939520 -0.532937
O13   O     O_R   0.086190 0.439740 0.092580 -0.540647
O14   O     O_R   0.913810 0.939740 0.907420 -0.540690
C45   C     C_R   0.112410 0.608369 0.114851 0.726566
C46   C     C_R   0.887583 0.108310 0.885164 0.727878
O15   O     O_R   0.939760 0.444210 0.069890 -0.539079
O16   O     O_R   0.060240 0.944210 0.930110 -0.545952
O17   O     O_R   0.914790 0.269640 0.916760 -0.535472
O18   O     O_R   0.085210 0.769640 0.083240 -0.538567
C47   C     C_R   0.922262 0.612911 0.088380 0.696418
C48   C     C_R   0.078797 0.113517 0.912726 0.698392
O19   O     O_3   0.992050 0.601530 0.949880 -0.379744
O20   O     O_3   0.007950 0.101530 0.050120 -0.379767
V3    V     V_3+5 0.001480 0.328340 0.009300 1.387021
V4    V     V_3+5 0.998520 0.828340 0.990700 1.367100
C49   C     C_3   0.052951 0.397046 0.781778 -0.372653
C50   C     C_3   0.074608 0.585389 0.820592 -0.641169
H23   H     H_    0.099750 0.570630 0.885384 0.236244
H24   H     H_    0.113964 0.656162 0.796501 0.198656
H25   H     H_    0.025891 0.673971 0.809084 0.212196
H26   H     H_    0.029132 0.413992 0.716831 0.160181
H27   H     H_    0.007555 0.339806 0.800324 0.179898
C51   C     C_3   0.950029 0.892651 0.223348 -0.347203
C52   C     C_3   0.996849 0.855692 0.308498 -0.776674
H28   H     H_    0.967555 0.885657 0.351769 0.234309
H29   H     H_    0.014417 0.709043 0.315123 0.228735
H30   H     H_    0.045817 0.944884 0.322790 0.218251
H31   H     H_    0.986889 0.871913 0.187619 0.204416
H32   H     H_    0.933587 0.039847 0.215308 0.172967

loop_
_geom_bond_atom_site_label_1
_geom_bond_atom_site_label_2
_ccdc_geom_bond_type
C1    C16   S    
O14   V4    S    
O17   V3    S    
C7    H3    S    
C49   C50   S    
O1    C3    A    
C46   O17   A    
O2    C4    A    
C50   H25   S    
C14   H10   S    
C2    O7    A    
C13   H9    S    
C27   C29   A    
C20   C26   A    
C36   H20   S    
C15   C17   A    
C42   C47   S    
C43   C49   S    
C2    C15   S    
C40   C42   A    
C25   C27   A    
C41   C43   A    
C42   C44   A    
O16   V4    S    
C13   C15   A    
C6    C10   S    
O15   V3    S    
C8    H4    S    
C24   C38   A    
C29   C31   A    
C50   H24   S    
C30   C32   A    
C51   H32   S    
C39   H17   S    
C14   C16   A    
C19   C25   A    
C35   H19   S    
C28   C30   A    
C45   O18   A    
O6    V2    S    
C21   C23   A    
C38   H22   S    
C22   C24   A    
C28   H16   S    
O13   C45   A    
C32   C34   A    
O5    C3    A    
O18   V4    S    
C33   C35   A    
C9    H5    S    
C34   C36   A    
C39   C41   A    
C26   H14   S    
C4    C11   S    
C25   H13   S    
C13   C23   A    
C37   H21   S    
C12   H8    S    
C14   C24   A    
O11   V4    S    
O4    C2    A    
O16   C48   A    
O15   C47   A    
C49   H26   S    
O5    V1    S    
C11   H7    S    
C5    H1    S    
C31   C33   A    
O4    V2    S    
C44   C51   S    
O13   V3    S    
O6    C4    A    
C50   H23   S    
C51   H31   S    
C52   H29   S    
O1    V2    S    
O2    V1    S    
C27   H15   S    
C18   H12   S    
C10   H6    S    
O14   C46   A    
C35   C37   A    
O9    V2    S    
C7    C46   S    
O3    V1    S    
C41   C48   S    
C6    H2    S    
C20   C22   A    
O3    C1    A    
C9    C11   D    
C10   C12   D    
C29   C39   A    
C30   C40   A    
C16   C18   A    
O7    V1    S    
C5    C9    S    
C1    O8    A    
C17   C19   A    
O8    V2    S    
O19   V4    S    
C18   C20   A    
C33   C43   A    
C34   C44   A    
C3    C12   S    
C17   H11   S    
C40   H18   S    
O20   V3    S    
C5    C7    D    
C36   C38   A    
C52   H30   S    
C6    C8    D    
O12   C48   A    
C51   C52   S    
O11   C47   A    
C23   C37   A    
C26   C28   A    
C19   C21   A    
C8    C45   S    
C52   H28   S    
O10   V1    S    
O12   V3    S    
C21   C31   A    
C49   H27   S    
C22   C32   A    
