data_mof_unit_2615.cif
_audit_creation_date              2013-03-05T16:26:27-0500
_audit_creation_method            fapswitch 2.2
_symmetry_space_group_name_H-M    P1
_symmetry_Int_Tables_number       1
_space_group_crystal_system       triclinic
_cell_length_a                    19.430025
_cell_length_b                    18.257442
_cell_length_c                    10.866007
_cell_angle_alpha                 89.774608
_cell_angle_beta                  93.712827
_cell_angle_gamma                 90.526594
_cell_volume                      3846.3607762

loop_
_atom_site_label
_atom_site_type_symbol
_atom_site_description
_atom_site_fract_x
_atom_site_fract_y
_atom_site_fract_z
_atom_type_partial_charge
O1    O     O_R   0.400190 0.561980 0.499980 -0.537411
O2    O     O_R   0.599810 0.561980 0.500020 -0.532974
O3    O     O_R   0.400190 0.438070 0.500040 -0.588755
O4    O     O_R   0.599810 0.438070 0.499960 -0.600605
C1    C     C_R   0.367798 0.499917 0.498244 0.794717
C2    C     C_R   0.632179 0.500402 0.496858 0.804888
O5    O     O_R   0.500000 0.561970 0.319650 -0.568325
O6    O     O_R   0.500000 0.561970 0.680350 -0.557179
O7    O     O_R   0.500010 0.438060 0.319710 -0.594455
O8    O     O_R   0.499990 0.438060 0.680290 -0.592282
C3    C     C_R   0.504506 0.500764 0.262565 0.792592
C4    C     C_R   0.494481 0.500207 0.736942 0.808840
Cu1   Cu    Cu3+1 0.500000 0.573360 0.500000 1.032591
Cu2   Cu    Cu3+1 0.500000 0.426640 0.500000 0.950774
H1    H     H_    0.510132 0.385123 0.112325 0.177399
H2    H     H_    0.500635 0.384227 0.890235 0.176712
C5    C     C_R   0.522672 0.639933 0.113788 -0.080134
C6    C     C_R   0.458081 0.634015 0.878560 -0.091144
H3    H     H_    0.551721 0.645653 0.201266 0.143885
H4    H     H_    0.429456 0.633928 0.789915 0.143594
C7    C     C_R   0.504188 0.704562 0.051859 -0.079295
C8    C     C_R   0.468512 0.701362 0.937021 -0.082699
H5    H     H_    0.515908 0.757053 0.094649 0.132973
H6    H     H_    0.450880 0.751218 0.891381 0.134791
C9    C     C_R   0.483462 0.568688 0.935098 0.105258
C10   C     C_R   0.505241 0.570684 0.061176 0.105599
C11   C     C_R   0.508306 0.503414 0.128182 -0.121576
C12   C     C_R   0.488820 0.501683 0.870702 -0.118026
C13   C     C_R   0.505683 0.436994 0.064128 -0.187316
C14   C     C_R   0.498654 0.436322 0.936804 -0.180066
C15   C     C_R   0.744895 0.447061 0.562473 -0.216900
C16   C     C_R   0.264118 0.537153 0.599068 -0.188692
H7    H     H_    0.718391 0.403209 0.607926 0.158120
H8    H     H_    0.297087 0.565669 0.667859 0.142069
C17   C     C_R   0.816606 0.449028 0.572716 -0.069021
C18   C     C_R   0.192986 0.537742 0.608412 -0.062052
H9    H     H_    0.843898 0.405196 0.621626 0.173251
H10   H     H_    0.172059 0.568573 0.682034 0.170285
C19   C     C_R   0.852646 0.506957 0.520540 0.114500
C20   C     C_R   0.149398 0.499285 0.522889 0.111177
C21   C     C_R   0.815848 0.560560 0.451514 -0.127268
C22   C     C_R   0.177909 0.463065 0.424798 -0.129615
H11   H     H_    0.843441 0.604408 0.407865 0.149106
H12   H     H_    0.144452 0.434659 0.356567 0.158437
C23   C     C_R   0.743884 0.556990 0.434521 0.193486
C24   C     C_R   0.248875 0.465595 0.410540 0.156002
C25   C     C_R   0.707754 0.501453 0.496018 -0.019917
C26   C     C_R   0.292674 0.500299 0.501834 0.007356
C27   C     C_R   0.962512 0.520221 0.420273 -0.195866
C28   C     C_R   0.033670 0.517615 0.420708 -0.187679
H13   H     H_    0.933426 0.530287 0.333499 0.176768
H14   H     H_    0.057700 0.528427 0.335168 0.181148
C29   C     C_R   0.073625 0.501215 0.529061 -0.065363
C30   C     C_R   0.928941 0.508458 0.528898 -0.062087
C31   C     C_R   0.040922 0.488996 0.640210 0.261243
C32   C     C_R   0.968339 0.494325 0.640709 0.260174
C33   C     C_R   0.450183 0.721648 0.430915 0.438291
C34   C     C_R   0.549768 0.721453 0.570612 0.438453
C35   C     C_R   0.450926 0.799513 0.426963 -0.055225
C36   C     C_R   0.550946 0.799368 0.572855 -0.055124
C37   C     C_R   0.501469 0.838810 0.499342 -0.022318
N1    N     N_R   0.500000 0.683620 0.500000 -0.325733
C38   C     C_R   0.472864 0.959919 0.595136 -0.177929
C39   C     C_R   0.530945 0.961156 0.405000 -0.179764
H15   H     H_    0.450006 0.930365 0.669103 0.148028
H16   H     H_    0.553652 0.932582 0.330679 0.146894
C40   C     C_R   0.473127 0.036940 0.595734 -0.066503
C41   C     C_R   0.530827 0.038185 0.405142 -0.066781
H17   H     H_    0.450302 0.065387 0.670061 0.164246
H18   H     H_    0.553540 0.067624 0.330908 0.162692
C42   C     C_R   0.501947 0.077038 0.500564 0.213525
C43   C     C_R   0.501819 0.921198 0.499836 0.153424
C44   C     C_R   0.464070 0.198248 0.407393 0.222100
C45   C     C_R   0.538376 0.199374 0.592811 0.218984
C46   C     C_R   0.461814 0.276204 0.410382 0.203881
C47   C     C_R   0.539524 0.277472 0.589331 0.208111
N2    N     N_R   0.500000 0.316380 0.500000 -0.193581
C48   C     C_R   0.501413 0.159451 0.500348 -0.199600
N3    N     N_R   0.394148 0.682937 0.368068 0.147934
O9    O     O_R   0.333500 0.685120 0.412203 -0.360051
O10   O     O_R   0.398760 0.663102 0.254208 -0.372142
N4    N     N_R   0.601117 0.682215 0.643757 0.153064
O11   O     O_R   0.663835 0.681079 0.608657 -0.367219
O12   O     O_R   0.591318 0.669002 0.758945 -0.363596
C49   C     C_3   0.397685 0.841319 0.347293 -0.696611
H19   H     H_    0.361180 0.805568 0.292312 0.271462
H20   H     H_    0.367203 0.876420 0.406371 0.245254
H21   H     H_    0.423924 0.876475 0.280813 0.223604
C50   C     C_3   0.604605 0.841161 0.652759 -0.695118
H22   H     H_    0.641048 0.805552 0.707137 0.275079
H23   H     H_    0.635302 0.877011 0.593838 0.239729
H24   H     H_    0.578720 0.875580 0.719573 0.226421
N5    N     N_R   0.425566 0.158282 0.311689 0.124068
O13   O     O_R   0.378278 0.111224 0.339502 -0.335211
O14   O     O_R   0.440243 0.166049 0.197218 -0.342904
N6    N     N_R   0.577917 0.160497 0.688110 0.124042
O15   O     O_R   0.626151 0.115789 0.659746 -0.337195
O16   O     O_R   0.562562 0.165893 0.802465 -0.343498
C51   C     C_3   0.414205 0.311283 0.312994 -0.665527
H25   H     H_    0.436248 0.307182 0.221749 0.229061
H26   H     H_    0.363263 0.283012 0.308663 0.221199
H27   H     H_    0.403207 0.368163 0.330073 0.251806
C52   C     C_3   0.588345 0.313670 0.685321 -0.662496
H28   H     H_    0.568972 0.305422 0.778104 0.227679
H29   H     H_    0.640049 0.288317 0.683972 0.215162
H30   H     H_    0.597882 0.371951 0.673899 0.246839
C53   C     C_3   0.708926 0.610148 0.344512 -0.794658
H31   H     H_    0.739100 0.615457 0.261461 0.225043
H32   H     H_    0.656720 0.591269 0.310978 0.210550
H33   H     H_    0.705869 0.664913 0.387454 0.271077
C54   C     C_3   0.274379 0.435839 0.293065 -0.812180
H34   H     H_    0.240168 0.454180 0.213188 0.256172
H35   H     H_    0.326755 0.456436 0.276135 0.220658
H36   H     H_    0.273464 0.375136 0.296148 0.238655
N7    N     N_R   0.080826 0.470493 0.751723 0.136142
O17   O     O_R   0.074596 0.508052 0.851879 -0.299057
O18   O     O_R   0.123920 0.416306 0.753248 -0.321961
N8    N     N_R   0.935040 0.485361 0.754154 0.135991
O19   O     O_R   0.947353 0.428067 0.823468 -0.289684
O20   O     O_R   0.891056 0.533689 0.787153 -0.314689

loop_
_geom_bond_atom_site_label_1
_geom_bond_atom_site_label_2
_geom_bond_distance
_ccdc_geom_bond_type
C34   N1    1.377207 A    
C31   C32   1.414901 A    
C38   H15   1.082939 S    
N5    O13   1.301202 A    
C11   C13   1.399464 A    
C16   C26   1.401871 A    
C33   N3    1.429906 S    
C54   H34   1.111048 S    
C44   N5    1.438306 S    
C33   N1    1.377180 A    
C19   C21   1.403267 A    
C49   H19   1.107128 S    
C9    C12   1.419693 A    
O5    C3    1.286644 A    
C10   C11   1.425044 A    
O6    Cu1   1.969872 S    
C45   C47   1.426217 A    
C4    C12   1.465049 S    
O1    C1    1.290709 A    
C5    C10   1.418702 A    
C39   C41   1.406366 A    
C17   H9    1.082609 S    
C34   N4    1.430474 S    
C33   C35   1.422060 A    
C19   C30   1.479323 S    
H2    C14   1.081286 S    
N7    O17   1.301428 A    
C22   C24   1.397814 A    
C23   C25   1.417678 A    
O2    Cu1   1.952293 S    
N8    O19   1.301435 A    
Cu1   N1    2.013066 S    
N7    O18   1.301318 A    
N6    O16   1.300859 A    
C28   H14   1.083513 S    
C53   H31   1.110993 S    
C15   H7    1.082761 S    
Cu1   Cu2   2.678730 S    
C50   H23   1.110412 S    
C40   C42   1.407286 A    
C47   C52   1.513361 S    
C49   H20   1.110403 S    
N5    O14   1.300916 A    
C15   C25   1.403003 A    
C24   C54   1.504138 S    
C21   H11   1.084118 S    
C54   H36   1.108663 S    
O2    C2    1.294912 A    
C6    C9    1.417372 A    
C22   H12   1.084274 S    
H1    C13   1.081831 S    
C24   C26   1.412597 A    
C29   C31   1.416637 A    
C1    C26   1.462787 S    
C38   C40   1.406204 A    
C35   C37   1.410371 A    
C28   C29   1.400593 A    
C2    C25   1.468980 S    
C45   N6    1.437911 S    
C18   C20   1.402174 A    
C47   N2    1.394506 A    
C52   H29   1.110967 S    
O8    Cu2   1.970924 S    
Cu2   N2    2.013066 S    
C27   H13   1.083386 S    
C9    C10   1.407921 A    
C36   C50   1.515397 S    
C44   C48   1.399034 A    
N4    O11   1.300633 A    
C5    C7    1.394409 A    
C36   C37   1.410516 A    
C40   H17   1.082881 S    
C16   H8    1.083999 S    
C17   C19   1.401229 A    
O7    Cu2   1.969293 S    
C35   C49   1.515100 S    
C13   C14   1.381494 A    
O7    C3    1.305137 A    
C51   H25   1.108260 S    
C3    C11   1.467422 S    
O6    C4    1.289212 A    
N6    O15   1.301170 A    
C46   C51   1.504817 S    
C54   H35   1.107955 S    
C50   H24   1.109786 S    
C46   N2    1.392429 A    
O3    Cu2   1.952440 S    
O8    C4    1.301566 A    
C37   C43   1.504174 S    
O4    C2    1.296562 A    
C51   H26   1.110444 S    
C20   C29   1.478870 S    
N4    O12   1.299493 A    
C7    H5    1.082712 S    
C53   H33   1.108749 S    
C8    H6    1.082592 S    
O1    Cu1   1.948495 S    
C44   C46   1.424926 A    
C16   C18   1.392514 A    
N3    O10   1.299355 A    
C49   H21   1.109845 S    
C6    C8    1.393342 A    
C32   N8    1.436910 S    
C20   C22   1.403207 A    
O3    C1    1.297237 A    
C30   C32   1.417518 A    
C18   H10   1.082589 S    
C53   H32   1.107778 S    
C31   N7    1.436458 S    
C41   C42   1.407691 A    
C15   C17   1.390713 A    
C12   C14   1.398605 A    
C5    H3    1.078524 S    
C52   H30   1.086396 S    
C6    H4    1.080626 S    
C39   C43   1.405856 A    
O4    Cu2   1.948624 S    
N8    O20   1.301338 A    
N3    O9    1.301677 A    
C23   C53   1.509469 S    
O5    Cu1   1.971501 S    
C51   H27   1.081336 S    
C38   C43   1.406107 A    
C41   H18   1.082881 S    
C27   C28   1.383552 A    
C45   C48   1.399713 A    
C52   H28   1.108024 S    
C21   C23   1.399453 A    
C50   H22   1.106557 S    
C7    C8    1.388810 A    
C34   C36   1.422780 A    
C42   C48   1.504775 S    
C27   C30   1.399956 A    
C39   H16   1.082914 S    
