data_mof_unit_3352.cif
_audit_creation_date              2012-12-11T15:47:03-0500
_audit_creation_method            fapswitch 2.2
_symmetry_space_group_name_H-M    P1
_symmetry_Int_Tables_number       1
_space_group_crystal_system       triclinic
_cell_length_a                    20.194483
_cell_length_b                    7.265399
_cell_length_c                    13.512365
_cell_angle_alpha                 89.998498
_cell_angle_beta                  103.270035
_cell_angle_gamma                 90.00187
_cell_volume                      1929.61149458

loop_
_atom_site_label
_atom_site_type_symbol
_atom_type_description
_atom_site_fract_x
_atom_site_fract_y
_atom_site_fract_z
_atom_type_partial_charge
O1    O     O_R   0.449560 0.506810 0.599700 -0.537905
O2    O     O_R   0.550440 0.006810 0.400300 -0.537954
O3    O     O_R   0.587960 0.180060 0.595760 -0.515928
O4    O     O_R   0.412040 0.680060 0.404240 -0.515910
C1    C     C_R   0.614631 0.344066 0.618300 0.712307
C2    C     C_R   0.385369 0.844064 0.381700 0.712318
O5    O     O_R   0.452380 0.177430 0.611700 -0.542646
O6    O     O_R   0.547620 0.677430 0.388300 -0.542614
O7    O     O_R   0.413900 0.001890 0.416350 -0.550907
O8    O     O_R   0.586100 0.501890 0.583650 -0.550892
C3    C     C_R   0.436170 0.345548 0.637291 0.753295
C4    C     C_R   0.563830 0.845555 0.362710 0.753330
O9    O     O_3   0.487530 0.337490 0.435890 -0.382644
O10   O     O_3   0.512470 0.837490 0.564110 -0.382645
V1    V     V_3+5 0.502310 0.064660 0.511890 1.445469
V2    V     V_3+5 0.497690 0.564660 0.488110 1.445577
C5    C     C_R   0.610989 0.824959 0.110824 -0.155609
C6    C     C_R   0.389005 0.324481 0.889164 -0.155617
H1    H     H_    0.518329 0.800681 0.161382 0.141527
H2    H     H_    0.481657 0.300189 0.838587 0.141563
H3    H     H_    0.692830 0.839631 0.983939 0.141986
H4    H     H_    0.307165 0.338925 0.016057 0.141873
H5    H     H_    0.585108 0.808806 0.031633 0.134414
H6    H     H_    0.414881 0.308093 0.968342 0.134398
C7    C     C_R   0.604329 0.851973 0.286043 -0.110637
C8    C     C_R   0.395676 0.351929 0.713968 -0.110677
C9    C     C_R   0.932783 0.845688 0.317598 -0.163959
C10   C     C_R   0.067222 0.346028 0.682393 -0.163957
C11   C     C_R   0.897764 0.825242 0.394110 -0.149683
C12   C     C_R   0.102238 0.325736 0.605870 -0.149679
C13   C     C_R   0.826892 0.824673 0.370899 -0.142725
C14   C     C_R   0.173110 0.325047 0.629085 -0.142718
C15   C     C_R   0.788817 0.851240 0.269923 0.079493
C16   C     C_R   0.211188 0.351328 0.730082 0.079489
C17   C     C_R   0.825155 0.858939 0.191133 0.067453
C18   C     C_R   0.174849 0.358856 0.808875 0.067436
C19   C     C_R   0.715969 0.858698 0.243619 -0.029654
C20   C     C_R   0.284038 0.358667 0.756396 -0.029680
C21   C     C_R   0.681926 0.843507 0.139234 0.088426
C22   C     C_R   0.318075 0.343179 0.860769 0.088425
C23   C     C_R   0.718723 0.846530 0.063557 -0.169299
C24   C     C_R   0.281276 0.346047 0.936445 -0.169208
C25   C     C_R   0.789048 0.859928 0.088849 -0.195570
C26   C     C_R   0.210954 0.359571 0.911161 -0.195601
C27   C     C_R   0.674918 0.881987 0.315838 0.367424
C28   C     C_R   0.325097 0.382108 0.684198 0.367395
C29   C     C_R   0.572823 0.821992 0.184219 -0.251805
C30   C     C_R   0.427171 0.321644 0.815768 -0.251800
C31   C     C_R   0.897210 0.859656 0.216270 -0.068259
C32   C     C_R   0.102795 0.359705 0.783734 -0.068248
H7    H     H_    0.987922 0.844796 0.337082 0.103121
H8    H     H_    0.012082 0.345258 0.662904 0.103109
H9    H     H_    0.803596 0.793959 0.433028 0.173105
H10   H     H_    0.196402 0.294473 0.566935 0.173095
H11   H     H_    0.925752 0.806334 0.471980 0.123796
H12   H     H_    0.074247 0.307053 0.527984 0.123799
H13   H     H_    0.815028 0.864072 0.027152 0.113914
H14   H     H_    0.184974 0.363591 0.972859 0.113938
C33   C     C_R   0.205145 0.994957 0.259067 -0.167314
C34   C     C_R   0.794857 0.494962 0.740932 -0.167320
H15   H     H_    0.171179 0.105400 0.268796 0.131732
H16   H     H_    0.828824 0.605411 0.731205 0.131737
C35   C     C_R   0.270662 0.989798 0.322093 -0.265844
C36   C     C_R   0.729340 0.489806 0.677907 -0.265836
H17   H     H_    0.285264 0.094872 0.379799 0.150053
H18   H     H_    0.714738 0.594887 0.620202 0.150124
C37   C     C_R   0.316482 0.849218 0.312229 -0.127001
C38   C     C_R   0.683519 0.349220 0.687769 -0.127035
C39   C     C_R   0.294814 0.710074 0.238471 0.464826
C40   C     C_R   0.705185 0.210066 0.761523 0.464801
C41   C     C_R   0.228806 0.716931 0.175271 -0.224565
C42   C     C_R   0.771194 0.216921 0.824721 -0.224566
H19   H     H_    0.213766 0.614558 0.116136 0.126336
H20   H     H_    0.786233 0.114539 0.883854 0.126307
C43   C     C_R   0.183380 0.857985 0.185375 -0.089397
C44   C     C_R   0.816621 0.357982 0.814621 -0.089389
O11   O     O_R   0.913920 0.203370 0.916260 -0.538236
O12   O     O_R   0.086080 0.703370 0.083740 -0.538232
O13   O     O_R   0.047620 0.535540 0.888290 -0.539698
O14   O     O_R   0.952380 0.035540 0.111710 -0.539700
C45   C     C_R   0.063554 0.368319 0.862193 0.677564
C46   C     C_R   0.936449 0.868310 0.137809 0.677574
O15   O     O_R   0.912040 0.532780 0.904220 -0.543750
O16   O     O_R   0.087960 0.032780 0.095780 -0.543760
O17   O     O_R   0.949550 0.708160 0.099720 -0.534457
O18   O     O_R   0.050450 0.208160 0.900280 -0.534465
C47   C     C_R   0.885643 0.364856 0.882842 0.695992
C48   C     C_R   0.114357 0.864858 0.117156 0.695979
O19   O     O_3   0.012480 0.375300 0.064060 -0.378267
O20   O     O_3   0.987520 0.875300 0.935940 -0.378265
V3    V     V_3+5 0.997690 0.648180 0.988110 1.409653
V4    V     V_3+5 0.002310 0.148180 0.011890 1.409628
O21   O     O_3   0.340537 0.578539 0.221409 -0.561226
C49   C     C_3   0.320360 0.404400 0.250018 -0.208357
H21   H     H_    0.312850 0.405744 0.329165 0.145229
H22   H     H_    0.361376 0.304013 0.247743 0.166600
H23   H     H_    0.273566 0.355271 0.196086 0.119181
O22   O     O_3   0.659462 0.078520 0.778583 -0.561247
C50   C     C_3   0.679636 0.904391 0.749964 -0.208448
H24   H     H_    0.687145 0.905756 0.670816 0.145255
H25   H     H_    0.638620 0.803997 0.752236 0.166630
H26   H     H_    0.726431 0.855256 0.803891 0.119204
O23   O     O_3   0.701791 0.935322 0.415240 -0.579906
C51   C     C_3   0.711175 0.127906 0.417583 -0.263425
H27   H     H_    0.662419 0.201895 0.387680 0.150746
H28   H     H_    0.749587 0.169827 0.374656 0.146573
H29   H     H_    0.730444 0.171084 0.497792 0.158413
O24   O     O_3   0.298240 0.435736 0.584842 -0.579886
C52   C     C_3   0.288912 0.628335 0.582664 -0.263267
H30   H     H_    0.337691 0.702189 0.612631 0.150734
H31   H     H_    0.250512 0.670180 0.625626 0.146546
H32   H     H_    0.269657 0.671751 0.502493 0.158395

loop_
_geom_bond_atom_site_label_1
_geom_bond_atom_site_label_2
_ccdc_geom_bond_type
O15   C47   A    
C35   H17   S    
O11   V4    S    
O4    V2    S    
O21   C49   S    
C7    C27   A    
C9    C11   A    
O1    C3    A    
C42   C44   A    
O2    C4    A    
C2    O7    A    
C51   H28   S    
O17   V3    S    
C18   C32   A    
C21   C23   A    
O5    C3    A    
C5    H5    S    
C6    H6    S    
C36   C38   A    
C39   O21   S    
C52   H31   S    
H1    C29   S    
O24   C52   S    
C34   H16   S    
C5    C21   A    
C39   C41   A    
C6    C22   A    
C27   O23   S    
C10   C32   A    
C26   H14   S    
C28   O24   S    
C17   C31   A    
C13   C15   A    
C12   C14   A    
C17   C25   A    
C7    C29   A    
O13   V3    S    
C45   O18   A    
C8    C30   A    
C22   C24   A    
O6    V2    S    
C23   C25   A    
C24   C26   A    
C1    C38   S    
C14   H10   S    
C51   H27   S    
C9    H7    S    
C19   C21   A    
C35   C37   A    
C41   C43   A    
C33   H15   S    
C5    C29   A    
C42   H20   S    
C52   H32   S    
O13   C45   A    
C25   H13   S    
C11   H11   S    
C49   H23   S    
C12   H12   S    
C34   C44   A    
C15   C19   A    
C37   C39   A    
C36   H18   S    
C31   C46   S    
O14   V4    S    
C50   H24   S    
O6    C4    A    
O1    V2    S    
C13   H9    S    
O19   V4    S    
C49   H22   S    
O2    V1    S    
C44   C47   S    
H2    C30   S    
H3    C23   S    
O4    C2    A    
C2    C37   S    
C50   H25   S    
C18   C26   A    
C19   C27   A    
C33   C43   A    
O3    V1    S    
C41   H19   S    
O12   C48   A    
C16   C20   A    
O16   C48   A    
O3    C1    A    
C6    C30   A    
C40   C42   A    
O12   V3    S    
C46   O17   A    
O15   V3    S    
C33   C35   A    
C3    C8    S    
C4    C7    S    
C34   C36   A    
C10   C12   A    
O7    V1    S    
C1    O8    A    
C11   C13   A    
O18   V4    S    
C52   H30   S    
C20   C22   A    
C10   H8    S    
O20   V3    S    
H4    C24   S    
O5    V1    S    
C15   C17   A    
O14   C46   A    
C16   C18   A    
C49   H21   S    
C20   C28   A    
C8    C28   A    
C40   O22   S    
C43   C48   S    
C50   H26   S    
O11   C47   A    
C38   C40   A    
O22   C50   S    
O9    V2    S    
O23   C51   S    
O10   V1    S    
O8    V2    S    
O16   V4    S    
C51   H29   S    
C9    C31   A    
C32   C45   S    
C14   C16   A    
