data_mof_unit_2575.cif
_audit_creation_date              2012-12-10T17:44:38-0500
_audit_creation_method            fapswitch 2.2
_symmetry_space_group_name_H-M    P1
_symmetry_Int_Tables_number       1
_space_group_crystal_system       triclinic
_cell_length_a                    9.898365
_cell_length_b                    10.688614
_cell_length_c                    15.522374
_cell_angle_alpha                 91.171611
_cell_angle_beta                  67.783076
_cell_angle_gamma                 88.890151
_cell_volume                      1519.37111406

loop_
_atom_site_label
_atom_site_type_symbol
_atom_type_description
_atom_site_fract_x
_atom_site_fract_y
_atom_site_fract_z
_atom_type_partial_charge
C1    C     C_R   0.500059 0.740752 0.496073 0.860071
C2    C     C_R   0.716065 0.398645 0.039076 0.170097
C3    C     C_R   0.575318 0.450918 0.091170 0.097879
C4    C     C_R   0.408696 0.498623 0.675805 0.842311
C5    C     C_R   0.819730 0.386073 0.080295 -0.222454
C6    C     C_R   0.784143 0.424617 0.172912 -0.207189
C7    C     C_R   0.547905 0.499680 0.180291 -0.260180
C8    C     C_R   0.240126 0.899509 0.497512 -0.173037
C9    C     C_R   0.106712 0.965671 0.530498 -0.258541
C10   C     C_R   0.090959 0.076384 0.582262 -0.144910
C11   C     C_R   0.211836 0.127875 0.593663 0.472523
C12   C     C_R   0.406035 0.453255 0.914478 0.095903
C13   C     C_R   0.352654 0.068767 0.548162 -0.034822
C14   C     C_R   0.361971 0.945384 0.514029 0.062522
C15   C     C_R   0.494303 0.875702 0.496895 -0.097309
C16   C     C_R   0.494651 0.261590 0.510813 0.890433
C17   C     C_R   0.619644 0.935705 0.495129 -0.219198
C18   C     C_R   0.616775 0.062773 0.507426 -0.204661
C19   C     C_R   0.485634 0.130212 0.528935 -0.143273
C20   C     C_R   0.785583 0.664843 0.623013 -0.166444
C21   C     C_R   0.818762 0.742266 0.685027 -0.204826
C22   C     C_R   0.957732 0.738668 0.686401 -0.184079
C23   C     C_R   0.259502 0.488811 0.970186 0.177629
C24   C     C_R   0.064829 0.658715 0.624958 -0.163827
C25   C     C_R   0.034994 0.578976 0.561407 0.161036
C26   C     C_R   0.890626 0.580349 0.560852 0.170000
C27   C     C_R   0.964622 0.423479 0.441705 -0.143488
C28   C     C_R   0.591318 0.498544 0.324107 0.875086
C29   C     C_R   0.107906 0.423762 0.441553 -0.097291
C30   C     C_R   0.351783 0.489746 0.776754 -0.058727
C31   C     C_R   0.646661 0.480046 0.223276 -0.057523
C32   C     C_R   0.159521 0.517711 0.928561 -0.222507
C33   C     C_R   0.205366 0.517571 0.831952 -0.184274
C34   C     C_R   0.507723 0.426616 0.956473 0.063436
C35   C     C_R   0.449433 0.455315 0.817984 -0.270670
C36   C     C_R   0.466700 0.454950 0.052508 0.069647
C37   C     C_R   0.317995 0.483940 0.107143 -0.231838
C38   C     C_R   0.215899 0.498696 0.066437 -0.246677
C39   C     C_R   0.649060 0.373853 0.905829 -0.221780
C40   C     C_R   0.750527 0.358591 0.947167 -0.233745
H1    H     H_    0.103571 0.522748 0.110243 0.150191
H2    H     H_    0.736004 0.805862 0.732100 0.155202
H3    H     H_    0.447940 0.551770 0.218783 0.151912
H4    H     H_    0.983475 0.799479 0.734386 0.155436
H5    H     H_    0.170096 0.662822 0.628337 0.203549
H6    H     H_    0.191330 0.361437 0.393833 0.149103
H7    H     H_    0.861448 0.407423 0.205771 0.151589
H8    H     H_    0.857108 0.316985 0.906555 0.165258
H9    H     H_    0.047477 0.544919 0.970602 0.151260
H10   H     H_    0.128169 0.543517 0.800715 0.165327
H11   H     H_    0.561808 0.437105 0.773329 0.166459
H12   H     H_    0.926296 0.343057 0.041854 0.148141
H13   H     H_    0.276599 0.492700 0.182111 0.147325
H14   H     H_    0.682791 0.339161 0.834861 0.153165
H15   H     H_    0.270333 0.237906 0.673275 0.316088
H16   H     H_    0.722058 0.885142 0.481263 0.168404
H17   H     H_    0.246430 0.816143 0.455702 0.181738
H18   H     H_    0.014053 0.928694 0.518463 0.167539
H19   H     H_    0.984593 0.122765 0.613366 0.155959
H20   H     H_    0.718637 0.108289 0.496486 0.167889
H21   H     H_    0.940205 0.361005 0.394143 0.141667
H22   H     H_    0.676771 0.675072 0.626179 0.207999
N1    N     N_R   0.856800 0.501200 0.500850 -0.116634
N2    N     N_R   0.142390 0.501280 0.500880 -0.111661
O1    O     O_R   0.385310 0.683220 0.500000 -0.651887
O2    O     O_R   0.614640 0.683250 0.500010 -0.636550
O3    O     O_R   0.319840 0.499980 0.632240 -0.610304
O4    O     O_R   0.549160 0.500000 0.632250 -0.637347
O5    O     O_R   0.385360 0.316750 0.499990 -0.577993
O6    O     O_R   0.614690 0.316780 0.500000 -0.622315
O7    O     O_R   0.450840 0.500000 0.367750 -0.620336
O8    O     O_R   0.680160 0.500020 0.367760 -0.611444
O9    O     O_3   0.187091 0.231298 0.652905 -0.757364
Zn1   Zn    Zn3+2 0.346880 0.499980 0.499990 0.950844
Zn2   Zn    Zn3+2 0.653120 0.500020 0.500010 0.926488

loop_
_geom_bond_atom_site_label_1
_geom_bond_atom_site_label_2
_ccdc_geom_bond_type
C27   C29   A    
O4    Zn2   S    
C12   C23   A    
N1    Zn2   S    
C30   C35   A    
C24   H5    S    
C36   C37   A    
C18   C19   A    
C3    C7    A    
C5    C6    A    
C39   H14   S    
C40   H8    S    
C9    H18   S    
C27   H21   S    
C22   H4    S    
C8    C9    A    
C1    O1    A    
C5    H12   S    
C1    C15   S    
C7    H3    S    
C9    C10   A    
C37   H13   S    
C6    C31   A    
C29   N2    A    
C13   C14   A    
C28   O8    A    
O8    Zn2   S    
C1    O2    A    
C7    C31   A    
C6    H7    S    
C13   C19   A    
C34   C39   A    
C16   O6    A    
C24   C25   A    
C38   H1    S    
C11   O9    S    
C39   C40   A    
C4    O4    A    
C33   H10   S    
O1    Zn1   S    
C25   N2    A    
H15   O9    S    
C26   N1    A    
C37   C38   A    
C8    H17   S    
C4    O3    A    
C17   C18   A    
O5    Zn1   S    
O3    Zn1   S    
C12   C35   A    
C17   H16   S    
C27   N1    A    
C18   H20   S    
C35   H11   S    
C22   C24   A    
C2    C5    A    
C12   C34   A    
C15   C17   A    
C8    C14   A    
C30   C33   A    
C28   C31   S    
C16   O5    A    
O7    Zn1   S    
C23   C38   A    
C29   H6    S    
C23   C32   A    
C2    C3    A    
C25   C26   A    
C32   C33   A    
C11   C13   A    
C20   C26   A    
C3    C36   A    
C16   C19   S    
O2    Zn2   S    
C10   H19   S    
C34   C36   A    
C20   H22   S    
C32   H9    S    
C10   C11   A    
C21   H2    S    
C28   O7    A    
C2    C40   A    
C20   C21   A    
O6    Zn2   S    
N2    Zn1   S    
C14   C15   A    
C21   C22   A    
C4    C30   S    
