data_mof_unit_4360.cif
_audit_creation_date              2012-12-11T16:57:23-0500
_audit_creation_method            fapswitch 2.2
_symmetry_space_group_name_H-M    P1
_symmetry_Int_Tables_number       1
_space_group_crystal_system       triclinic
_cell_length_a                    14.514934
_cell_length_b                    16.173435
_cell_length_c                    6.932475
_cell_angle_alpha                 89.999972
_cell_angle_beta                  98.743088
_cell_angle_gamma                 90.0
_cell_volume                      1608.53135163

loop_
_atom_site_label
_atom_site_type_symbol
_atom_type_description
_atom_site_fract_x
_atom_site_fract_y
_atom_site_fract_z
_atom_type_partial_charge
O1    O     O_R   0.584990 0.413650 0.534420 -0.537162
O2    O     O_R   0.584990 0.586350 0.534420 -0.537162
O3    O     O_R   0.596190 0.585230 0.208380 -0.544229
O4    O     O_R   0.596190 0.414770 0.208380 -0.544229
O5    O     O_R   0.415010 0.586420 0.976930 -0.539638
O6    O     O_R   0.415010 0.413580 0.976930 -0.539638
C1    C     C_R   0.619001 0.614012 0.384134 0.720645
C2    C     C_R   0.619001 0.385987 0.384134 0.720645
O7    O     O_3   0.440560 0.500000 0.319140 -0.371188
V1    V     V_3+5 0.511030 0.500000 0.068070 1.395021
O8    O     O_R   0.403810 0.414840 0.643540 -0.543285
O9    O     O_R   0.403810 0.585160 0.643540 -0.543285
C3    C     C_R   0.381484 0.386034 0.805843 0.757991
C4    C     C_R   0.381484 0.613966 0.805843 0.757991
V2    V     V_3+5 0.488970 0.500000 0.560620 1.399463
O10   O     O_3   0.559440 0.500000 0.859420 -0.373566
H1    H     H_    0.187676 0.805472 0.805552 0.154442
H2    H     H_    0.187677 0.194528 0.805552 0.154441
H3    H     H_    0.318277 0.693093 0.102169 0.154170
H4    H     H_    0.318277 0.306907 0.102169 0.154170
C5    C     C_2   0.312158 0.681643 0.796183 -0.342113
C6    C     C_2   0.312158 0.318357 0.796183 -0.342113
C7    C     C_2   0.287417 0.715451 0.958984 -0.124985
C8    C     C_2   0.287417 0.284549 0.958984 -0.124985
H5    H     H_    0.225313 0.795491 0.254372 0.126683
H6    H     H_    0.225313 0.204509 0.254372 0.126683
C9    C     C_2   0.194360 0.817947 0.111362 -0.339360
C10   C     C_2   0.194360 0.182053 0.111362 -0.339361
C11   C     C_2   0.218716 0.783459 0.948933 -0.125136
C12   C     C_2   0.218716 0.216541 0.948933 -0.125136
H7    H     H_    0.281337 0.704578 0.653513 0.125807
H8    H     H_    0.281337 0.295422 0.653513 0.125807
C13   C     C_R   0.757150 0.685963 0.579625 0.048567
C14   C     C_R   0.757150 0.314038 0.579625 0.048568
C15   C     C_R   0.689574 0.681296 0.413103 -0.172368
C16   C     C_R   0.689575 0.318705 0.413103 -0.172368
C17   C     C_R   0.691500 0.743232 0.270895 -0.175804
C18   C     C_R   0.691500 0.256767 0.270896 -0.175806
H9    H     H_    0.640830 0.741596 0.139023 0.138859
H10   H     H_    0.640830 0.258404 0.139025 0.138859
C19   C     C_R   0.751226 0.812620 0.304780 0.339240
C20   C     C_R   0.751226 0.187380 0.304781 0.339240
C21   C     C_R   0.816921 0.818286 0.480386 -0.224240
C22   C     C_R   0.816922 0.181715 0.480387 -0.224239
C23   C     C_R   0.820067 0.751562 0.610855 0.057879
C24   C     C_R   0.820068 0.248438 0.610855 0.057878
C25   C     C_3   0.816136 0.751350 0.825276 -0.015072
C26   C     C_3   0.816137 0.248650 0.825277 -0.015072
C27   C     C_3   0.747750 0.679319 0.790164 -0.376398
C28   C     C_3   0.747751 0.320681 0.790164 -0.376398
H11   H     H_    0.784687 0.808871 0.873150 0.202651
H12   H     H_    0.784689 0.191130 0.873151 0.202651
H13   H     H_    0.676513 0.695457 0.817999 0.158653
H14   H     H_    0.676514 0.304543 0.818000 0.158653
H15   H     H_    0.774920 0.619447 0.854172 0.170829
H16   H     H_    0.774920 0.380553 0.854171 0.170829
O11   O     O_R   0.921430 0.915960 0.371040 -0.533050
O12   O     O_R   0.921430 0.084040 0.371040 -0.533048
O13   O     O_R   0.910450 0.087500 0.697310 -0.538791
O14   O     O_R   0.910450 0.912500 0.697310 -0.538790
O15   O     O_R   0.091710 0.087460 0.928430 -0.543459
O16   O     O_R   0.091710 0.912540 0.928430 -0.543459
C29   C     C_R   0.886312 0.113112 0.518703 0.690691
C30   C     C_R   0.886312 0.886889 0.518703 0.690690
O17   O     O_3   0.065970 1.000000 0.586140 -0.372226
V3    V     V_3+5 0.995640 0.000000 0.837400 1.435712
O18   O     O_R   0.103020 0.915700 0.261710 -0.541190
O19   O     O_R   0.103020 0.084300 0.261710 -0.541190
C31   C     C_R   0.125299 0.885901 0.100239 0.748784
C32   C     C_R   0.125299 0.114099 0.100239 0.748785
V4    V     V_3+5 0.017940 0.000000 0.344880 1.416432
O20   O     O_3   0.947330 1.000000 0.046180 -0.360640
O21   O     O_3   0.737541 0.875513 0.169209 -0.650882
H17   H     H_    0.759696 0.927955 0.232940 0.284811
O22   O     O_3   0.737541 0.124486 0.169211 -0.650880
H18   H     H_    0.759691 0.072044 0.232948 0.284807
C33   C     C_3   0.909365 0.728759 0.948186 -0.725094
H19   H     H_    0.939961 0.672554 0.890763 0.204758
H20   H     H_    0.959095 0.780762 0.947161 0.213230
H21   H     H_    0.898829 0.717229 0.101209 0.209061
C34   C     C_3   0.909366 0.271242 0.948185 -0.725096
H22   H     H_    0.939960 0.327448 0.890761 0.204759
H23   H     H_    0.898831 0.282771 0.101208 0.209061
H24   H     H_    0.959097 0.219240 0.947157 0.213229

loop_
_geom_bond_atom_site_label_1
_geom_bond_atom_site_label_2
_ccdc_geom_bond_type
O15   C32   A    
C9    C11   D    
O1    C2    A    
H1    C11   S    
O21   H17   S    
O2    C1    A    
O4    C2    A    
C34   H22   S    
C25   C27   S    
C33   H19   S    
C5    H7    S    
C20   O22   S    
C28   H14   S    
C6    H8    S    
C7    C11   S    
C4    C5    S    
C15   C17   A    
C18   C20   A    
O3    C1    A    
O13   V3    S    
O12   V4    S    
C13   C27   S    
V2    O10   S    
C13   C23   A    
C26   C34   S    
C2    C16   S    
C23   C25   S    
O8    V2    S    
O15   V3    S    
V3    O20   S    
H4    C8    S    
O17   V4    S    
O1    V2    S    
O7    V1    S    
O18   V4    S    
C9    C31   S    
C26   C28   S    
O14   V3    S    
C14   C24   A    
C19   C21   A    
C20   C22   A    
C34   H23   S    
C22   C24   A    
C21   C30   S    
C33   H20   S    
C22   C29   S    
C24   C26   S    
C14   C28   S    
O16   V3    S    
C25   H11   S    
C27   H15   S    
C28   H16   S    
O16   C31   A    
O18   C31   A    
H3    C7    S    
O22   H18   S    
O9    V2    S    
O11   V4    S    
O2    V2    S    
C21   C23   A    
O5    C4    A    
H2    C12   S    
O9    C4    A    
C5    C7    D    
C6    C8    D    
O13   C29   A    
C25   C33   S    
O4    V1    S    
C34   H24   S    
O11   C30   A    
C33   H21   S    
O12   C29   A    
C1    C15   S    
C10   C32   S    
O6    V1    S    
H5    C9    S    
H6    C10   S    
O14   C30   A    
C16   C18   A    
O7    V2    S    
O5    V1    S    
C17   H9    S    
O3    V1    S    
V1    O10   S    
O6    C3    A    
C18   H10   S    
O8    C3    A    
O19   V4    S    
C27   H13   S    
C10   C12   D    
C13   C15   A    
C3    C6    S    
C14   C16   A    
C17   C19   A    
C8    C12   S    
C19   O21   S    
C26   H12   S    
V4    O20   S    
O19   C32   A    
O17   V3    S    
