data_mof_unit_2892.cif
_audit_creation_date              2012-12-10T17:49:41-0500
_audit_creation_method            fapswitch 2.2
_symmetry_space_group_name_H-M    P1
_symmetry_Int_Tables_number       1
_space_group_crystal_system       triclinic
_cell_length_a                    10.488818
_cell_length_b                    10.644015
_cell_length_c                    9.984142
_cell_angle_alpha                 90.050297
_cell_angle_beta                  91.224294
_cell_angle_gamma                 93.558852
_cell_volume                      1112.25468899

loop_
_atom_site_label
_atom_site_type_symbol
_atom_type_description
_atom_site_fract_x
_atom_site_fract_y
_atom_site_fract_z
_atom_type_partial_charge
C1    C     C_R   0.502392 0.260761 0.500245 0.840423
C2    C     C_R   0.619972 0.074622 0.559245 0.044068
C3    C     C_R   0.512419 0.128725 0.501297 -0.042754
C4    C     C_R   0.257984 0.503606 0.499003 0.869809
C5    C     C_R   0.411212 0.056262 0.443427 -0.215401
C6    C     C_R   0.413569 0.928394 0.442590 -0.231359
C7    C     C_R   0.517006 0.872089 0.500603 -0.087902
C8    C     C_R   0.366810 0.292562 0.125811 0.035719
C9    C     C_R   0.335042 0.185767 0.046919 -0.207510
C10   C     C_R   0.326801 0.196752 0.909731 -0.223896
C11   C     C_R   0.363486 0.310157 0.851233 -0.136829
C12   C     C_3   0.951601 0.403565 0.433292 0.015074
C13   C     C_R   0.432985 0.404959 0.924404 0.153204
C14   C     C_R   0.433203 0.401779 0.068717 0.102351
C15   C     C_R   0.563416 0.592089 0.072914 -0.112809
C16   C     C_R   0.507540 0.739274 0.500287 0.961613
C17   C     C_R   0.563957 0.591627 0.930405 -0.106939
C18   C     C_R   0.742219 0.500422 0.501237 0.934271
C19   C     C_3   0.049972 0.604405 0.568674 -0.139120
C20   C     C_3   0.963202 0.497063 0.628849 -0.138209
C21   C     C_3   0.877386 0.501739 0.503206 -0.015644
C22   C     C_3   0.961565 0.609052 0.443113 -0.148136
C23   C     C_3   0.038924 0.397086 0.558036 -0.223998
C24   C     C_3   0.037300 0.509457 0.371724 -0.186482
C25   C     C_1   0.283122 0.291939 0.237145 0.231150
C26   C     C_1   0.894551 0.293807 0.359719 0.169429
C27   C     C_3   0.122771 0.504545 0.497641 0.018011
C28   C     C_R   0.724546 0.148671 0.615111 -0.164070
C29   C     C_R   0.830541 0.092575 0.668842 -0.235247
C30   C     C_R   0.834973 0.962423 0.666885 -0.200685
C31   C     C_R   0.733202 0.887306 0.611975 0.569790
C32   C     C_R   0.623312 0.942642 0.558351 -0.031947
F1    F     F_    0.745664 0.761603 0.609447 -0.710960
H1    H     H_    0.929023 0.492096 0.733291 0.157833
H2    H     H_    0.925383 0.695278 0.397236 0.161552
H3    H     H_    0.071015 0.514104 0.267076 0.154575
H4    H     H_    0.075240 0.310734 0.603530 0.133973
H5    H     H_    0.328291 0.097914 0.401831 0.155523
H6    H     H_    0.726435 0.250167 0.616390 0.152219
H7    H     H_    0.910049 0.150375 0.711015 0.157985
H8    H     H_    0.918360 0.919327 0.707260 0.156064
H9    H     H_    0.332823 0.872704 0.399123 0.144973
H10   H     H_    0.615761 0.667440 0.127185 0.151292
H11   H     H_    0.292828 0.100083 0.091005 0.150766
H12   H     H_    0.282430 0.120594 0.849725 0.156888
H13   H     H_    0.334994 0.321588 0.749081 0.202321
H14   H     H_    0.616817 0.666667 0.878652 0.173573
H15   H     H_    0.095233 0.686899 0.623536 0.134750
N1    N     N_R   0.498800 0.498800 0.142780 -0.118856
N2    N     N_R   0.498760 0.498720 0.857170 -0.121095
N3    N     N_1   0.209868 0.281393 0.322001 -0.255294
N4    N     N_1   0.849482 0.207299 0.301807 -0.193506
O1    O     O_R   0.500000 0.316780 0.614690 -0.647853
O2    O     O_R   0.499990 0.316750 0.385360 -0.611443
O3    O     O_R   0.313960 0.499980 0.614650 -0.650180
O4    O     O_R   0.313940 0.499960 0.385310 -0.621490
O5    O     O_R   0.500010 0.683250 0.614640 -0.587008
O6    O     O_R   0.500000 0.683220 0.385310 -0.630988
O7    O     O_R   0.686060 0.500040 0.614690 -0.589059
O8    O     O_R   0.686040 0.500020 0.385350 -0.624066
Zn1   Zn    Zn3+2 0.500010 0.500020 0.653130 0.960384
Zn2   Zn    Zn3+2 0.499990 0.499980 0.346870 0.961153

loop_
_geom_bond_atom_site_label_1
_geom_bond_atom_site_label_2
_ccdc_geom_bond_type
C17   N2    A    
O6    Zn2   S    
C2    C28   A    
C1    O2    A    
C31   F1    S    
C30   H8    S    
O5    Zn1   S    
C6    C7    A    
C8    C25   S    
C26   N4    T    
C18   C21   S    
C19   C27   S    
C9    C10   A    
C12   C24   S    
C19   C20   S    
C28   H6    S    
C24   C27   S    
C30   C31   A    
C3    C5    A    
C20   H1    S    
C4    C27   S    
C10   H12   S    
C25   N3    T    
C2    C3    A    
C15   H10   S    
C16   O6    A    
C21   C22   S    
C4    O4    A    
C22   H2    S    
C11   C13   A    
C12   C23   S    
C24   H3    S    
O3    Zn1   S    
C29   H7    S    
O8    Zn2   S    
C28   C29   A    
O4    Zn2   S    
C16   O5    A    
C15   N1    A    
C4    O3    A    
C5    C6    A    
C22   C24   S    
N1    Zn2   S    
O7    Zn1   S    
C14   N1    A    
C10   C11   A    
C29   C30   A    
C13   N2    A    
C17   H14   S    
C18   O7    A    
C19   C22   S    
C5    H5    S    
C20   C21   S    
C2    C32   A    
C6    H9    S    
C18   O8    A    
C15   C17   A    
N2    Zn1   S    
C1    O1    A    
C19   H15   S    
C7    C16   S    
C11   H13   S    
C8    C14   A    
C7    C32   A    
O2    Zn2   S    
C13   C14   A    
C1    C3    S    
C23   H4    S    
C20   C23   S    
O1    Zn1   S    
C12   C21   S    
C23   C27   S    
C31   C32   A    
C12   C26   S    
C8    C9    A    
C9    H11   S    
