data_mof_unit_1037.cif
_audit_creation_date              2012-12-10T17:04:38-0500
_audit_creation_method            fapswitch 2.2
_symmetry_space_group_name_H-M    P1
_symmetry_Int_Tables_number       1
_space_group_crystal_system       triclinic
_cell_length_a                    14.361312
_cell_length_b                    11.126794
_cell_length_c                    9.876946
_cell_angle_alpha                 110.212653
_cell_angle_beta                  99.042058
_cell_angle_gamma                 90.276771
_cell_volume                      1459.7084754

loop_
_atom_site_label
_atom_site_type_symbol
_atom_type_description
_atom_site_fract_x
_atom_site_fract_y
_atom_site_fract_z
_atom_type_partial_charge
C1    C     C_R   0.491377 0.254812 0.443944 0.845811
C2    C     C_R   0.502538 0.744042 0.556956 0.838570
C3    C     C_R   0.331091 0.499938 0.499594 0.793228
C4    C     C_R   0.668906 0.500150 0.500410 0.810362
C5    C     C_1   0.228669 0.499993 0.498866 -0.211134
C6    C     C_1   0.771347 0.500448 0.501187 -0.217026
C7    C     C_1   0.143287 0.500155 0.499018 -0.015030
C8    C     C_1   0.856737 0.500548 0.501074 -0.013188
C9    C     C_1   0.042681 0.500369 0.499705 -0.002767
C10   C     C_1   0.957349 0.500501 0.500405 -0.001710
C11   C     C_2   0.478765 0.118078 0.422691 -0.399925
C12   C     C_2   0.506200 0.879839 0.583716 -0.381835
C13   C     C_2   0.472559 0.073570 0.533985 0.114140
C14   C     C_2   0.452667 0.935026 0.498819 0.084496
C15   C     C_2   0.495145 0.527465 0.087143 -0.060145
C16   C     C_2   0.477201 0.514173 0.924742 -0.066498
Cu1   Cu    Cu3+1 0.515060 0.521810 0.644910 0.911310
Cu2   Cu    Cu3+1 0.484940 0.478190 0.355090 0.913341
H1    H     H_    0.559583 0.936063 0.674253 0.149928
H2    H     H_    0.470866 0.050955 0.310924 0.133139
H3    H     H_    0.412856 0.465169 0.854333 0.138116
H4    H     H_    0.542468 0.604688 0.165733 0.146943
N1    N     N_2   0.462290 0.445430 0.137370 -0.157206
N2    N     N_2   0.537710 0.554570 0.862630 -0.153591
O1    O     O_R   0.508040 0.332330 0.577400 -0.574661
O2    O     O_R   0.491960 0.667670 0.422600 -0.583174
O3    O     O_R   0.482600 0.295500 0.332650 -0.591119
O4    O     O_R   0.517400 0.704500 0.667350 -0.577512
O5    O     O_R   0.388780 0.518420 0.622400 -0.563608
O6    O     O_R   0.611220 0.481580 0.377600 -0.548206
O7    O     O_R   0.363340 0.481590 0.377660 -0.570343
O8    O     O_R   0.636660 0.518410 0.622340 -0.580461
C17   C     C_3   0.617174 0.640029 0.965093 -0.161788
C18   C     C_3   0.694871 0.684245 0.899455 -0.291999
C19   C     C_3   0.763961 0.784901 0.018728 -0.953215
H5    H     H_    0.726992 0.871798 0.071970 0.260368
H6    H     H_    0.796742 0.745528 0.102858 0.263202
H7    H     H_    0.820848 0.813233 0.969359 0.258549
H8    H     H_    0.736551 0.601677 0.849128 0.228527
H9    H     H_    0.665453 0.728914 0.819517 0.253600
H10   H     H_    0.587907 0.727734 0.035819 0.153461
H11   H     H_    0.655170 0.589545 0.034908 0.146562
C20   C     C_3   0.379796 0.361464 0.042949 -0.160533
C21   C     C_3   0.353322 0.245603 0.082609 -0.290756
C22   C     C_3   0.272209 0.161314 0.969717 -0.962780
H12   H     H_    0.208734 0.217217 0.964173 0.265379
H13   H     H_    0.292967 0.123154 0.859682 0.251929
H14   H     H_    0.253917 0.078937 0.001769 0.258897
H15   H     H_    0.414760 0.185350 0.082771 0.228341
H16   H     H_    0.328684 0.276216 0.189215 0.252242
H17   H     H_    0.317387 0.420010 0.040182 0.159375
H18   H     H_    0.394561 0.315674 0.930987 0.137757
C23   C     C_3   0.369213 0.865221 0.379958 -0.361487
C24   C     C_3   0.278636 0.937215 0.402455 -0.376164
C25   C     C_3   0.194369 0.863057 0.288708 -0.841511
H19   H     H_    0.207729 0.848980 0.176620 0.253165
H20   H     H_    0.181158 0.768027 0.298144 0.255763
H21   H     H_    0.130310 0.917923 0.306928 0.245907
H22   H     H_    0.263283 0.951048 0.513594 0.220941
H23   H     H_    0.287653 0.033104 0.393068 0.223645
H24   H     H_    0.386583 0.855214 0.271034 0.187320
H25   H     H_    0.353007 0.767617 0.379264 0.220642
C26   C     C_3   0.481712 0.156336 0.696512 -0.340531
C27   C     C_3   0.585856 0.198437 0.770708 -0.312430
C28   C     C_3   0.606949 0.189984 0.923594 -0.881044
H26   H     H_    0.561946 0.253226 0.995829 0.275384
H27   H     H_    0.594309 0.089945 0.918689 0.248809
H28   H     H_    0.682060 0.221443 0.971892 0.247584
H29   H     H_    0.602781 0.299113 0.782111 0.251126
H30   H     H_    0.635063 0.137961 0.703497 0.210672
H31   H     H_    0.436617 0.238572 0.711251 0.179010
H32   H     H_    0.449746 0.100885 0.754192 0.185834

loop_
_geom_bond_atom_site_label_1
_geom_bond_atom_site_label_2
_ccdc_geom_bond_type
C21   H15   S    
C1    O1    A    
C25   H19   S    
C16   H3    S    
Cu2   O6    S    
C27   H30   S    
Cu1   O5    S    
C23   H25   S    
N2    C17   S    
C13   C26   S    
C20   C21   S    
C28   H28   S    
Cu1   O1    S    
C27   C28   S    
C14   C23   S    
C15   N1    D    
Cu1   Cu2   S    
C27   H29   S    
C2    C12   S    
C16   N2    D    
C24   H23   S    
C23   C24   S    
C21   C22   S    
C3    O7    A    
C11   C13   D    
C20   H17   S    
C4    O8    A    
Cu2   N1    S    
C18   H9    S    
C17   H11   S    
C12   H1    S    
C8    C10   S    
C19   H6    S    
C12   C14   D    
C17   C18   S    
C17   H10   S    
C5    C7    T    
C24   H22   S    
C25   H20   S    
C1    C11   S    
C20   H18   S    
C11   H2    S    
C22   H14   S    
Cu1   N2    S    
C2    O4    A    
C28   H26   S    
C4    C6    S    
C15   C16   S    
C7    C9    S    
C19   H7    S    
N1    C20   S    
C26   H32   S    
C2    O2    A    
C18   C19   S    
C9    C10   T    
C22   H13   S    
C21   H16   S    
C1    O3    A    
Cu1   O8    S    
C25   H21   S    
C24   C25   S    
C3    O5    A    
C6    C8    T    
Cu2   O7    S    
C13   C14   S    
C28   H27   S    
C22   H12   S    
Cu1   O4    S    
C23   H24   S    
C18   H8    S    
C15   H4    S    
C4    O6    A    
Cu2   O3    S    
C19   H5    S    
C26   H31   S    
C26   C27   S    
C3    C5    S    
Cu2   O2    S    
