data_mof_unit_2420.cif
_audit_creation_date              2012-12-10T17:44:21-0500
_audit_creation_method            fapswitch 2.2
_symmetry_space_group_name_H-M    P1
_symmetry_Int_Tables_number       1
_space_group_crystal_system       triclinic
_cell_length_a                    13.726103
_cell_length_b                    15.049991
_cell_length_c                    17.221059
_cell_angle_alpha                 89.756654
_cell_angle_beta                  85.314513
_cell_angle_gamma                 89.655102
_cell_volume                      3545.5090771

loop_
_atom_site_label
_atom_site_type_symbol
_atom_type_description
_atom_site_fract_x
_atom_site_fract_y
_atom_site_fract_z
_atom_type_partial_charge
C1    C     C_R   0.499933 0.671438 0.499260 0.810509
C2    C     C_R   0.500344 0.328594 0.499281 0.812029
C3    C     C_R   0.584592 0.184953 0.516022 -0.251654
C4    C     C_R   0.418619 0.815060 0.474926 -0.256727
C5    C     C_R   0.501244 0.231872 0.497008 -0.061284
C6    C     C_R   0.500491 0.768228 0.497157 -0.063035
C7    C     C_R   0.419027 0.186323 0.475264 -0.280284
C8    C     C_R   0.583900 0.813927 0.516372 -0.271395
C9    C     C_R   0.419185 0.093824 0.473194 0.107274
C10   C     C_R   0.585239 0.906389 0.515243 0.109828
C11   C     C_R   0.502448 0.046625 0.493864 0.068227
C12   C     C_R   0.502307 0.953528 0.493845 0.067710
C13   C     C_R   0.585618 0.092451 0.515075 0.109845
C14   C     C_R   0.419052 0.907661 0.472845 0.107211
C15   C     C_R   0.337426 0.047782 0.451203 -0.223358
C16   C     C_R   0.667828 0.952442 0.535580 -0.221296
C17   C     C_R   0.337569 0.955166 0.450626 -0.224565
C18   C     C_R   0.668060 0.045060 0.535421 -0.220144
C19   C     C_R   0.207506 0.575392 0.481646 0.004768
C20   C     C_R   0.790895 0.426046 0.523729 0.005032
C21   C     C_R   0.205418 0.424805 0.520208 -0.004876
C22   C     C_R   0.795436 0.573441 0.476508 -0.007876
C23   C     C_R   0.486730 0.502627 0.649961 0.796733
C24   C     C_R   0.513318 0.497517 0.350006 0.794793
C25   C     C_R   0.102176 0.420594 0.518702 -0.045827
C26   C     C_R   0.898688 0.575885 0.476085 -0.034493
C27   C     C_R   0.051423 0.498956 0.500264 0.016401
C28   C     C_R   0.948258 0.498987 0.500281 0.014783
C29   C     C_R   0.104089 0.578226 0.483822 -0.033494
C30   C     C_R   0.894350 0.422270 0.523972 -0.041551
C31   C     C_R   0.049121 0.340958 0.536793 0.065634
C32   C     C_R   0.952688 0.653859 0.454062 0.063508
C33   C     C_R   0.944459 0.343775 0.546038 0.073391
C34   C     C_R   0.052575 0.658540 0.470936 0.063416
C35   C     C_R   0.477638 0.508479 0.734716 -0.088008
C36   C     C_R   0.522712 0.492794 0.265159 -0.088888
C37   C     C_R   0.533906 0.569284 0.774490 0.064474
C38   C     C_R   0.464784 0.434365 0.224424 0.065831
C39   C     C_R   0.524561 0.567688 0.856111 -0.190182
C40   C     C_R   0.474289 0.437611 0.142849 -0.190738
C41   C     C_R   0.460361 0.508716 0.897252 0.124492
C42   C     C_R   0.540390 0.495716 0.102571 0.125606
C43   C     C_R   0.400498 0.452030 0.857088 0.123932
C44   C     C_R   0.602586 0.549130 0.143660 0.124540
C45   C     C_R   0.409983 0.452837 0.775801 -0.251806
C46   C     C_R   0.592618 0.547030 0.224928 -0.252627
C47   C     C_2   0.458663 0.505944 0.982403 -0.243403
C48   C     C_2   0.542039 0.500514 0.017409 -0.245042
Cu1   Cu    Cu3+1 0.402580 0.500010 0.500000 0.925728
Cu2   Cu    Cu3+1 0.597420 0.499990 0.500000 0.926326
H1    H     H_    0.249766 0.633390 0.464897 0.138359
H2    H     H_    0.746499 0.370046 0.542021 0.146550
H3    H     H_    0.246136 0.368767 0.539369 0.148470
H4    H     H_    0.755070 0.630700 0.459232 0.150554
H5    H     H_    0.637609 0.590115 0.257318 0.150252
H6    H     H_    0.366586 0.407672 0.744071 0.144228
H7    H     H_    0.611924 0.501708 0.983007 0.157752
H8    H     H_    0.388674 0.504757 0.016658 0.157570
H9    H     H_    0.430304 0.395218 0.109414 0.138348
H10   H     H_    0.567213 0.611942 0.888954 0.137655
H11   H     H_    0.648154 0.220374 0.532534 0.141384
H12   H     H_    0.354838 0.779510 0.458914 0.143326
H13   H     H_    0.355084 0.222821 0.459651 0.149186
H14   H     H_    0.647412 0.777603 0.533172 0.148797
H15   H     H_    0.273282 0.083405 0.434896 0.145472
H16   H     H_    0.731963 0.916827 0.551912 0.141409
H17   H     H_    0.273633 0.920697 0.433567 0.143354
H18   H     H_    0.732432 0.079585 0.551533 0.144036
N1    N     N_R   0.256180 0.500070 0.500030 -0.186361
N2    N     N_R   0.743820 0.499930 0.499970 -0.187442
O1    O     O_R   0.417720 0.629750 0.499980 -0.593531
O2    O     O_R   0.582280 0.370250 0.500020 -0.593822
O3    O     O_R   0.582260 0.629730 0.499990 -0.601843
O4    O     O_R   0.417740 0.370270 0.500010 -0.602209
O5    O     O_R   0.408190 0.500030 0.613590 -0.573216
O6    O     O_R   0.591810 0.499970 0.386410 -0.572773
O7    O     O_R   0.572730 0.500000 0.613600 -0.587651
O8    O     O_R   0.427270 0.500000 0.386400 -0.586394
C49   C     C_3   0.601151 0.635151 0.728952 -0.373444
C50   C     C_3   0.641043 0.711017 0.776578 -0.375197
C51   C     C_3   0.696845 0.778284 0.723550 -0.852505
H19   H     H_    0.757949 0.745141 0.688330 0.249531
H20   H     H_    0.647066 0.810256 0.683924 0.258263
H21   H     H_    0.727467 0.830696 0.759502 0.244229
H22   H     H_    0.579678 0.746073 0.809953 0.226941
H23   H     H_    0.691848 0.683667 0.817847 0.214523
H24   H     H_    0.664298 0.598035 0.700201 0.215997
H25   H     H_    0.559639 0.665890 0.682794 0.196897
C52   C     C_3   0.395674 0.369107 0.268847 -0.372983
C53   C     C_3   0.354170 0.295129 0.220015 -0.373549
C54   C     C_3   0.296962 0.227742 0.271956 -0.855989
H26   H     H_    0.346188 0.193672 0.310779 0.257553
H27   H     H_    0.236836 0.261250 0.307997 0.250134
H28   H     H_    0.264893 0.176980 0.235153 0.244468
H29   H     H_    0.303933 0.324407 0.179236 0.214098
H30   H     H_    0.414752 0.259680 0.186033 0.227632
H31   H     H_    0.436161 0.336537 0.314718 0.197251
H32   H     H_    0.333313 0.406986 0.297911 0.217381
C55   C     C_3   0.104199 0.252796 0.541242 -0.416681
C56   C     C_3   0.128582 0.231437 0.624783 -0.352521
C57   C     C_3   0.186791 0.145003 0.628027 -0.841362
H33   H     H_    0.145432 0.089066 0.604949 0.252279
H34   H     H_    0.258163 0.151500 0.593383 0.264723
H35   H     H_    0.200686 0.129922 0.689330 0.241430
H36   H     H_    0.172056 0.286133 0.647556 0.211711
H37   H     H_    0.060435 0.224954 0.663622 0.222514
H38   H     H_    0.063075 0.197826 0.516718 0.184564
H39   H     H_    0.172009 0.253209 0.501496 0.178389
C58   C     C_3   0.904796 0.729002 0.410223 -0.428574
C59   C     C_3   0.876529 0.698445 0.329822 -0.346818
C60   C     C_3   0.816397 0.769521 0.291604 -0.857102
H40   H     H_    0.746882 0.782117 0.327707 0.259136
H41   H     H_    0.858239 0.832379 0.284501 0.255398
H42   H     H_    0.798748 0.746595 0.233217 0.236725
H43   H     H_    0.944193 0.684926 0.291588 0.219015
H44   H     H_    0.833519 0.636249 0.333707 0.218064
H45   H     H_    0.840480 0.755542 0.446363 0.186726
H46   H     H_    0.953833 0.785887 0.397251 0.194915
C61   C     C_3   0.885860 0.264928 0.581289 -0.430473
C62   C     C_3   0.842547 0.285721 0.664500 -0.347077
C63   C     C_3   0.779171 0.209569 0.698111 -0.860300
H47   H     H_    0.715858 0.199680 0.662952 0.252199
H48   H     H_    0.822568 0.147069 0.698806 0.251823
H49   H     H_    0.751138 0.225613 0.758768 0.244895
H50   H     H_    0.902944 0.296675 0.702543 0.214796
H51   H     H_    0.797415 0.347181 0.665955 0.219335
H52   H     H_    0.828101 0.246196 0.543070 0.176142
H53   H     H_    0.929460 0.203594 0.585356 0.205633
C64   C     C_3   0.099455 0.747576 0.488548 -0.438426
C65   C     C_3   0.119233 0.752716 0.575213 -0.336467
C66   C     C_3   0.158664 0.843304 0.596302 -0.853769
H54   H     H_    0.231576 0.853981 0.565374 0.264666
H55   H     H_    0.108131 0.897349 0.580948 0.247164
H56   H     H_    0.166410 0.845831 0.659929 0.244666
H57   H     H_    0.049895 0.740724 0.611733 0.220707
H58   H     H_    0.172908 0.701209 0.590069 0.225320
H59   H     H_    0.167486 0.757974 0.450297 0.176268
H60   H     H_    0.051798 0.805018 0.478601 0.198101
C67   C     C_3   0.329662 0.387588 0.898968 -0.416623
C68   C     C_3   0.383431 0.306491 0.929394 -0.332919
C69   C     C_3   0.312866 0.244619 0.976025 -0.868440
H61   H     H_    0.277332 0.279814 0.027494 0.247872
H62   H     H_    0.255870 0.220644 0.939068 0.256613
H63   H     H_    0.353615 0.186365 0.996754 0.243230
H64   H     H_    0.419880 0.269347 0.879333 0.219969
H65   H     H_    0.440495 0.327546 0.967460 0.227124
H66   H     H_    0.286413 0.421910 0.947368 0.187227
H67   H     H_    0.275899 0.364037 0.858774 0.190878
C70   C     C_3   0.676721 0.611431 0.102937 -0.417728
C71   C     C_3   0.627278 0.695736 0.074239 -0.334735
C72   C     C_3   0.701460 0.756713 0.030456 -0.866640
H68   H     H_    0.758514 0.776800 0.068980 0.255864
H69   H     H_    0.736566 0.722403 0.978345 0.248787
H70   H     H_    0.663818 0.817369 0.010970 0.243568
H71   H     H_    0.570346 0.678413 0.034708 0.226572
H72   H     H_    0.591403 0.732143 0.124966 0.221086
H73   H     H_    0.731744 0.631100 0.143519 0.191069
H74   H     H_    0.718144 0.576750 0.053819 0.187334

loop_
_geom_bond_atom_site_label_1
_geom_bond_atom_site_label_2
_ccdc_geom_bond_type
C25   C31   A    
C38   C40   A    
C26   C32   A    
C57   H33   S    
C27   C29   A    
C60   H40   S    
C66   H56   S    
C49   H24   S    
C51   H19   S    
C58   H45   S    
C53   H29   S    
C39   C41   A    
C20   C30   A    
C55   H39   S    
C37   C49   S    
C38   C52   S    
C67   H66   S    
C56   H36   S    
C1    O1    A    
C13   C18   A    
C35   C37   A    
C69   H62   S    
C62   H51   S    
C18   H18   S    
C15   H15   S    
C4    H12   S    
Cu1   O8    S    
C15   C17   A    
C72   H70   S    
Cu2   O2    S    
C59   C60   S    
C63   H49   S    
C50   H23   S    
C70   C71   S    
C64   H60   S    
C47   C48   D    
C45   H6    S    
C46   H5    S    
C72   H68   S    
Cu1   O5    S    
C36   C46   A    
C31   C55   S    
C70   H74   S    
C3    C13   A    
C61   H53   S    
C40   C42   A    
C57   H34   S    
C40   H9    S    
Cu1   N1    S    
C4    C14   A    
C41   C43   A    
C14   C17   A    
C20   N2    A    
C42   C44   A    
C2    O2    A    
C49   H25   S    
C51   H20   S    
C44   C46   A    
C58   H46   S    
C3    H11   S    
C37   C39   A    
C67   H67   S    
C17   H17   S    
C32   C58   S    
C1    C6    S    
C48   H7    S    
C68   C69   S    
C34   C64   S    
C22   H4    S    
C69   H63   S    
C68   H65   S    
C54   H26   S    
C5    C7    A    
C62   H50   S    
C24   O6    A    
C6    C8    A    
C3    C5    A    
C29   C34   A    
C52   H31   S    
C32   C34   A    
C50   H22   S    
Cu2   O6    S    
C54   H27   S    
C9    C11   A    
C55   C56   S    
C61   C62   S    
C31   C33   A    
C41   C47   S    
C60   H41   S    
C16   C18   A    
C42   C48   S    
C23   O7    A    
C43   C67   S    
C43   C45   A    
C7    H13   S    
C63   H47   S    
C10   C12   A    
C8    H14   S    
C4    C6    A    
C65   H57   S    
C12   C14   A    
C33   C61   S    
C57   H35   S    
C23   C35   S    
C71   H71   S    
Cu1   O1    S    
Cu2   O3    S    
C2    C5    S    
C16   H16   S    
C66   H54   S    
C35   C45   A    
Cu2   O7    S    
C59   H44   S    
C51   H21   S    
C62   C63   S    
C64   C65   S    
C24   O8    A    
C7    C9    A    
C21   C25   A    
C30   C33   A    
C71   C72   S    
C26   C28   A    
C65   H58   S    
C23   O5    A    
C50   C51   S    
C66   H55   S    
C2    O4    A    
C68   H64   S    
C67   C68   S    
C53   H30   S    
C25   C27   A    
C55   H38   S    
C56   H37   S    
C44   C70   S    
C24   C36   S    
C52   H32   S    
C1    O3    A    
C28   C30   A    
C65   C66   S    
C9    C15   A    
C20   H2    S    
C10   C16   A    
C69   H61   S    
C54   H28   S    
C21   H3    S    
C11   C13   A    
C53   C54   S    
C39   H10   S    
C36   C38   A    
C56   C57   S    
C60   H42   S    
C72   H69   S    
Cu2   N2    S    
C63   H48   S    
C19   N1    A    
C49   C50   S    
C19   H1    S    
C64   H59   S    
C8    C10   A    
Cu1   Cu2   S    
C22   C26   A    
C21   N1    A    
C27   C28   A    
Cu1   O4    S    
C71   H72   S    
C52   C53   S    
C58   C59   S    
C70   H73   S    
C59   H43   S    
C22   N2    A    
C11   C12   A    
C61   H52   S    
C47   H8    S    
C19   C29   A    
