data_mof_unit_2501.cif
_audit_creation_date              2012-12-10T19:47:46-0500
_audit_creation_method            fapswitch 2.2
_symmetry_space_group_name_H-M    P1
_symmetry_Int_Tables_number       1
_space_group_crystal_system       triclinic
_cell_length_a                    18.340266
_cell_length_b                    18.320678
_cell_length_c                    18.441209
_cell_angle_alpha                 119.977768
_cell_angle_beta                  90.070013
_cell_angle_gamma                 119.966208
_cell_volume                      4382.5174045

loop_
_atom_site_label
_atom_site_type_symbol
_atom_type_description
_atom_site_fract_x
_atom_site_fract_y
_atom_site_fract_z
_atom_type_partial_charge
C1    C     C_R   0.639742 0.780126 0.641136 0.838105
C2    C     C_3   0.634513 0.417739 0.720134 0.236622
C3    C     C_3   0.697568 0.501692 0.702013 -0.329799
C4    C     C_3   0.798364 0.497958 0.800983 -0.351023
C5    C     C_3   0.822169 0.613873 0.852840 0.275651
C6    C     C_3   0.692765 0.415811 0.781811 -0.172755
C7    C     C_R   0.259042 0.052259 0.332893 0.081330
C8    C     C_R   0.315785 0.109502 0.304584 -0.203085
C9    C     C_R   0.324628 0.055231 0.220716 -0.182097
C10   C     C_R   0.263550 0.945256 0.163158 0.486798
C11   C     C_R   0.202840 0.891129 0.194576 -0.201450
C12   C     C_R   0.363380 0.220695 0.360397 0.860765
C13   C     C_R   0.205996 0.948697 0.281389 -0.011117
C14   C     C_3   0.167098 0.942105 0.351526 0.303458
C15   C     C_3   0.228309 0.063838 0.410625 0.271722
C16   C     C_R   0.778933 0.521484 0.327341 -0.028168
C17   C     C_R   0.695914 0.503098 0.304311 -0.235130
C18   C     C_R   0.668089 0.489937 0.223829 0.398814
C19   C     C_R   0.723208 0.494076 0.169973 0.433558
C20   C     C_R   0.804200 0.506841 0.194231 -0.229978
C21   C     C_R   0.829407 0.523099 0.273944 -0.112157
C22   C     C_3   0.902813 0.540359 0.330068 0.337548
C23   C     C_R   0.362292 0.502121 0.642265 0.874964
C24   C     C_3   0.846456 0.540500 0.394178 0.351093
C25   C     C_R   0.783097 0.947747 0.706291 0.042320
C26   C     C_R   0.695181 0.892230 0.703803 -0.139937
C27   C     C_R   0.666750 0.946910 0.769120 -0.151526
C28   C     C_R   0.724197 0.056058 0.826693 0.489954
C29   C     C_R   0.806072 0.109173 0.814971 -0.134877
C30   C     C_R   0.836941 0.053274 0.760417 -0.207416
C31   C     C_3   0.886278 0.063952 0.697724 0.390297
C32   C     C_3   0.824456 0.943830 0.634900 0.335199
C33   C     C_R   0.314404 0.585042 0.322300 -0.052153
C34   C     C_R   0.640151 0.499086 0.360267 0.864759
C35   C     C_R   0.299863 0.494789 0.303462 -0.232742
C36   C     C_R   0.227158 0.399493 0.227428 0.395201
C37   C     C_R   0.172710 0.399390 0.172576 0.385562
C38   C     C_R   0.191645 0.494612 0.194643 -0.212727
C39   C     C_R   0.262182 0.585033 0.270899 0.106830
C40   C     C_3   0.317792 0.701034 0.323028 -0.181365
C41   C     C_3   0.378546 0.700419 0.382753 -0.194630
C42   C     C_R   0.274754 0.561415 0.722035 -0.082068
C43   C     C_R   0.316165 0.511351 0.707580 -0.167674
C44   C     C_R   0.311366 0.471401 0.758361 -0.150590
C45   C     C_R   0.358272 0.498905 0.359388 0.956037
C46   C     C_R   0.257651 0.473599 0.813548 0.515908
C47   C     C_R   0.204216 0.508535 0.813320 -0.178795
C48   C     C_R   0.218233 0.556432 0.770369 -0.241846
C49   C     C_3   0.162943 0.564935 0.718313 0.402823
C50   C     C_3   0.230721 0.575845 0.666339 0.364925
C51   C     C_R   0.860071 0.502475 0.139265 0.863434
C52   C     C_R   0.140689 0.500717 0.860919 0.842678
C53   C     C_R   0.141335 0.779543 0.139557 0.911520
C54   C     C_R   0.860246 0.220220 0.861306 0.877112
C55   C     C_R   0.139620 0.498615 0.140317 0.951146
C56   C     C_R   0.640864 0.500772 0.642199 1.027990
C57   C     C_R   0.858173 0.499348 0.858594 0.781996
C58   C     C_3   0.754031 0.463628 0.646934 0.775479
C59   C     C_3   0.816012 0.460769 0.706147 0.306488
C60   C     C_3   0.754523 0.612653 0.795318 0.316521
H1    H     H_    0.596330 0.343536 0.653541 0.236195
O1    O     O_3   0.500000 0.500000 0.500000 -0.535622
O2    O     O_R   0.384470 0.439280 0.616070 -0.674164
O3    O     O_R   0.676800 0.560710 0.445190 -0.601319
O4    O     O_R   0.554810 0.731590 0.615530 -0.651145
O5    O     O_R   0.383920 0.268420 0.323210 -0.682549
O6    O     O_3   0.999960 0.499910 0.999960 -0.521383
O7    O     O_R   0.823160 0.439210 0.054770 -0.630878
O8    O     O_R   0.115490 0.560640 0.883890 -0.652574
O9    O     O_R   0.116030 0.731490 0.176740 -0.579339
O10   O     O_R   0.945140 0.268320 0.884430 -0.676721
O11   O     O_R   0.116800 0.560590 0.177500 -0.588685
O12   O     O_R   0.676800 0.731580 0.616070 -0.607973
O13   O     O_R   0.822390 0.439230 0.883130 -0.700514
O14   O     O_R   0.116800 0.439160 0.056060 -0.654329
O15   O     O_R   0.943840 0.560660 0.883130 -0.655821
O16   O     O_R   0.115490 0.731510 0.054770 -0.656249
O17   O     O_R   0.823160 0.268340 0.883890 -0.608662
O18   O     O_R   0.945140 0.560620 0.176740 -0.580615
O19   O     O_R   0.116030 0.439190 0.884430 -0.597371
O20   O     O_R   0.384470 0.268410 0.445190 -0.598510
O21   O     O_R   0.383920 0.560720 0.615530 -0.591645
O22   O     O_R   0.554810 0.439290 0.323210 -0.617005
O23   O     O_R   0.383160 0.560750 0.443890 -0.617234
O24   O     O_R   0.677560 0.560680 0.616830 -0.572200
O25   O     O_R   0.383160 0.439320 0.322450 -0.638883
O26   O     O_R   0.556120 0.439250 0.616830 -0.635808
Zn1   Zn    Zn3+2 0.457010 0.413240 0.543760 1.018524
Zn2   Zn    Zn3+2 0.456230 0.586760 0.542990 1.054450
Zn3   Zn    Zn3+2 0.456230 0.413270 0.369490 0.984707
Zn4   Zn    Zn3+2 0.630520 0.586730 0.543760 1.056526
Zn5   Zn    Zn3+2 0.042950 0.586670 0.956190 0.953163
Zn6   Zn    Zn3+2 0.043720 0.586650 0.130470 1.081150
Zn7   Zn    Zn3+2 0.043720 0.413150 0.956960 0.981244
Zn8   Zn    Zn3+2 0.869430 0.413180 0.956190 0.963842
O27   O     O_3   0.795906 0.514754 0.604384 -0.641688
C61   C     C_3   0.870906 0.618532 0.652538 -0.114014
H2    H     H_    0.902424 0.654827 0.721852 0.207194
H3    H     H_    0.852790 0.665074 0.646415 0.254576
H4    H     H_    0.923631 0.622349 0.622413 0.150902
C62   C     C_2   0.671060 0.437617 0.868400 0.337214
H5    H     H_    0.683738 0.408834 0.902414 0.142553
O28   O     O_2   0.638973 0.485848 0.902161 -0.562609
C63   C     C_2   0.688136 0.632341 0.838131 0.476043
H6    H     H_    0.671299 0.621526 0.889521 0.173336
O29   O     O_2   0.649090 0.656776 0.811474 -0.602054
C64   C     C_2   0.818452 0.652141 0.948317 0.328112
H7    H     H_    0.823132 0.616505 0.978651 0.066169
O30   O     O_2   0.819544 0.729123 0.995419 -0.617767
C65   C     C_2   0.402833 0.111790 0.198608 0.503252
H8    H     H_    0.459239 0.189633 0.249938 0.060579
O31   O     O_2   0.407402 0.072100 0.124068 -0.533528
O32   O     O_3   0.270765 0.890390 0.081416 -0.565744
C66   C     C_3   0.227260 0.890516 0.018056 -0.148637
H9    H     H_    0.217170 0.953430 0.046684 0.118024
H10   H     H_    0.161991 0.814987 0.974922 0.160397
H11   H     H_    0.267847 0.899361 0.974683 0.206405
C67   C     C_2   0.066862 0.890302 0.322764 0.539879
H12   H     H_    0.032358 0.892677 0.370696 0.049986
O33   O     O_2   0.023426 0.845322 0.246026 -0.608924
O34   O     O_3   0.192728 0.894097 0.376521 -0.580466
C68   C     C_3   0.182959 0.910575 0.458442 -0.224608
H13   H     H_    0.160577 0.839843 0.454184 0.232885
H14   H     H_    0.134357 0.929562 0.477892 0.115559
H15   H     H_    0.248739 0.971306 0.511988 0.155723
O35   O     O_3   0.182407 0.110572 0.422305 -0.622005
C69   C     C_3   0.152530 0.127414 0.496038 -0.303216
H16   H     H_    0.206213 0.202951 0.557253 0.210206
H17   H     H_    0.129410 0.065009 0.505468 0.124252
H18   H     H_    0.095241 0.131126 0.485500 0.198699
C70   C     C_2   0.305189 0.118830 0.492224 0.447041
H19   H     H_    0.295699 0.142614 0.556211 0.032952
O36   O     O_2   0.377208 0.133767 0.486993 -0.561755
O37   O     O_3   0.585206 0.466954 0.194080 -0.555798
C71   C     C_3   0.591174 0.559402 0.234820 -0.150573
H20   H     H_    0.613578 0.603321 0.308393 0.113028
H21   H     H_    0.523709 0.539586 0.212817 0.218310
H22   H     H_    0.635855 0.608650 0.214323 0.145133
O38   O     O_3   0.686380 0.358269 0.574647 -0.620998
C72   C     C_3   0.710365 0.316436 0.498904 -0.050114
H23   H     H_    0.777719 0.334177 0.516190 0.190820
H24   H     H_    0.704625 0.342764 0.457879 0.187402
H25   H     H_    0.662219 0.231238 0.457707 0.162597
O39   O     O_3   0.697580 0.488524 0.095830 -0.564738
C73   C     C_3   0.752352 0.587914 0.113864 -0.214093
H26   H     H_    0.814189 0.600702 0.098062 0.151053
H27   H     H_    0.770665 0.651754 0.183848 0.125894
H28   H     H_    0.715548 0.593148 0.071110 0.234213
O40   O     O_3   0.917007 0.460591 0.292463 -0.608849
C74   C     C_3   0.843365 0.361568 0.221427 -0.233544
H29   H     H_    0.838089 0.356759 0.159141 0.136437
H30   H     H_    0.779428 0.339751 0.235196 0.195683
H31   H     H_    0.855252 0.303800 0.210839 0.176180
C75   C     C_2   0.990425 0.643560 0.368923 0.415328
H32   H     H_    0.048225 0.663677 0.410592 0.087505
O41   O     O_2   0.996543 0.705940 0.356938 -0.580220
O42   O     O_3   0.810421 0.456190 0.400914 -0.615471
C76   C     C_3   0.878611 0.455897 0.437081 -0.240405
H33   H     H_    0.870975 0.458333 0.497056 0.229182
H34   H     H_    0.948265 0.521454 0.456250 0.136385
H35   H     H_    0.870757 0.382588 0.388620 0.193584
C77   C     C_2   0.888165 0.643282 0.483435 0.383515
H36   H     H_    0.948740 0.675236 0.530624 0.011667
O43   O     O_2   0.857258 0.693289 0.501818 -0.540698
C78   C     C_2   0.577589 0.893557 0.777549 0.507734
H37   H     H_    0.517480 0.836230 0.720016 0.146525
O44   O     O_2   0.570226 0.915045 0.850078 -0.557405
O45   O     O_3   0.695326 0.109778 0.887212 -0.555877
C79   C     C_3   0.738336 0.145199 0.972734 -0.184958
H38   H     H_    0.708842 0.179458 0.019529 0.188839
H39   H     H_    0.810887 0.206357 0.996813 0.102003
H40   H     H_    0.728340 0.081139 0.974707 0.176557
O46   O     O_3   0.869023 0.113989 0.668267 -0.578567
C80   C     C_3   0.909358 0.119312 0.604217 -0.186342
H41   H     H_    0.903170 0.047013 0.555121 0.178465
H42   H     H_    0.980794 0.185693 0.637442 0.161273
H43   H     H_    0.875895 0.132881 0.567039 0.157530
C81   C     C_2   0.984854 0.116457 0.740804 0.318130
H44   H     H_    0.014228 0.163472 0.812455 0.102765
O47   O     O_2   0.032555 0.107799 0.695699 -0.594996
O48   O     O_3   0.762676 0.909086 0.558704 -0.575048
C82   C     C_3   0.736105 0.813253 0.481512 -0.303095
H45   H     H_    0.791262 0.821676 0.453709 0.148036
H46   H     H_    0.679771 0.787089 0.430721 0.211538
H47   H     H_    0.712316 0.752972 0.493736 0.190082
O49   O     O_3   0.785111 0.354532 0.660026 -0.573811
C83   C     C_3   0.842548 0.332515 0.682143 -0.153873
H48   H     H_    0.906261 0.399508 0.737374 0.127124
H49   H     H_    0.858756 0.294158 0.622489 0.174329
H50   H     H_    0.806454 0.277161 0.699708 0.171972
C84   C     C_2   0.874942 0.894721 0.620090 0.370065
H51   H     H_    0.913910 0.895725 0.575935 0.114360
O50   O     O_2   0.874182 0.856550 0.658926 -0.536350
O51   O     O_3   0.202834 0.307277 0.212873 -0.580931
C85   C     C_3   0.240658 0.264493 0.152698 -0.172421
H52   H     H_    0.274418 0.244285 0.181648 0.204569
H53   H     H_    0.290670 0.316073 0.136246 0.132716
H54   H     H_    0.186653 0.191470 0.090473 0.152327
O52   O     O_3   0.095282 0.307047 0.105134 -0.587175
C86   C     C_3   0.113408 0.262937 0.025535 -0.204482
H55   H     H_    0.074704 0.256899 0.974194 0.196052
H56   H     H_    0.088920 0.183005 0.000754 0.161900
H57   H     H_    0.185175 0.305790 0.031011 0.129490
C87   C     C_2   0.361213 0.741643 0.269753 0.384341
H58   H     H_    0.413639 0.823273 0.304099 0.063820
O53   O     O_2   0.338231 0.684784 0.188942 -0.590698
C88   C     C_2   0.269778 0.748317 0.369755 0.395411
H59   H     H_    0.305475 0.831644 0.411159 0.092021
O54   O     O_2   0.192173 0.694812 0.363273 -0.555628
C89   C     C_2   0.472305 0.740282 0.378200 0.505162
H60   H     H_    0.519840 0.821964 0.407685 0.078665
O55   O     O_2   0.495650 0.682592 0.342550 -0.634859
C90   C     C_2   0.376409 0.741093 0.476704 0.452404
H61   H     H_    0.312814 0.710143 0.487771 0.119364
O56   O     O_2   0.445125 0.808205 0.540760 -0.541682
C91   C     C_2   0.360612 0.426590 0.755157 0.442829
H62   H     H_    0.428604 0.462845 0.754611 0.118306
O57   O     O_2   0.325041 0.348191 0.752751 -0.557113
O58   O     O_3   0.254078 0.436116 0.863641 -0.551166
C92   C     C_3   0.318507 0.519248 0.948811 -0.160446
H63   H     H_    0.305218 0.579169 0.983430 0.153166
H64   H     H_    0.387233 0.554234 0.945263 0.144135
H65   H     H_    0.314987 0.489609 0.989409 0.200000
O59   O     O_3   0.072836 0.477505 0.663996 -0.537819
C93   C     C_3   0.054244 0.380407 0.634559 -0.216523
H66   H     H_    0.036069 0.364193 0.684618 0.125204
H67   H     H_    0.109208 0.372592 0.618021 0.191309
H68   H     H_    0.995270 0.320069 0.572984 0.164550
C94   C     C_2   0.913304 0.521629 0.710274 0.416343
H69   H     H_    0.967578 0.589633 0.771007 0.168525
O60   O     O_2   0.932299 0.491647 0.642549 -0.553929
C95   C     C_2   0.165472 0.660684 0.776802 0.321776
H70   H     H_    0.196239 0.707852 0.848296 0.076910
O61   O     O_2   0.133557 0.686457 0.744073 -0.575972
O62   O     O_3   0.194979 0.492651 0.575128 -0.589760
C96   C     C_3   0.141660 0.496566 0.523438 -0.106734
H71   H     H_    0.117387 0.544385 0.562215 0.180941
H72   H     H_    0.082169 0.416954 0.473633 0.163009
H73   H     H_    0.179860 0.526316 0.486793 0.177164
C97   C     C_2   0.296729 0.681994 0.686303 0.384626
H74   H     H_    0.325195 0.750698 0.753626 0.051938
O63   O     O_2   0.321077 0.691649 0.628237 -0.537952
O64   O     O_3   0.802323 0.687699 0.776783 -0.593133
C98   C     C_3   0.842592 0.792277 0.848116 -0.109324
H75   H     H_    0.840657 0.805921 0.913421 0.170006
H76   H     H_    0.913395 0.838637 0.853559 0.160735
H77   H     H_    0.808639 0.821273 0.832706 0.187682
O65   O     O_3   0.910210 0.678958 0.854941 -0.646282
C99   C     C_3   0.977810 0.766038 0.938146 -0.222615
H78   H     H_    0.990955 0.743752 0.979930 0.190907
H79   H     H_    0.962636 0.823570 0.974433 0.188917
H80   H     H_    0.040012 0.805099 0.925272 0.152374
O66   O     O_3   0.568905 0.431103 0.753211 -0.599490
C100  C     C_3   0.490602 0.336583 0.729391 -0.112187
H81   H     H_    0.461189 0.352756 0.783014 0.222778
H82   H     H_    0.502608 0.279854 0.722042 0.153263
H83   H     H_    0.441978 0.301877 0.666852 0.184660
C101  C     C_2   0.665502 0.304131 0.735972 0.459681
H84   H     H_    0.689777 0.284154 0.771837 0.107684
O67   O     O_2   0.614760 0.233552 0.659680 -0.531779

loop_
_geom_bond_atom_site_label_1
_geom_bond_atom_site_label_2
_ccdc_geom_bond_type
C58   O38   S    
C8    C9    A    
C71   H22   S    
O6    Zn8   S    
O26   Zn1   S    
O1    Zn2   S    
O16   Zn5   S    
C40   C41   S    
C16   C21   A    
C23   O21   A    
C65   O31   D    
O2    Zn1   S    
C79   H39   S    
C79   H38   S    
C53   O16   A    
C35   C36   A    
C42   C50   S    
C72   H25   S    
O59   C93   S    
C61   H4    S    
C63   O29   D    
C61   H2    S    
O24   Zn4   S    
C71   H20   S    
O5    Zn3   S    
O10   Zn7   S    
C2    C6    S    
C90   H61   S    
C96   H71   S    
O4    Zn2   S    
C99   H78   S    
C33   C39   A    
O21   Zn2   S    
C57   O15   A    
C28   C29   A    
C37   C38   A    
C72   H24   S    
O18   Zn6   S    
C20   C51   S    
C86   H57   S    
C73   H26   S    
O66   C100  S    
C29   C54   S    
O64   C98   S    
C19   O39   S    
C9    C65   S    
C93   H68   S    
C23   C43   S    
C98   H75   S    
C59   O49   S    
C17   C18   A    
C18   C19   A    
C6    C62   S    
C58   O27   S    
C80   H41   S    
C63   H6    S    
C83   H50   S    
C100  H82   S    
C52   O8    A    
C76   H35   S    
C73   H27   S    
C82   H45   S    
O42   C76   S    
C54   O10   A    
C40   C87   S    
C42   C43   A    
C98   H76   S    
C86   H55   S    
C14   C67   S    
C15   O35   S    
C4    C57   S    
O6    Zn7   S    
C1    O4    A    
O62   C96   S    
C76   H33   S    
C69   H16   S    
C18   O37   S    
O8    Zn5   S    
C9    C10   A    
C75   O41   D    
C55   O11   A    
C11   C53   S    
C2    H1    S    
C85   H54   S    
C55   O14   A    
C3    C60   S    
C25   C32   S    
C23   O2    A    
O51   C85   S    
C22   O40   S    
O52   C86   S    
C16   C24   S    
C14   O34   S    
O46   C80   S    
C13   C14   S    
C67   H12   S    
C76   H34   S    
C64   O30   D    
C78   O44   D    
C53   O9    A    
C92   H64   S    
C92   H63   S    
C61   H3    S    
C44   C46   A    
C81   H44   S    
C51   O18   A    
C68   H13   S    
C90   O56   D    
C93   H67   S    
C99   H79   S    
O7    Zn8   S    
C83   H49   S    
C38   C55   S    
C31   C81   S    
C88   H59   S    
O20   Zn1   S    
C62   H5    S    
C32   O48   S    
C7    C8    A    
O9    Zn6   S    
C72   H23   S    
O12   Zn4   S    
C4    C6    S    
C34   O22   A    
O25   Zn3   S    
O58   C92   S    
C24   O42   S    
C16   C17   A    
C56   O26   A    
C100  H83   S    
C25   C26   A    
O48   C82   S    
C12   O5    A    
C74   H31   S    
C84   H51   S    
C32   C84   S    
C82   H47   S    
C57   O13   A    
C101  O67   D    
C43   C44   A    
C69   H17   S    
O27   C61   S    
C94   H69   S    
C41   C90   S    
C3    C56   S    
C81   O47   D    
C47   C48   A    
C7    C13   A    
O17   Zn8   S    
C8    C12   S    
O1    Zn4   S    
C20   C21   A    
C34   O3    A    
C97   O63   D    
O34   C68   S    
C65   H8    S    
C42   C48   A    
C91   H62   S    
C80   H43   S    
C5    C64   S    
C75   H32   S    
C47   C52   S    
C10   O32   S    
C27   C78   S    
C41   C89   S    
C86   H56   S    
O45   C79   S    
O15   Zn5   S    
C49   C50   S    
C89   O55   D    
C49   O59   S    
C26   C27   A    
C1    C26   S    
C79   H40   S    
C74   H30   S    
C45   O23   A    
C17   C34   S    
O11   Zn6   S    
C64   H7    S    
O19   Zn7   S    
C70   H19   S    
C59   C94   S    
C2    O66   S    
C39   C40   S    
C73   H28   S    
O6    Zn5   S    
O65   C99   S    
O6    Zn6   S    
O32   C66   S    
C22   C75   S    
C25   C30   A    
C71   H21   S    
O22   Zn3   S    
C46   C47   A    
C36   C37   A    
C60   O64   S    
C46   O58   S    
C82   H46   S    
C93   H66   S    
C95   O61   D    
C44   C91   S    
C52   O19   A    
O13   Zn8   S    
C31   C32   S    
C24   C77   S    
C87   O53   D    
O39   C73   S    
C70   O36   D    
C66   H10   S    
O38   C72   S    
C98   H77   S    
C66   H9    S    
O37   C71   S    
C99   H80   S    
C77   H36   S    
C19   C20   A    
C36   O51   S    
C96   H73   S    
C6    C101  S    
C37   O52   S    
C1    O12   A    
C100  H81   S    
C50   C97   S    
C2    C3    S    
C58   C59   S    
C69   H18   S    
C33   C41   S    
C83   H48   S    
C94   O60   D    
C77   O43   D    
C60   C63   S    
O40   C74   S    
C84   O50   D    
C11   C13   A    
C30   C31   S    
C31   O46   S    
C56   O24   A    
C38   C39   A    
O1    Zn1   S    
C68   H15   S    
O35   C69   S    
C48   C49   S    
O1    Zn3   S    
C4    C59   S    
C7    C15   S    
C97   H74   S    
C33   C35   A    
C80   H42   S    
C96   H72   S    
C12   O20   A    
C45   O25   A    
C22   C24   S    
C51   O7    A    
C5    C60   S    
C50   O62   S    
C67   O33   D    
C40   C88   S    
C66   H11   S    
C10   C11   A    
C28   O45   S    
C29   C30   A    
C85   H52   S    
C3    C58   S    
C78   H37   S    
C4    C5    S    
C15   C70   S    
C87   H58   S    
C62   O28   D    
C89   H60   S    
O23   Zn2   S    
C101  H84   S    
C27   C28   A    
C88   O54   D    
C14   C15   S    
C5    O65   S    
O3    Zn4   S    
C85   H53   S    
O49   C83   S    
C21   C22   S    
C49   C95   S    
C68   H14   S    
C92   H65   S    
C91   O57   D    
O14   Zn7   S    
C95   H70   S    
C74   H29   S    
C54   O17   A    
C35   C45   S    
