data_mof_unit_1912.cif
_audit_creation_date              2012-12-10T18:58:15-0500
_audit_creation_method            fapswitch 2.2
_symmetry_space_group_name_H-M    P1
_symmetry_Int_Tables_number       1
_space_group_crystal_system       triclinic
_cell_length_a                    11.020871
_cell_length_b                    10.858343
_cell_length_c                    9.587792
_cell_angle_alpha                 90.401106
_cell_angle_beta                  102.048461
_cell_angle_gamma                 90.300349
_cell_volume                      1122.02720674

loop_
_atom_site_label
_atom_site_type_symbol
_atom_type_description
_atom_site_fract_x
_atom_site_fract_y
_atom_site_fract_z
_atom_type_partial_charge
C1    C     C_R   0.503530 0.262676 0.499888 0.828260
C2    C     C_R   0.393530 0.518292 0.048615 0.007965
C3    C     C_R   0.393554 0.518162 0.900567 -0.034526
C4    C     C_R   0.262897 0.497244 0.442733 0.875319
C5    C     C_R   0.605128 0.474228 0.950657 0.256353
C6    C     C_3   0.724764 0.542554 0.969158 -0.536216
C7    C     C_3   0.725949 0.546422 0.127434 -0.294771
C8    C     C_R   0.501320 0.737391 0.500760 0.875305
C9    C     C_R   0.736967 0.498558 0.557941 0.871971
C10   C     C_2   0.128180 0.484848 0.412965 -0.298897
C11   C     C_2   0.068659 0.483229 0.521032 -0.110906
C12   C     C_R   0.501901 0.129413 0.495855 -0.156823
C13   C     C_2   0.871836 0.499982 0.592130 -0.300760
C14   C     C_2   0.935126 0.465945 0.494518 -0.110147
C15   C     C_R   0.455732 0.065323 0.599617 0.036113
C16   C     C_2   0.717150 0.674530 0.185339 0.942111
C17   C     C_2   0.403219 0.871487 0.835046 0.889060
C18   C     C_2   0.629430 0.902570 0.828971 0.856585
C19   C     C_2   0.376036 0.136219 0.812022 0.930460
C20   C     C_R   0.540550 0.061695 0.386015 0.189803
C21   C     C_R   0.534995 0.933542 0.386667 -0.187100
C22   C     C_R   0.500817 0.870655 0.499863 -0.105680
C23   C     C_R   0.461228 0.938857 0.605681 0.041510
C24   C     C_3   0.496303 0.938921 0.766774 -0.163637
C25   C     C_3   0.483526 0.080511 0.758534 -0.302396
C26   C     C_R   0.605676 0.475396 0.098014 0.230519
Cu1   Cu    Cu3+1 0.499990 0.499980 0.640670 0.993074
Cu2   Cu    Cu3+1 0.500010 0.500020 0.359330 1.011445
H1    H     H_    0.888007 0.426879 0.393708 0.166902
H2    H     H_    0.077751 0.474063 0.303271 0.145235
H3    H     H_    0.565448 0.883416 0.302938 0.233951
H4    H     H_    0.791096 0.803016 0.331765 0.334191
H5    H     H_    0.249595 0.764705 0.808918 0.319457
H6    H     H_    0.773833 0.913879 0.997008 0.341079
H7    H     H_    0.206214 0.213303 0.765592 0.324761
H8    H     H_    0.571622 0.132516 0.797462 0.161264
H9    H     H_    0.307413 0.535268 0.082024 0.135006
H10   H     H_    0.307496 0.534801 0.826021 0.130875
H11   H     H_    0.799500 0.484120 0.942657 0.191670
H12   H     H_    0.714625 0.633454 0.915482 0.249392
H13   H     H_    0.804061 0.492792 0.187626 0.144180
H14   H     H_    0.118097 0.497826 0.630523 0.164236
H15   H     H_    0.919596 0.532866 0.696714 0.142622
I1    I     I_    0.629003 0.138318 0.228540 -0.255895
N1    N     N_R   0.500780 0.500930 0.148120 -0.185137
N2    N     N_R   0.500790 0.500890 0.852210 -0.186293
O1    O     O_R   0.500000 0.319640 0.618810 -0.585752
O2    O     O_R   0.806547 0.715660 0.302110 -0.754423
O3    O     O_2   0.412893 0.876436 0.964386 -0.513420
O4    O     O_R   0.306061 0.804141 0.750716 -0.756798
O5    O     O_2   0.689573 0.842307 0.759444 -0.619293
O6    O     O_R   0.684659 0.941909 0.966714 -0.687482
O7    O     O_2   0.383381 0.148987 0.940232 -0.546129
O8    O     O_R   0.270108 0.175874 0.715939 -0.746467
O9    O     O_R   0.500010 0.319680 0.381230 -0.552116
O10   O     O_R   0.320680 0.500000 0.575130 -0.579437
O11   O     O_R   0.320690 0.500040 0.337550 -0.596027
O12   O     O_R   0.499990 0.680320 0.618770 -0.547760
O13   O     O_R   0.500000 0.680360 0.381190 -0.574557
O14   O     O_R   0.679310 0.499960 0.662450 -0.590013
O15   O     O_R   0.679320 0.500000 0.424870 -0.583697
O16   O     O_2   0.632557 0.742051 0.130238 -0.558119

loop_
_geom_bond_atom_site_label_1
_geom_bond_atom_site_label_2
_ccdc_geom_bond_type
C4    O11   A    
C17   O4    S    
C8    C22   S    
C23   C24   S    
C6    C7    S    
Cu1   O10   S    
H4    O2    S    
C5    N2    A    
C10   H2    S    
C3    N2    A    
H6    O6    S    
Cu1   O1    S    
C12   C15   A    
C9    O14   A    
Cu2   O15   S    
C16   O2    S    
C15   C23   A    
C2    C3    A    
C1    O9    A    
C4    O10   A    
C18   O6    S    
C8    O13   A    
C13   C14   D    
C24   C25   S    
H7    O8    S    
C21   H3    S    
C2    H9    S    
C19   O7    D    
C7    C26   S    
C16   O16   D    
C12   C20   A    
C9    O15   A    
C19   O8    S    
C21   C22   A    
C7    C16   S    
C20   I1    S    
Cu2   O9    S    
C18   O5    D    
C6    H12   S    
Cu1   O14   S    
C7    H13   S    
C2    N1    A    
C5    C6    S    
C19   C25   S    
C11   C14   S    
C18   C24   S    
Cu2   N1    S    
C15   C25   S    
C17   C24   S    
C10   C11   D    
C14   H1    S    
C4    C10   S    
C5    C26   A    
C13   H15   S    
C20   C21   A    
Cu1   N2    S    
C11   H14   S    
Cu2   O13   S    
C17   O3    D    
Cu1   Cu2   S    
C9    C13   S    
C6    H11   S    
C1    O1    A    
C25   H8    S    
C26   N1    A    
C8    O12   A    
H5    O4    S    
Cu2   O11   S    
C22   C23   A    
C1    C12   S    
C3    H10   S    
Cu1   O12   S    
