data_mof_unit_4065.cif
_audit_creation_date              2012-12-10T20:57:51-0500
_audit_creation_method            fapswitch 2.2
_symmetry_space_group_name_H-M    P1
_symmetry_Int_Tables_number       1
_space_group_crystal_system       triclinic
_cell_length_a                    18.215465
_cell_length_b                    18.215124
_cell_length_c                    18.449724
_cell_angle_alpha                 120.168622
_cell_angle_beta                  90.169123
_cell_angle_gamma                 119.834115
_cell_volume                      4321.95060247

loop_
_atom_site_label
_atom_site_type_symbol
_atom_type_description
_atom_site_fract_x
_atom_site_fract_y
_atom_site_fract_z
_atom_type_partial_charge
C1    C     C_R   0.358987 0.220356 0.360813 0.796991
C2    C     C_3   0.800047 0.941142 0.716873 -0.386705
C3    C     C_3   0.698848 0.897453 0.698699 0.193541
C4    C     C_R   0.640958 0.780964 0.639830 0.735741
C5    C     C_3   0.799578 0.102468 0.802788 0.201330
C6    C     C_3   0.741509 0.058299 0.850338 -0.393254
C7    C     C_3   0.858837 0.060745 0.777813 -0.387078
C8    C     C_3   0.679012 0.392544 0.241517 -0.456766
C9    C     C_3   0.737174 0.390580 0.180555 -0.467723
C10   C     C_3   0.680826 0.532961 0.243844 -0.453078
C11   C     C_3   0.801150 0.580918 0.362362 -0.082913
C12   C     C_3   0.288662 0.592135 0.360913 -0.134626
C13   C     C_3   0.699465 0.502798 0.303292 0.158814
C14   C     C_3   0.800869 0.500675 0.201698 0.126550
C15   C     C_3   0.739928 0.530869 0.183252 -0.085021
C16   C     C_R   0.360314 0.501761 0.641640 0.810764
C17   C     C_3   0.861016 0.578935 0.302850 -0.181862
C18   C     C_R   0.176343 0.154843 0.540640 0.152997
C19   C     C_R   0.200291 0.102725 0.469689 -0.141746
C20   C     C_R   0.199095 0.111277 0.398288 0.111645
C21   C     C_R   0.174632 0.173327 0.398585 -0.148349
C22   C     C_R   0.150869 0.225374 0.469179 -0.172542
C23   C     C_3   0.300989 0.502604 0.303225 0.084652
C24   C     C_R   0.151055 0.215552 0.539583 -0.109600
C25   C     C_R   0.169301 0.945430 0.268057 -0.062002
C26   C     C_R   0.194037 0.892195 0.197983 -0.081014
C27   C     C_R   0.271962 0.946947 0.181821 -0.003268
C28   C     C_R   0.640900 0.501061 0.359653 0.780206
C29   C     C_R   0.322906 0.054796 0.234400 -0.251109
C30   C     C_R   0.299989 0.108106 0.304971 -0.049194
C31   C     C_R   0.223419 0.054382 0.323068 -0.044323
C32   C     C_R   0.328805 0.833229 0.114771 0.034379
C33   C     C_R   0.355197 0.782195 0.046066 -0.172520
C34   C     C_3   0.198254 0.501047 0.200818 0.140264
C35   C     C_R   0.357726 0.792107 0.975685 -0.128002
C36   C     C_R   0.334086 0.853162 0.973384 -0.158096
C37   C     C_R   0.306695 0.903506 0.040926 -0.147523
C38   C     C_R   0.302944 0.893571 0.111854 0.093578
C39   C     C_R   0.899726 0.560888 0.535358 -0.144121
C40   C     C_R   0.641858 0.499567 0.639482 0.792701
C41   C     C_R   0.847518 0.519141 0.577181 -0.181402
C42   C     C_R   0.835491 0.581785 0.653512 0.151753
C43   C     C_R   0.876097 0.686534 0.687449 -0.079846
C44   C     C_R   0.927507 0.727724 0.644840 -0.136823
C45   C     C_3   0.146678 0.395274 0.188356 -0.434258
C46   C     C_R   0.939990 0.665186 0.569344 -0.108033
C47   C     C_R   0.838498 0.538959 0.758520 -0.256112
C48   C     C_R   0.799188 0.498133 0.805756 -0.050256
C49   C     C_R   0.707807 0.456933 0.797379 -0.005765
C50   C     C_R   0.658679 0.459714 0.742910 -0.252678
C51   C     C_R   0.698105 0.500723 0.695718 -0.050161
C52   C     C_R   0.359139 0.501488 0.359710 0.763081
C53   C     C_R   0.789124 0.540708 0.703302 -0.017030
C54   C     C_R   0.627995 0.308923 0.811421 -0.124101
C55   C     C_R   0.583056 0.266095 0.855862 0.082683
C56   C     C_3   0.226037 0.588245 0.300512 -0.398244
C57   C     C_R   0.568542 0.325023 0.931940 -0.164047
C58   C     C_R   0.599385 0.426586 0.963725 -0.162034
C59   C     C_R   0.645775 0.470135 0.920506 -0.162283
C60   C     C_R   0.660919 0.411801 0.844543 0.125563
C61   C     C_R   0.395324 0.800445 0.717832 -0.142713
C62   C     C_R   0.373255 0.729533 0.738405 -0.131190
C63   C     C_R   0.289502 0.632321 0.690187 0.171693
C64   C     C_3   0.343587 0.518080 0.234773 -0.414112
C65   C     C_R   0.227483 0.607864 0.622329 -0.154220
C66   C     C_R   0.249028 0.680221 0.603356 0.050195
C67   C     C_3   0.676631 0.940562 0.654347 -0.377026
C68   C     C_R   0.333360 0.776037 0.650540 -0.138636
C69   C     C_R   0.204707 0.549635 0.761450 0.035440
C70   C     C_R   0.191581 0.496260 0.801231 -0.104454
C71   C     C_R   0.234321 0.445019 0.786447 -0.031803
C72   C     C_R   0.289756 0.449895 0.735260 -0.272152
C73   C     C_R   0.305145 0.505128 0.698854 -0.105220
C74   C     C_R   0.265306 0.559216 0.715129 -0.012996
C75   C     C_R   0.295188 0.422435 0.889596 -0.218214
C76   C     C_3   0.284814 0.521079 0.177103 -0.391021
C77   C     C_R   0.286247 0.363532 0.920962 0.075542
C78   C     C_3   0.736041 0.060974 0.715332 -0.395042
C79   C     C_R   0.205158 0.266570 0.885011 -0.168709
C80   C     C_R   0.133714 0.227897 0.817011 -0.135898
C81   C     C_R   0.142916 0.285892 0.784782 -0.070367
C82   C     C_R   0.223302 0.384303 0.821870 0.130632
C83   C     C_R   0.857242 0.499325 0.142942 0.802603
C84   C     C_R   0.137225 0.498408 0.860021 0.797216
C85   C     C_R   0.856933 0.219022 0.862029 0.731426
C86   C     C_R   0.137870 0.779591 0.141425 0.805970
C87   C     C_R   0.855810 0.500155 0.862516 0.799592
C88   C     C_3   0.206430 0.395794 0.249150 -0.148985
C89   C     C_3   0.682778 0.937909 0.789431 -0.395568
C90   C     C_R   0.140074 0.500282 0.142863 0.773021
C91   C     C_1   0.161073 0.370726 0.307769 0.131245
C92   C     C_1   0.919055 0.552345 0.323766 0.151568
C93   C     C_1   0.086141 0.888554 0.280952 0.183366
C94   C     C_1   0.330625 0.824304 0.188129 0.100590
C95   C     C_1   0.552483 0.162028 0.823685 0.117095
C96   C     C_1   0.183598 0.657670 0.537552 0.112136
C97   C     C_1   0.360560 0.402160 0.989443 0.103301
C98   C     C_1   0.375175 0.696363 0.414221 0.192131
H1    H     H_    0.349823 0.453235 0.190647 0.198629
H2    H     H_    0.818402 0.912012 0.749116 0.172646
H3    H     H_    0.412674 0.591140 0.269419 0.173906
H4    H     H_    0.814007 0.914113 0.652978 0.175951
H5    H     H_    0.901159 0.090834 0.743111 0.167605
H6    H     H_    0.905004 0.088470 0.839135 0.173564
H7    H     H_    0.699147 0.908810 0.822972 0.150475
H8    H     H_    0.785663 0.087102 0.913449 0.150133
H9    H     H_    0.606716 0.334206 0.199390 0.196624
H10   H     H_    0.692493 0.369098 0.282412 0.163400
H11   H     H_    0.776300 0.362754 0.189634 0.177629
H12   H     H_    0.164877 0.573179 0.319817 0.196955
H13   H     H_    0.692444 0.333625 0.109667 0.187673
H14   H     H_    0.608753 0.476474 0.200961 0.178169
H15   H     H_    0.323831 0.598112 0.187944 0.173120
H16   H     H_    0.693808 0.468839 0.113127 0.178033
H17   H     H_    0.810553 0.554006 0.401867 0.167355
H18   H     H_    0.907398 0.657796 0.318431 0.156925
H19   H     H_    0.692010 0.610085 0.285316 0.162392
H20   H     H_    0.131378 0.255086 0.593301 0.135373
H21   H     H_    0.220054 0.055694 0.469932 0.125849
H22   H     H_    0.266911 0.461124 0.105557 0.193414
H23   H     H_    0.082906 0.378905 0.202537 0.167327
H24   H     H_    0.173579 0.180872 0.344045 0.125500
H25   H     H_    0.131889 0.273027 0.469178 0.148840
H26   H     H_    0.383030 0.097720 0.222649 0.151594
H27   H     H_    0.374391 0.735105 0.047187 0.126024
H28   H     H_    0.378252 0.752533 0.922991 0.131435
H29   H     H_    0.336256 0.860750 0.918739 0.143253
H30   H     H_    0.287561 0.949600 0.037579 0.135892
H31   H     H_    0.980880 0.697482 0.537159 0.137907
H32   H     H_    0.215263 0.332936 0.205887 0.143408
H33   H     H_    0.909512 0.512552 0.477020 0.153485
H34   H     H_    0.604551 0.911370 0.641113 0.195700
H35   H     H_    0.817968 0.438750 0.551275 0.127369
H36   H     H_    0.868651 0.736215 0.747211 0.111944
H37   H     H_    0.958664 0.808444 0.671030 0.120168
H38   H     H_    0.908226 0.568867 0.763619 0.172849
H39   H     H_    0.588907 0.429559 0.737680 0.173504
H40   H     H_    0.638748 0.263245 0.752129 0.120314
H41   H     H_    0.533714 0.292677 0.966780 0.131587
H42   H     H_    0.588123 0.472014 0.022487 0.151748
H43   H     H_    0.127324 0.331778 0.117619 0.168915
H44   H     H_    0.669796 0.549084 0.946047 0.128579
H45   H     H_    0.687833 0.912758 0.589106 0.155858
H46   H     H_    0.350742 0.832273 0.636050 0.147289
H47   H     H_    0.460084 0.874895 0.754806 0.145552
H48   H     H_    0.421460 0.749962 0.791504 0.103733
H49   H     H_    0.162177 0.533692 0.585863 0.134772
H50   H     H_    0.321103 0.409400 0.723607 0.177725
H51   H     H_    0.357919 0.497507 0.917370 0.130807
H52   H     H_    0.257032 0.580816 0.409103 0.157678
H53   H     H_    0.197437 0.220636 0.909078 0.127942
H54   H     H_    0.071392 0.152564 0.788803 0.124783
H55   H     H_    0.087444 0.254643 0.731406 0.111749
H56   H     H_    0.776274 0.091181 0.679662 0.150633
H57   H     H_    0.258620 0.664341 0.309873 0.193604
H58   H     H_    0.891422 0.732460 0.470618 0.179996
H59   H     H_    0.828173 0.721191 0.394477 0.176571
H60   H     H_    0.747434 0.637738 0.167129 0.185161
H61   H     H_    0.827481 0.691814 0.258255 0.197254
H62   H     H_    0.232817 0.217582 0.668378 0.189003
H63   H     H_    0.187654 0.090204 0.600363 0.179790
H64   H     H_    0.179494 0.659877 0.829891 0.236250
H65   H     H_    0.087555 0.538318 0.743373 0.197912
H66   H     H_    0.692188 0.088941 0.730631 0.190058
H67   H     H_    0.610737 0.907925 0.778825 0.173371
H68   H     H_    0.697357 0.085673 0.868045 0.186191
N1    N     N_1   0.125746 0.351288 0.353798 -0.232198
N2    N     N_3   0.156724 0.594169 0.765525 -0.461889
N3    N     N_1   0.420249 0.433201 0.044530 -0.244890
N4    N     N_1   0.442794 0.777825 0.456028 -0.224298
N5    N     N_3   0.826324 0.687089 0.426617 -0.436229
N6    N     N_1   0.964117 0.530922 0.339300 -0.206948
N7    N     N_3   0.792249 0.628917 0.191442 -0.463806
N8    N     N_3   0.177205 0.146673 0.613912 -0.474634
N9    N     N_1   0.019957 0.843305 0.291280 -0.222473
N10   N     N_1   0.332019 0.816984 0.246826 -0.205017
N11   N     N_1   0.528064 0.078420 0.797807 -0.247495
N12   N     N_1   0.130992 0.639878 0.484864 -0.204246
O1    O     O_3   0.500000 0.500000 0.500000 -0.479311
O2    O     O_R   0.113800 0.731630 0.056520 -0.637678
O3    O     O_R   0.819390 0.439310 0.886160 -0.640523
O4    O     O_R   0.383400 0.268380 0.323710 -0.647600
O5    O     O_R   0.115110 0.560720 0.179280 -0.638159
O6    O     O_R   0.941380 0.560750 0.885620 -0.653748
O7    O     O_R   0.115110 0.439270 0.057830 -0.645227
O8    O     O_R   0.942690 0.268390 0.886930 -0.651583
O9    O     O_R   0.114340 0.731630 0.178520 -0.625591
O10   O     O_R   0.820160 0.439310 0.057830 -0.645706
O11   O     O_R   0.113800 0.560730 0.885620 -0.652326
O12   O     O_R   0.383400 0.560740 0.616060 -0.641123
O13   O     O_R   0.555060 0.731630 0.615290 -0.641464
O14   O     O_R   0.383950 0.439280 0.616600 -0.639871
O15   O     O_R   0.677590 0.560710 0.444390 -0.619065
O16   O     O_R   0.556370 0.439260 0.616600 -0.650974
O17   O     O_R   0.382640 0.439290 0.322940 -0.648663
O18   O     O_R   0.678360 0.560700 0.616060 -0.643830
O19   O     O_R   0.382640 0.560750 0.444390 -0.636666
O20   O     O_R   0.555060 0.439270 0.322940 -0.655017
O21   O     O_R   0.383950 0.268380 0.445700 -0.629316
O22   O     O_R   0.677590 0.731610 0.615290 -0.645276
O23   O     O_3   0.997750 0.500010 0.002220 -0.479852
O24   O     O_R   0.942690 0.560750 0.179280 -0.636565
O25   O     O_R   0.114340 0.439270 0.886160 -0.637289
O26   O     O_R   0.820160 0.268410 0.886930 -0.646071
Zn1   Zn    Zn3+2 0.456040 0.586770 0.543190 0.975145
Zn2   Zn    Zn3+2 0.456820 0.413240 0.543960 0.969087
Zn3   Zn    Zn3+2 0.631110 0.586750 0.543190 0.965983
Zn4   Zn    Zn3+2 0.456040 0.413240 0.369660 0.956117
Zn5   Zn    Zn3+2 0.041710 0.413240 0.959030 0.956426
Zn6   Zn    Zn3+2 0.866640 0.413270 0.959030 0.964692
Zn7   Zn    Zn3+2 0.040930 0.586780 0.958260 0.964122
Zn8   Zn    Zn3+2 0.041710 0.586770 0.132560 0.996035

loop_
_geom_bond_atom_site_label_1
_geom_bond_atom_site_label_2
_ccdc_geom_bond_type
C25   C31   A    
C66   C68   A    
C63   C65   A    
C34   C56   S    
C8    C13   S    
O15   Zn3   S    
C47   H38   S    
C27   C29   A    
C41   C42   A    
C32   C94   S    
C35   C36   A    
C14   C17   S    
C88   H32   S    
C9    C14   S    
C67   H45   S    
C6    H68   S    
C46   H31   S    
C41   H35   S    
C81   C82   A    
C57   C58   A    
C50   H39   S    
C97   N3    T    
C22   H25   S    
C39   C41   A    
C54   C60   A    
C11   N5    S    
O1    Zn1   S    
C52   O17   A    
C12   C23   S    
C26   C27   A    
C37   C38   A    
C49   C60   S    
C18   C24   A    
O9    Zn8   S    
C91   N1    T    
C36   C37   A    
C92   N6    T    
C10   C15   S    
C56   H57   S    
C42   C53   S    
C30   C31   A    
C2    H4    S    
C27   C38   S    
C78   H66   S    
C29   H26   S    
C81   H55   S    
C57   H41   S    
C94   N10   T    
C18   C19   A    
O13   Zn1   S    
O23   Zn5   S    
C21   H24   S    
C49   C50   A    
C61   H47   S    
C16   O14   A    
C85   O26   A    
C33   H27   S    
C54   C55   A    
O10   Zn6   S    
C95   N11   T    
C64   H1    S    
C11   C17   S    
O17   Zn4   S    
C2    C7    S    
C59   H44   S    
C90   O5    A    
C8    C9    S    
C13   C28   S    
C10   H14   S    
C70   C71   A    
C32   C38   A    
C65   H49   S    
C29   C30   A    
C11   H17   S    
O23   Zn8   S    
C12   C98   S    
C47   C53   A    
C71   C82   S    
C5    C85   S    
C44   H37   S    
O1    Zn2   S    
C19   H21   S    
C59   C60   A    
C7    H5    S    
C21   C22   A    
C43   H36   S    
C45   H43   S    
C4    O13   A    
C1    O21   A    
C67   C78   S    
O14   Zn2   S    
C14   C83   S    
C83   O24   A    
C8    H10   S    
C56   H12   S    
C44   C46   A    
C76   H15   S    
C77   C79   A    
C73   C74   A    
C9    H11   S    
C64   H3    S    
O16   Zn2   S    
O12   Zn1   S    
O1    Zn3   S    
C48   C87   S    
C15   N7    S    
O20   Zn4   S    
C16   C73   S    
C12   H52   S    
C69   C74   A    
C45   C88   S    
C72   C73   A    
C55   C95   S    
O19   Zn1   S    
O11   Zn7   S    
C87   O6    A    
C5    C7    S    
C78   H56   S    
C40   O16   A    
C45   H23   S    
C25   C26   A    
C72   H50   S    
C93   N9    T    
O21   Zn2   S    
C28   O20   A    
O2    Zn7   S    
O3    Zn6   S    
C51   C53   A    
C35   H28   S    
C43   C44   A    
C34   C90   S    
C62   C63   A    
C75   C77   A    
H60   N7    S    
C47   C48   A    
C88   C91   S    
C4    O22   A    
C25   C93   S    
C26   C86   S    
C86   O2    A    
C28   O15   A    
C64   C76   S    
C15   H16   S    
C84   O11   A    
C50   C51   A    
C34   C45   S    
C76   H22   S    
C9    H13   S    
C77   C97   S    
C6    H8    S    
O4    Zn4   S    
C89   H67   S    
C12   C56   S    
C16   O12   A    
C39   C46   A    
H64   N2    S    
C18   N8    S    
C84   O25   A    
C23   C64   S    
C63   C74   S    
C54   H40   S    
O22   Zn3   S    
C23   C88   S    
C55   C57   A    
H61   N7    S    
O7    Zn5   S    
C83   O10   A    
C58   C59   A    
C36   H29   S    
C42   C43   A    
C89   H7    S    
C3    C4    S    
C6    C89   S    
C8    H9    S    
O23   Zn6   S    
C70   C84   S    
O6    Zn7   S    
C66   C96   S    
C40   O18   A    
C79   H53   S    
C58   H42   S    
C85   O8    A    
C80   H54   S    
O1    Zn4   S    
C48   C49   A    
H62   N8    S    
C3    C67   S    
O24   Zn8   S    
C80   C81   A    
C10   C13   S    
C87   O3    A    
C1    O4    A    
C75   C82   A    
C90   O7    A    
C40   C51   S    
H58   N5    S    
C24   H20   S    
C3    C89   S    
C32   C33   A    
C37   H30   S    
C19   C20   A    
C2    C3    S    
O5    Zn8   S    
C69   N2    S    
H65   N2    S    
C71   C72   A    
C10   H19   S    
H59   N5    S    
H63   N8    S    
C11   C13   S    
C61   C68   A    
C23   C52   S    
C5    C6    S    
C39   H33   S    
C75   H51   S    
C7    H6    S    
C1    C30   S    
C33   C35   A    
C67   H34   S    
C68   H46   S    
C22   C24   A    
O18   Zn3   S    
C61   C62   A    
C69   C70   A    
C2    H2    S    
C79   C80   A    
C98   N4    T    
C17   C92   S    
C86   O9    A    
C20   C21   A    
C65   C66   A    
C62   H48   S    
O8    Zn5   S    
O26   Zn6   S    
C14   C15   S    
O25   Zn5   S    
C52   O19   A    
C96   N12   T    
C5    C78   S    
O23   Zn7   S    
C17   H18   S    
C34   C76   S    
C20   C31   S    
