data_mof_unit_4303.cif
_audit_creation_date              2013-03-05T15:47:11-0500
_audit_creation_method            fapswitch 2.2
_symmetry_space_group_name_H-M    P1
_symmetry_Int_Tables_number       1
_space_group_crystal_system       triclinic
_cell_length_a                    19.231159
_cell_length_b                    19.504113
_cell_length_c                    18.349859
_cell_angle_alpha                 109.414331
_cell_angle_beta                  109.161875
_cell_angle_gamma                 111.219415
_cell_volume                      5204.5514873

loop_
_atom_site_label
_atom_site_type_symbol
_atom_site_description
_atom_site_fract_x
_atom_site_fract_y
_atom_site_fract_z
_atom_type_partial_charge
O1    O     O_R   0.410140 0.357660 0.448100 -0.576795
O2    O     O_R   0.409530 0.462000 0.551910 -0.542400
C1    C     C_R   0.381590 0.381982 0.500088 0.775025
O3    O     O_R   0.590960 0.447830 0.538760 -0.539364
O4    O     O_R   0.590350 0.552170 0.642570 -0.591368
C2    C     C_R   0.614605 0.497035 0.620848 0.769524
Cu1   Cu    Cu3+1 0.500360 0.438220 0.438540 1.092116
Cu2   Cu    Cu3+1 0.499640 0.561780 0.561460 1.134143
O5    O     O_R   0.590470 0.538000 0.448090 -0.587383
O6    O     O_R   0.589860 0.642340 0.551900 -0.552919
O7    O     O_R   0.409650 0.447830 0.357430 -0.619376
O8    O     O_R   0.409040 0.552170 0.461240 -0.515054
C3    C     C_R   0.616554 0.617685 0.496013 0.815522
C4    C     C_R   0.378070 0.495528 0.378165 0.821075
C5    C     C_3   0.679912 0.409113 0.654217 -0.109257
C6    C     C_3   0.761873 0.422821 0.726871 -0.456456
H1    H     H_    0.746631 0.367455 0.737288 0.239226
H2    H     H_    0.807089 0.423660 0.702910 0.256024
H3    H     H_    0.783207 0.562462 0.668296 0.262319
C7    C     C_3   0.771234 0.574656 0.724261 -0.431624
C8    C     C_3   0.673151 0.514382 0.776011 -0.374837
C9    C     C_3   0.682514 0.497680 0.691475 -0.082924
H4    H     H_    0.682280 0.578728 0.808799 0.240575
H5    H     H_    0.607660 0.467788 0.757447 0.158971
C10   C     C_3   0.809983 0.507842 0.817147 -0.086259
C11   C     C_3   0.846788 0.589951 0.807144 0.565140
C12   C     C_3   0.740860 0.507988 0.843795 -0.382667
H6    H     H_    0.707350 0.448463 0.844392 0.262472
H7    H     H_    0.771543 0.562250 0.912532 0.195265
H8    H     H_    0.767795 0.632801 0.737353 0.205359
H9    H     H_    0.135855 0.200996 0.199565 0.221904
C13   C     C_R   0.418786 0.367046 0.654139 -0.117869
C14   C     C_R   0.439871 0.365546 0.732912 -0.192307
C15   C     C_R   0.375675 0.313727 0.741002 -0.095873
C16   C     C_R   0.289689 0.260932 0.669864 0.351796
C17   C     C_R   0.267875 0.251103 0.582027 -0.046700
C18   C     C_R   0.333677 0.311012 0.578373 0.059956
C19   C     C_R   0.186509 0.184861 0.498785 -0.140172
C20   C     C_R   0.172029 0.182577 0.414896 -0.020459
C21   C     C_R   0.235946 0.251744 0.418582 0.064106
C22   C     C_R   0.314962 0.314822 0.499677 -0.045908
C23   C     C_R   0.097162 0.115854 0.326244 0.352488
C24   C     C_R   0.084652 0.125638 0.251668 -0.089982
C25   C     C_R   0.145862 0.195210 0.258328 -0.097521
C26   C     C_R   0.221166 0.256377 0.339746 -0.074383
H10   H     H_    0.470673 0.411987 0.652853 0.139724
H11   H     H_    0.505235 0.408187 0.790038 0.193955
H12   H     H_    0.391797 0.319325 0.805951 0.219212
H13   H     H_    0.028081 0.075762 0.186056 0.206557
H14   H     H_    0.266247 0.309170 0.339750 0.153909
C27   C     C_R   0.236075 0.506583 0.397447 0.238713
C28   C     C_R   0.208331 0.558176 0.436722 0.227606
C29   C     C_R   0.183760 0.602278 0.398001 0.217377
C30   C     C_R   0.179894 0.588837 0.315903 -0.222943
C31   C     C_R   0.202870 0.532285 0.273877 -0.077939
C32   C     C_R   0.248055 0.507270 0.325273 -0.023721
C33   C     C_R   0.186484 0.503103 0.184745 -0.080204
C34   C     C_R   0.237472 0.474771 0.159227 0.115304
C35   C     C_R   0.303471 0.474628 0.222882 0.100767
C36   C     C_R   0.306771 0.487983 0.305789 -0.099533
C37   C     C_R   0.227152 0.451006 0.072903 -0.179395
C38   C     C_R   0.284011 0.433390 0.051601 -0.144072
C39   C     C_R   0.354885 0.441773 0.116520 -0.013425
C40   C     C_R   0.364548 0.462887 0.201579 -0.135074
H15   H     H_    0.176262 0.447424 0.021023 0.145564
H16   H     H_    0.274097 0.416229 0.984927 0.199090
H17   H     H_    0.422084 0.472486 0.250484 0.216053
H18   H     H_    0.722056 0.493898 0.301455 0.181000
C41   C     C_R   0.614478 0.773494 0.504269 0.229363
C42   C     C_R   0.630137 0.857464 0.542273 0.194293
C43   C     C_R   0.710209 0.927229 0.571464 0.239341
C44   C     C_R   0.771062 0.911648 0.556986 -0.198245
C45   C     C_R   0.757776 0.828631 0.521276 0.007111
C46   C     C_R   0.683395 0.760507 0.505217 -0.051994
C47   C     C_R   0.816041 0.812670 0.498391 0.010677
C48   C     C_R   0.801776 0.729183 0.460996 0.046745
C49   C     C_R   0.731975 0.662366 0.453052 -0.033333
C50   C     C_R   0.678167 0.680784 0.485154 -0.102992
C51   C     C_R   0.851481 0.707663 0.424982 -0.091078
C52   C     C_R   0.810786 0.624586 0.353392 -0.166548
C53   C     C_R   0.740639 0.559082 0.343250 -0.128286
C54   C     C_R   0.717107 0.578453 0.408355 -0.060373
H19   H     H_    0.828751 0.965883 0.572931 0.186469
H20   H     H_    0.842997 0.607528 0.318401 0.188763
O9    O     O_R   0.945600 0.357690 0.907660 -0.549786
O10   O     O_R   0.049980 0.462000 0.907580 -0.598730
C55   C     C_R   0.996829 0.382065 0.876217 0.784967
O11   O     O_R   0.854480 0.447890 0.906670 -0.576905
O12   O     O_R   0.958860 0.552200 0.906600 -0.529277
C56   C     C_R   0.878603 0.505353 0.883705 0.830435
Cu3   Cu    Cu3+1 0.935530 0.438290 0.997340 1.114216
Cu4   Cu    Cu3+1 0.059130 0.561800 0.997250 1.080882
O13   O     O_R   0.944670 0.538090 0.087010 -0.577426
O14   O     O_R   0.049050 0.642400 0.086940 -0.586822
O15   O     O_R   0.035800 0.447890 0.088000 -0.547176
O16   O     O_R   0.140170 0.552200 0.087920 -0.576449
C57   C     C_R   0.995519 0.619317 0.113921 0.822765
C58   C     C_R   0.117052 0.502108 0.118442 0.755054
O17   O     O_R   0.948030 0.909890 0.357850 -0.490677
O18   O     O_R   0.052970 0.909860 0.462770 -0.585949
C59   C     C_R   0.992333 0.876360 0.379508 0.762466
O19   O     O_R   0.037700 0.090200 0.447550 -0.529323
O20   O     O_R   0.142640 0.090170 0.552470 -0.572833
C60   C     C_R   0.118937 0.118310 0.499400 0.774482
Cu5   Cu    Cu3+1 0.937870 0.000030 0.437890 1.186859
Cu6   Cu    Cu3+1 0.062130 0.000000 0.562130 1.165408
O21   O     O_R   0.947030 0.090160 0.537260 -0.593419
O22   O     O_R   0.051970 0.090130 0.642170 -0.486545
O23   O     O_R   0.857360 0.909860 0.447560 -0.548214
O24   O     O_R   0.962300 0.909830 0.552480 -0.533046
C61   C     C_R   0.996496 0.112968 0.620958 0.759536
C62   C     C_R   0.881894 0.879683 0.498052 0.765196
C63   C     C_R   0.023436 0.389672 0.719819 -0.087007
C64   C     C_R   0.044924 0.394421 0.655093 -0.196949
C65   C     C_R   0.057071 0.333707 0.605934 0.331857
C66   C     C_R   0.045796 0.266520 0.621047 -0.126648
C67   C     C_R   0.022847 0.257924 0.685428 0.050380
C68   C     C_R   0.016316 0.323072 0.740846 0.005590
C69   C     C_R   0.008738 0.185399 0.694886 -0.050320
C70   C     C_R   0.011391 0.186746 0.774870 0.001908
C71   C     C_R   0.015176 0.257461 0.836325 0.007890
C72   C     C_R   0.006625 0.318928 0.814549 -0.101544
C73   C     C_R   0.012458 0.123193 0.799022 0.254301
C74   C     C_R   0.019877 0.133143 0.881833 -0.167111
C75   C     C_R   0.029695 0.206386 0.943372 0.283803
C76   C     C_R   0.030314 0.267919 0.921450 -0.228950
H21   H     H_    0.050572 0.445663 0.641488 0.225282
H22   H     H_    0.060450 0.223285 0.584556 0.184262
H23   H     H_    0.043664 0.325134 0.973981 0.181500
C77   C     C_R   0.151098 0.798688 0.243160 -0.039185
C78   C     C_R   0.224983 0.879020 0.307831 -0.086325
C79   C     C_R   0.221457 0.937753 0.371027 -0.114818
C80   C     C_R   0.144059 0.916017 0.369851 -0.046803
C81   C     C_R   0.066834 0.833448 0.305252 0.117093
C82   C     C_R   0.069499 0.772846 0.239529 0.110327
C83   C     C_R   0.987882 0.812714 0.304857 -0.054151
C84   C     C_R   0.907528 0.734205 0.232856 -0.035054
C85   C     C_R   0.911577 0.672264 0.169043 -0.001926
C86   C     C_R   0.992411 0.689079 0.175367 -0.054054
C87   C     C_R   0.822531 0.712044 0.220922 0.258931
C88   C     C_R   0.750479 0.629265 0.157167 -0.218894
C89   C     C_R   0.754672 0.570422 0.094142 0.304801
C90   C     C_R   0.833253 0.594649 0.096905 -0.217033
H24   H     H_    0.163915 0.760122 0.199358 0.210386
H25   H     H_    0.285460 0.895840 0.308426 0.180047
H26   H     H_    0.278552 0.001061 0.420388 0.162752
H27   H     H_    0.145873 0.967820 0.417864 0.150317
H28   H     H_    0.688204 0.613492 0.151771 0.227336
H29   H     H_    0.830507 0.552210 0.039411 0.180443
C91   C     C_2   0.682300 0.378155 0.566384 0.913642
O25   O     O_2   0.742995 0.422993 0.562373 -0.492264
O26   O     O_R   0.616328 0.297269 0.490804 -0.697621
H30   H     H_    0.625922 0.284746 0.437918 0.361503
N1    N     N_R   0.876746 0.667183 0.891057 0.122443
O27   O     O_R   0.939133 0.689889 0.967295 -0.336642
O28   O     O_R   0.842275 0.713681 0.891591 -0.334968
N2    N     N_R   0.227728 0.233370 0.696314 0.106707
O29   O     O_R   0.230603 0.185605 0.731342 -0.293435
O30   O     O_R   0.202533 0.284940 0.724337 -0.389777
N3    N     N_R   0.038493 0.032019 0.303872 0.100775
O31   O     O_R   0.057579 0.974467 0.277738 -0.398275
O32   O     O_R   0.956679 0.006557 0.270313 -0.268575
C92   C     C_2   0.596342 0.337826 0.637169 0.859540
O33   O     O_2   0.525897 0.314430 0.577048 -0.576954
O34   O     O_R   0.598873 0.300023 0.690087 -0.737544
H31   H     H_    0.538984 0.255310 0.672109 0.358333
C93   C     C_2   0.419688 0.429564 0.096191 0.904625
O35   O     O_2   0.409732 0.408979 0.021164 -0.533788
O36   O     O_R   0.492692 0.441957 0.162940 -0.748615
H32   H     H_    0.532290 0.432456 0.141087 0.364185
N4    N     N_R   0.221328 0.433912 0.407393 0.097598
O37   O     O_R   0.152563 0.360681 0.341219 -0.309365
O38   O     O_R   0.253216 0.443746 0.486993 -0.272031
N5    N     N_R   0.204011 0.565158 0.515313 0.205619
O39   O     O_R   0.135260 0.557489 0.518802 -0.222100
O40   O     O_R   0.273586 0.593068 0.588325 -0.243821
N6    N     N_R   0.164878 0.662300 0.443650 0.182629
O41   O     O_R   0.225352 0.729544 0.522343 -0.254772
O42   O     O_R   0.084865 0.642474 0.413937 -0.238693
C94   C     C_2   0.172612 0.649439 0.287874 0.895571
O43   O     O_2   0.116250 0.664340 0.286419 -0.548109
O44   O     O_R   0.232723 0.694377 0.268973 -0.741261
H33   H     H_    0.281879 0.683537 0.280503 0.336720
N7    N     N_R   0.526236 0.702354 0.450043 0.134653
O45   O     O_R   0.499416 0.644821 0.369399 -0.399673
O46   O     O_R   0.469423 0.702725 0.473541 -0.294178
N8    N     N_R   0.563272 0.871365 0.547352 0.199358
O47   O     O_R   0.570081 0.908335 0.624965 -0.248208
O48   O     O_R   0.500426 0.855386 0.475868 -0.257566
N9    N     N_R   0.728334 0.013550 0.609290 0.166278
O49   O     O_R   0.667259 0.029068 0.582132 -0.245928
O50   O     O_R   0.807853 0.077937 0.665428 -0.358155
C95   C     C_2   0.947215 0.753216 0.478872 0.874771
O51   O     O_2   0.989007 0.747711 0.441729 -0.550228
O52   O     O_R   0.988774 0.794158 0.572603 -0.683631
H34   H     H_    0.053831 0.820431 0.602025 0.370944
C96   C     C_2   0.724436 0.531001 0.455822 0.939816
O53   O     O_2   0.679349 0.452884 0.414250 -0.504332
O54   O     O_R   0.786324 0.574156 0.546667 -0.709444
H35   H     H_    0.823815 0.638242 0.574257 0.312819
N10   N     N_R   0.037269 0.218594 0.028162 0.142965
O55   O     O_R   0.987605 0.155438 0.032315 -0.313455
O56   O     O_R   0.085783 0.294940 0.099202 -0.351712
C97   C     C_2   0.006216 0.455393 0.757791 0.958514
O57   O     O_2   0.936876 0.434514 0.753796 -0.612073
O58   O     O_R   0.069988 0.541564 0.798813 -0.694793
H36   H     H_    0.055267 0.582142 0.831169 0.388295
N11   N     N_R   0.079478 0.339400 0.539617 0.157279
O59   O     O_R   0.096840 0.406202 0.530957 -0.230860
O60   O     O_R   0.080399 0.276934 0.485532 -0.327636
N12   N     N_R   0.013857 0.051565 0.746212 0.116159
O61   O     O_R   0.943173 0.976528 0.698625 -0.349853
O62   O     O_R   0.087647 0.055656 0.772184 -0.282665
C98   C     C_2   0.025644 0.069973 0.907704 1.024517
O63   O     O_2   0.089115 0.093625 0.976736 -0.551971
O64   O     O_R   0.958140 0.984039 0.854059 -0.668916
H37   H     H_    0.969660 0.947566 0.878968 0.362057
N13   N     N_R   0.678151 0.487786 0.024260 0.128138
O65   O     O_R   0.602178 0.470324 0.013447 -0.333702
O66   O     O_R   0.684208 0.427897 0.973413 -0.350375
N14   N     N_R   0.801258 0.772795 0.258236 0.123041
O67   O     O_R   0.754501 0.755820 0.294672 -0.369657
O68   O     O_R   0.793978 0.818602 0.221672 -0.255250
N15   N     N_R   0.920059 0.604614 0.791096 0.111954
O69   O     O_R   0.908637 0.551133 0.716650 -0.308585
O70   O     O_R   0.992785 0.678615 0.843101 -0.273706

loop_
_geom_bond_atom_site_label_1
_geom_bond_atom_site_label_2
_geom_bond_distance
_ccdc_geom_bond_type
C31   C32   1.399065 A    
C47   C48   1.416989 A    
N9    O49   1.301100 A    
O13   C57   1.323417 A    
C12   H7    1.109542 S    
C45   C47   1.415358 A    
N10   O55   1.301500 A    
C30   C31   1.420406 A    
Cu5   Cu6   2.708021 S    
H3    C7    1.093939 S    
C48   C51   1.430871 A    
C52   H20   1.083939 S    
N15   O69   1.300875 A    
C53   C54   1.397649 A    
O9    Cu3   1.981572 S    
O15   C58   1.307708 A    
N13   O65   1.301769 A    
C73   C74   1.417276 A    
C93   O36   1.399420 S    
C74   C98   1.486220 S    
C49   C50   1.440622 A    
C28   C29   1.395768 A    
Cu1   O7    2.002787 S    
Cu5   O21   1.969816 S    
C40   H17   1.072937 S    
C75   N10   1.441706 S    
C35   C40   1.421791 A    
O34   H31   1.013942 S    
Cu6   O22   2.001541 S    
O4    C2    1.316458 A    
H18   C53   1.084078 S    
C49   C54   1.431081 A    
C5    C92   1.541818 S    
C17   C18   1.417260 A    
C92   O34   1.399936 S    
C27   C32   1.420236 A    
C85   C90   1.421622 A    
C67   C69   1.421583 A    
C19   C20   1.453664 A    
O7    C4    1.305544 A    
C98   O64   1.397385 S    
C87   N14   1.426729 S    
C6    H1    1.110609 S    
C96   O53   1.221444 D    
C24   H13   1.083916 S    
C65   C66   1.384370 A    
C2    C9    1.500495 S    
C51   C95   1.481027 S    
Cu4   O16   1.987013 S    
C66   C67   1.427918 A    
O19   Cu5   1.983796 S    
C61   C69   1.472069 S    
C15   C16   1.398387 A    
C68   C72   1.448318 A    
C63   C97   1.450265 S    
N15   O70   1.302637 A    
C96   O54   1.394070 S    
O5    C3    1.295343 A    
N5    O39   1.301295 A    
C89   N13   1.441510 S    
C19   C60   1.473770 S    
C88   H28   1.083498 S    
O44   H33   1.013029 S    
C77   C78   1.388354 A    
C88   C89   1.380938 A    
C5    C9    1.607398 S    
C16   C17   1.450200 A    
N7    O46   1.301021 A    
C79   C80   1.382657 A    
C95   O52   1.398992 S    
O16   C58   1.295623 A    
O64   H37   1.013834 S    
C42   C43   1.402450 A    
C80   H27   1.077397 S    
O58   H36   1.009557 S    
C77   H24   1.065334 S    
N1    O28   1.302143 A    
C70   C73   1.452922 A    
C63   C68   1.447080 A    
C92   O33   1.223654 D    
C34   C37   1.415052 A    
C39   C93   1.486579 S    
C8    C12   1.554222 S    
C70   C71   1.420825 A    
C66   H22   1.076755 S    
C35   C36   1.430929 A    
N2    O30   1.297461 A    
C8    C9    1.560352 S    
N2    O29   1.302357 A    
N10   O56   1.300990 A    
C41   C42   1.416006 A    
O21   C61   1.319838 A    
O3    Cu1   1.970751 S    
C94   O44   1.398816 S    
C64   C65   1.378038 A    
C20   C23   1.453131 A    
O24   C62   1.293015 A    
O9    C55   1.321352 A    
C45   C46   1.409115 A    
C21   C26   1.420303 A    
O17   Cu5   2.001670 S    
C84   C87   1.448226 A    
O2    Cu2   1.988405 S    
H9    C25   1.083008 S    
C38   H16   1.083362 S    
C27   C28   1.405575 A    
O36   H32   1.014029 S    
Cu1   Cu2   2.706754 S    
C87   C88   1.398586 A    
C54   C96   1.478119 S    
O3    C2    1.292353 A    
O23   C62   1.305386 A    
N11   O59   1.300724 A    
Cu3   Cu4   2.704315 S    
C98   O63   1.223184 D    
C52   C53   1.384277 A    
C7    H8    1.109866 S    
O14   C57   1.286423 A    
N6    O42   1.301123 A    
C10   C11   1.599841 S    
C29   C30   1.411941 A    
C39   C40   1.402558 A    
C73   N12   1.426835 S    
O1    C1    1.291550 A    
N3    O32   1.302451 A    
C82   C86   1.440615 A    
C24   C25   1.371465 A    
C16   N2    1.426135 S    
N14   O67   1.300587 A    
C37   H15   1.078717 S    
Cu3   O13   1.990093 S    
N4    O38   1.298820 A    
N13   O66   1.301466 A    
N12   O61   1.297415 A    
O11   Cu3   1.987123 S    
O8    C4    1.306573 A    
Cu2   O8    1.970749 S    
C38   C39   1.395299 A    
Cu4   O14   1.981808 S    
C14   C15   1.372779 A    
C10   C56   1.504393 S    
C41   C46   1.432422 A    
C13   C18   1.416844 A    
C48   C49   1.414374 A    
O12   Cu4   1.986523 S    
O19   C60   1.305345 A    
N4    O37   1.299577 A    
N1    O27   1.301673 A    
C71   C72   1.428973 A    
C42   N8    1.431769 S    
C47   C62   1.457589 S    
Cu2   O6    1.979793 S    
C21   C22   1.407931 A    
O17   C59   1.290493 A    
C77   C82   1.434401 A    
O11   C56   1.309529 A    
N6    O41   1.300840 A    
C31   C33   1.418186 A    
C11   N15   1.480108 S    
C75   C76   1.384228 A    
C14   H11   1.081325 S    
C91   O26   1.401212 S    
C51   C52   1.398487 A    
C11   N1    1.489768 S    
O4    Cu2   2.002788 S    
C15   H12   1.083922 S    
C23   C24   1.399162 A    
C78   C79   1.373446 A    
C28   N5    1.435770 S    
C93   O35   1.223555 D    
C94   O43   1.214182 D    
O10   C55   1.292448 A    
C63   C64   1.399173 A    
Cu6   O24   1.983890 S    
C59   C83   1.463013 S    
N7    O45   1.300419 A    
C6    C10   1.551469 S    
Cu1   O5    1.988406 S    
Cu5   O23   1.984541 S    
C3    C50   1.490205 S    
C1    C22   1.459395 S    
N9    O50   1.300944 A    
N12   O62   1.302315 A    
O1    Cu1   1.979793 S    
C13   H10   1.077323 S    
C23   N3    1.424570 S    
C25   C26   1.377200 A    
C7    C9    1.548695 S    
C44   C45   1.414806 A    
O6    C3    1.320194 A    
C29   N6    1.435087 S    
C55   C72   1.487950 S    
C81   C83   1.419600 A    
C69   C70   1.442804 A    
C81   C82   1.411008 A    
C10   C12   1.560364 S    
C4    C36   1.481251 S    
C84   C85   1.422748 A    
O18   Cu6   1.969813 S    
C76   H23   1.074908 S    
O22   C61   1.294109 A    
C27   N4    1.427481 S    
C79   H26   1.082980 S    
N3    O31   1.296389 A    
C8    H4    1.112238 S    
O2    C1    1.303689 A    
C34   C35   1.416622 A    
C71   C76   1.418788 A    
N14   O68   1.302071 A    
N11   O60   1.301137 A    
O10   Cu4   1.989990 S    
C67   C68   1.415920 A    
C13   C14   1.380782 A    
C97   O58   1.398652 S    
C64   H21   1.085376 S    
C33   C34   1.416945 A    
C80   C81   1.431138 A    
C7    C11   1.564364 S    
C26   H14   1.079614 S    
C33   C58   1.470586 S    
C17   C19   1.451355 A    
O18   C59   1.317664 A    
C30   C94   1.468993 S    
C78   H25   1.083281 S    
O20   Cu6   1.984422 S    
O54   H35   1.012821 S    
C43   N9    1.441302 S    
C18   C22   1.403507 A    
C37   C38   1.389162 A    
N5    O40   1.301028 A    
N8    O48   1.301260 A    
C44   H19   1.080290 S    
C85   C86   1.422951 A    
C41   N7    1.436765 S    
Cu3   O15   1.986608 S    
O52   H34   1.013877 S    
C20   C21   1.421191 A    
C32   C36   1.423901 A    
C90   H29   1.073410 S    
C43   C44   1.392949 A    
C97   O57   1.213392 D    
C6    H2    1.093250 S    
C95   O51   1.222905 D    
C46   C50   1.430179 A    
C8    H5    1.101000 S    
O20   C60   1.304760 A    
C89   C90   1.387969 A    
C91   O25   1.221857 D    
C83   C84   1.442275 A    
N8    O47   1.300743 A    
O26   H30   1.013947 S    
O12   C56   1.300703 A    
C65   N11   1.441653 S    
C57   C86   1.486425 S    
C5    C91   1.544683 S    
C5    C6    1.552990 S    
C74   C75   1.394246 A    
C12   H6    1.111211 S    
