data_mof_unit_485.cif
_audit_creation_date              2012-12-10T18:52:55-0500
_audit_creation_method            fapswitch 2.2
_symmetry_space_group_name_H-M    P1
_symmetry_Int_Tables_number       1
_space_group_crystal_system       triclinic
_cell_length_a                    9.824165
_cell_length_b                    10.722522
_cell_length_c                    16.703317
_cell_angle_alpha                 90.137361
_cell_angle_beta                  84.864239
_cell_angle_gamma                 90.013802
_cell_volume                      1752.45565101

loop_
_atom_site_label
_atom_site_type_symbol
_atom_type_description
_atom_site_fract_x
_atom_site_fract_y
_atom_site_fract_z
_atom_type_partial_charge
C1    C     C_R   0.500055 0.740188 0.500015 0.868367
C2    C     C_R   0.499952 0.259808 0.499897 0.872497
C3    C     C_R   0.624208 0.936100 0.486880 -0.193688
C4    C     C_R   0.375781 0.063864 0.512734 -0.196107
C5    C     C_R   0.624165 0.063858 0.486797 -0.195861
C6    C     C_R   0.375825 0.936112 0.512824 -0.195762
C7    C     C_R   0.499957 0.127380 0.499783 -0.015467
C8    C     C_R   0.500043 0.872595 0.499919 -0.011906
C9    C     C_R   0.935470 0.421058 0.450830 -0.078661
C10   C     C_R   0.064531 0.578921 0.549192 -0.081940
C11   C     C_R   0.079475 0.421070 0.450865 -0.074968
C12   C     C_R   0.920518 0.578904 0.549161 -0.076090
C13   C     C_R   0.480618 0.501648 0.653606 0.880471
C14   C     C_R   0.519244 0.506752 0.346786 0.873426
C15   C     C_R   0.467589 0.519493 0.740370 -0.083376
C16   C     C_R   0.531448 0.549083 0.263846 -0.076627
C17   C     C_R   0.584604 0.517414 0.782073 -0.216572
C18   C     C_R   0.425373 0.620318 0.236904 -0.209586
C19   C     C_R   0.575682 0.548375 0.862664 -0.204549
C20   C     C_R   0.438091 0.669980 0.160425 -0.219054
C21   C     C_R   0.449848 0.583318 0.902927 0.191717
C22   C     C_R   0.555326 0.646239 0.108644 0.187838
C23   C     C_R   0.330149 0.582788 0.861944 0.234464
C24   C     C_R   0.666827 0.580806 0.136653 0.247593
C25   C     C_R   0.340456 0.550029 0.780671 -0.215018
C26   C     C_R   0.653543 0.533239 0.214864 -0.219558
C27   C     C_2   0.444135 0.606029 0.989304 -0.229271
C28   C     C_2   0.545345 0.664451 0.022856 -0.241713
H1    H     H_    0.683572 0.493009 0.752314 0.165001
H2    H     H_    0.332360 0.638303 0.275082 0.167819
H3    H     H_    0.737413 0.481655 0.236914 0.155810
H4    H     H_    0.249502 0.552375 0.748419 0.162317
H5    H     H_    0.628490 0.708358 0.986044 0.157384
H6    H     H_    0.362631 0.560680 0.026877 0.167238
H7    H     H_    0.352602 0.720700 0.139611 0.150224
H8    H     H_    0.667501 0.542844 0.893873 0.147275
H9    H     H_    0.720874 0.887491 0.476377 0.156665
H10   H     H_    0.279107 0.112461 0.523235 0.156737
H11   H     H_    0.720810 0.112454 0.476224 0.153193
H12   H     H_    0.279178 0.887520 0.523405 0.153195
H13   H     H_    0.886739 0.358013 0.411561 0.121458
H14   H     H_    0.113265 0.641922 0.588493 0.120894
H15   H     H_    0.140137 0.357999 0.411626 0.128411
H16   H     H_    0.859842 0.641922 0.588438 0.126969
N1    N     N_R   0.142790 0.500030 0.500020 -0.077892
N2    N     N_R   0.857210 0.499970 0.499980 -0.077157
O1    O     O_R   0.385380 0.683250 0.500010 -0.628920
O2    O     O_R   0.614620 0.316750 0.499990 -0.625051
O3    O     O_R   0.614710 0.683220 0.500000 -0.625932
O4    O     O_R   0.385290 0.316780 0.500000 -0.624582
O5    O     O_R   0.371780 0.500040 0.615800 -0.620806
O6    O     O_R   0.628220 0.499960 0.384200 -0.617075
O7    O     O_R   0.601110 0.500010 0.615800 -0.617096
O8    O     O_R   0.398890 0.499990 0.384200 -0.618720
Zn1   Zn    Zn3+2 0.346870 0.500020 0.500000 0.941265
Zn2   Zn    Zn3+2 0.653130 0.499980 0.500000 0.945009
C29   C     C_3   0.191419 0.619525 0.900985 -0.966247
H17   H     H_    0.194656 0.656925 0.962660 0.244986
H18   H     H_    0.147119 0.693533 0.864814 0.244195
H19   H     H_    0.122478 0.537292 0.903447 0.245924
C30   C     C_3   0.797222 0.553013 0.084977 -0.959709
H20   H     H_    0.801663 0.596435 0.024802 0.236299
H21   H     H_    0.885731 0.588513 0.115203 0.243510
H22   H     H_    0.808314 0.450601 0.076817 0.246813

loop_
_geom_bond_atom_site_label_1
_geom_bond_atom_site_label_2
_ccdc_geom_bond_type
C30   H22   S    
C5    C7    A    
C14   O6    A    
C11   H15   S    
C24   C30   S    
C18   H2    S    
C10   H14   S    
C1    C8    S    
C17   H1    S    
C13   O7    A    
C2    C7    S    
C13   C15   S    
C14   O8    A    
C25   H4    S    
C5    H11   S    
C21   C27   S    
C26   H3    S    
C12   H16   S    
C16   C18   A    
C22   C28   S    
C9    C11   A    
C24   C26   A    
N1    Zn1   S    
C29   H17   S    
C10   C12   A    
C10   N1    A    
C4    C7    A    
C23   C29   S    
C18   C20   A    
C22   C24   A    
O1    Zn1   S    
C19   C21   A    
C4    H10   S    
C28   H5    S    
O5    Zn1   S    
C19   H8    S    
C23   C25   A    
C27   H6    S    
C16   C26   A    
C30   H20   S    
C14   C16   S    
C29   H18   S    
C4    C6    A    
C11   N1    A    
O3    Zn2   S    
O6    Zn2   S    
C9    N2    A    
C6    H12   S    
C3    H9    S    
C15   C25   A    
C15   C17   A    
C3    C8    A    
O7    Zn2   S    
N2    Zn2   S    
C27   C28   D    
O2    Zn2   S    
O8    Zn1   S    
C17   C19   A    
C29   H19   S    
C6    C8    A    
C2    O4    A    
C2    O2    A    
C13   O5    A    
C20   H7    S    
C9    H13   S    
C21   C23   A    
C30   H21   S    
C1    O1    A    
O4    Zn1   S    
C20   C22   A    
C3    C5    A    
C12   N2    A    
C1    O3    A    
