data_mof_unit_3355.cif
_audit_creation_date              2013-03-05T16:09:45-0500
_audit_creation_method            fapswitch 2.2
_symmetry_space_group_name_H-M    P1
_symmetry_Int_Tables_number       1
_space_group_crystal_system       triclinic
_cell_length_a                    12.981644
_cell_length_b                    10.644777
_cell_length_c                    9.951545
_cell_angle_alpha                 91.797308
_cell_angle_beta                  99.856879
_cell_angle_gamma                 92.364182
_cell_volume                      1352.6865852

loop_
_atom_site_label
_atom_site_type_symbol
_atom_site_description
_atom_site_fract_x
_atom_site_fract_y
_atom_site_fract_z
_atom_type_partial_charge
O1    O     O_R   0.499990 0.316750 0.614620 -0.580125
O2    O     O_R   0.500010 0.683250 0.385380 -0.551974
O3    O     O_R   0.499990 0.316780 0.385290 -0.576776
O4    O     O_R   0.500010 0.683220 0.614710 -0.576520
C1    C     C_R   0.503340 0.260658 0.498967 0.962981
C2    C     C_R   0.497412 0.739299 0.501167 0.942706
O5    O     O_R   0.346360 0.499970 0.595710 -0.601771
O6    O     O_R   0.653640 0.500030 0.404290 -0.626523
O7    O     O_R   0.346360 0.499990 0.366380 -0.531620
O8    O     O_R   0.653640 0.500010 0.633620 -0.543740
C3    C     C_R   0.297568 0.502192 0.470924 0.970799
C4    C     C_R   0.702068 0.498064 0.529605 0.961826
Zn1   Zn    Zn3+2 0.500000 0.499980 0.653120 1.095737
Zn2   Zn    Zn3+2 0.500000 0.500020 0.346880 1.093607
C5    C     C_R   0.815502 0.496361 0.551224 -0.228555
C6    C     C_R   0.183440 0.502465 0.452479 -0.225362
C7    C     C_R   0.017185 0.402183 0.350621 -0.201044
C8    C     C_R   0.981703 0.596214 0.652692 -0.200576
C9    C     C_R   0.120387 0.434244 0.342770 0.217756
C10   C     C_R   0.877220 0.570528 0.657477 0.221364
C11   C     C_R   0.137574 0.553816 0.559721 0.478305
C12   C     C_R   0.861713 0.435887 0.450002 0.499937
C13   C     C_R   0.029477 0.537102 0.554241 -0.069040
C14   C     C_R   0.969457 0.456259 0.452221 -0.072562
H1    H     H_    0.973718 0.340176 0.271276 0.219025
H2    H     H_    0.025428 0.661714 0.728698 0.228388
C15   C     C_R   0.427600 0.060588 0.408051 -0.249897
C16   C     C_R   0.574426 0.938930 0.591233 -0.224126
H3    H     H_    0.368205 0.108647 0.342021 0.236552
H4    H     H_    0.633715 0.890134 0.656746 0.244234
C17   C     C_R   0.420061 0.931303 0.410801 0.323161
C18   C     C_R   0.582613 0.068299 0.587812 0.276234
C19   C     C_R   0.494472 0.871741 0.503737 -0.184293
C20   C     C_R   0.507153 0.128070 0.496122 -0.199442
C21   C     C_R   0.551001 0.594962 0.087776 0.418173
C22   C     C_R   0.456614 0.400980 0.913331 0.372812
C23   C     C_R   0.542469 0.600357 0.942550 0.165408
C24   C     C_R   0.442816 0.409675 0.052331 0.096571
N1    N     N_R   0.499970 0.499970 0.857200 -0.199089
N2    N     N_R   0.500030 0.500030 0.142800 -0.195054
O9    O     O_3   0.802937 0.345957 0.360607 -0.570429
C25   C     C_3   0.781202 0.389109 0.225740 -0.206021
H5    H     H_    0.822386 0.479995 0.210290 0.128462
H6    H     H_    0.695833 0.398130 0.195042 0.182921
H7    H     H_    0.803612 0.316890 0.154652 0.205995
O10   O     O_3   0.198287 0.626174 0.665489 -0.597646
C26   C     C_3   0.217027 0.555715 0.785321 -0.063050
H8    H     H_    0.293037 0.590101 0.846645 0.187077
H9    H     H_    0.221796 0.452757 0.764354 0.184850
H10   H     H_    0.156892 0.570618 0.850165 0.182626
N3    N     N_R   0.837122 0.616953 0.773836 0.245867
O11   O     O_R   0.863929 0.731077 0.821615 -0.325862
O12   O     O_R   0.803333 0.536343 0.853850 -0.353793
N4    N     N_R   0.157043 0.402111 0.219382 0.255714
O13   O     O_R   0.127877 0.293554 0.157739 -0.293378
O14   O     O_R   0.188797 0.492668 0.149278 -0.320525
N5    N     N_R   0.335514 0.862855 0.322678 0.229280
O15   O     O_R   0.284706 0.770576 0.368917 -0.377976
O16   O     O_R   0.299557 0.903704 0.202543 -0.305863
N6    N     N_R   0.669027 0.136194 0.673273 0.209262
O17   O     O_R   0.715439 0.232178 0.627326 -0.368096
O18   O     O_R   0.711958 0.090743 0.788343 -0.342071
O19   O     O_3   0.597957 0.693777 0.173321 -0.551124
C27   C     C_3   0.705389 0.710737 0.165547 -0.130944
H11   H     H_    0.720543 0.807680 0.133415 0.230977
H12   H     H_    0.734753 0.643712 0.094177 0.152139
H13   H     H_    0.751970 0.701059 0.268836 0.149287
O20   O     O_3   0.412285 0.300543 0.828649 -0.558146
C28   C     C_3   0.464112 0.190539 0.870457 -0.082657
H14   H     H_    0.443510 0.157574 0.967721 0.186221
H15   H     H_    0.550599 0.204644 0.880550 0.161781
H16   H     H_    0.438381 0.114553 0.791543 0.195162
N7    N     N_R   0.572329 0.715156 0.886564 0.242794
O21   O     O_R   0.530410 0.819136 0.916263 -0.356271
O22   O     O_R   0.653643 0.720325 0.827148 -0.336473
N8    N     N_R   0.354743 0.337309 0.084968 0.262514
O23   O     O_R   0.352041 0.298597 0.205771 -0.344946
O24   O     O_R   0.275004 0.306304 0.989645 -0.295143

loop_
_geom_bond_atom_site_label_1
_geom_bond_atom_site_label_2
_geom_bond_distance
_ccdc_geom_bond_type
C6    C11   1.414243 A    
C15   H3    1.080819 S    
N7    O21   1.301079 A    
C8    H2    1.080603 S    
C26   H9    1.115425 S    
C24   N8    1.440925 S    
O5    C3    1.295235 A    
O1    C1    1.288102 A    
C21   C23   1.433583 A    
N8    O24   1.302412 A    
C10   N3    1.430984 S    
N5    O16   1.301746 A    
C12   O9    1.394243 S    
N6    O18   1.301718 A    
O9    C25   1.418327 S    
O4    Zn1   1.999378 S    
C28   H15   1.113419 S    
O10   C26   1.419735 S    
C5    C12   1.409618 A    
O20   C28   1.413025 S    
C13   C14   1.413311 A    
C17   C19   1.404238 A    
N7    O22   1.295313 A    
O2    C2    1.287103 A    
C25   H6    1.106985 S    
C26   H10   1.107817 S    
C15   C20   1.392873 A    
C5    C10   1.410194 A    
N4    O14   1.301430 A    
C7    C14   1.394598 A    
C15   C17   1.377113 A    
C8    C13   1.393558 A    
C27   H13   1.109865 S    
C16   C18   1.378761 A    
N8    O23   1.288648 A    
O4    C2    1.290408 A    
N3    O11   1.302007 A    
N6    O17   1.299554 A    
N3    O12   1.301587 A    
C25   H7    1.109451 S    
C27   H12   1.114512 S    
C28   H16   1.109326 S    
O7    Zn2   2.036702 S    
C3    C6    1.461509 S    
C26   H8    1.109093 S    
C4    C5    1.452242 S    
O6    C4    1.298144 A    
C1    C20   1.413848 S    
O7    C3    1.307456 A    
O3    Zn2   1.999378 S    
O8    C4    1.299868 A    
C9    N4    1.427684 S    
C16   C19   1.391853 A    
C11   C13   1.398709 A    
C12   C14   1.402845 A    
O1    Zn1   1.975881 S    
C25   H5    1.113668 S    
C18   N6    1.439436 S    
C11   O10   1.391889 S    
C23   N7    1.425325 S    
N4    O13   1.301889 A    
O6    Zn2   1.978453 S    
C22   N1    1.354541 A    
O3    C1    1.290823 A    
O8    Zn1   2.036701 S    
C22   O20   1.382418 S    
C2    C19   1.411460 S    
C7    H1    1.077763 S    
C27   H11   1.109654 S    
C17   N5    1.438393 S    
C16   H4    1.081511 S    
C21   N2    1.364707 A    
C23   N1    1.379026 A    
C24   N2    1.394661 A    
N5    O15   1.300187 A    
C6    C9    1.408761 A    
C22   C24   1.425560 A    
C7    C9    1.384649 A    
C8    C10   1.381704 A    
C28   H14   1.110733 S    
O2    Zn2   1.975881 S    
Zn1   N1    2.030982 S    
Zn2   N2    2.030981 S    
O19   C27   1.414448 S    
O5    Zn1   1.978455 S    
C21   O19   1.384188 S    
C18   C20   1.406694 A    
