data_mof_unit_3576.cif
_audit_creation_date              2012-12-11T15:41:15-0500
_audit_creation_method            fapswitch 2.2
_symmetry_space_group_name_H-M    P1
_symmetry_Int_Tables_number       1
_space_group_crystal_system       triclinic
_cell_length_a                    19.247941
_cell_length_b                    11.1362
_cell_length_c                    18.689358
_cell_angle_alpha                 89.888581
_cell_angle_beta                  90.786383
_cell_angle_gamma                 89.123982
_cell_volume                      4005.1889163

loop_
_atom_site_label
_atom_site_type_symbol
_atom_type_description
_atom_site_fract_x
_atom_site_fract_y
_atom_site_fract_z
_atom_type_partial_charge
C1    C     C_R   0.727465 0.956490 0.852961 0.541394
C2    C     C_R   0.302250 0.470680 0.040135 0.018227
C3    C     C_R   0.774389 0.816061 0.361486 0.559163
C4    C     C_2   0.500567 0.168061 0.921885 -0.129140
C5    C     C_2   0.503456 0.169750 0.080262 -0.125464
C6    C     C_2   0.997272 0.670275 0.920297 -0.119196
C7    C     C_2   0.000986 0.669492 0.078790 -0.111321
C8    C     C_2   0.500192 0.069983 0.040441 -0.165503
C9    C     C_2   0.514827 0.071524 0.963443 -0.167088
C10   C     C_2   0.993937 0.570711 0.038463 -0.163869
C11   C     C_2   0.005459 0.571055 0.960774 -0.166126
C12   C     C_R   0.764900 0.443908 0.067964 0.022265
C13   C     C_R   0.194825 0.965311 0.960927 0.018793
C14   C     C_R   0.234318 0.446020 0.932372 0.022934
C15   C     C_R   0.265653 0.946918 0.067454 0.025186
C16   C     C_R   0.752766 0.908514 0.920454 0.014514
C17   C     C_3   0.620900 0.462756 0.401359 -0.240026
C18   C     C_3   0.552500 0.491345 0.438241 -0.318925
C19   C     C_3   0.498806 0.546483 0.386384 -0.444280
C20   C     C_3   0.378701 0.455752 0.603428 -0.258438
C21   C     C_3   0.449125 0.476318 0.571020 -0.329028
C22   C     C_3   0.496236 0.542475 0.624433 -0.426404
C23   C     C_3   0.120810 0.961969 0.401365 -0.242338
C24   C     C_R   0.804291 0.956042 0.035617 0.017742
C25   C     C_3   0.051541 0.988690 0.437218 -0.325885
C26   C     C_3   0.999357 0.039418 0.382840 -0.449247
C27   C     C_3   0.878971 0.955250 0.603830 -0.258562
C28   C     C_3   0.949464 0.976366 0.571738 -0.328854
C29   C     C_3   0.996458 0.042365 0.625294 -0.425997
C30   C     C_3   0.427997 0.011257 0.589251 -0.249935
C31   C     C_3   0.369884 0.098199 0.613976 -0.295130
C32   C     C_3   0.354924 0.085030 0.693574 -0.439674
C33   C     C_3   0.470199 0.924086 0.436642 -0.233088
C34   C     C_3   0.524391 0.883754 0.380057 -0.268804
C35   C     C_R   0.816559 0.417049 0.951094 -0.161350
C36   C     C_3   0.493190 0.821979 0.313927 -0.397387
C37   C     C_3   0.929479 0.508256 0.588348 -0.249345
C38   C     C_3   0.871360 0.594171 0.614415 -0.294207
C39   C     C_3   0.857700 0.579774 0.694211 -0.437553
C40   C     C_3   0.972339 0.423219 0.435201 -0.231170
C41   C     C_3   0.025894 0.385891 0.377049 -0.268093
C42   C     C_3   0.993950 0.328388 0.309823 -0.398857
C43   C     C_R   0.182432 0.412472 0.048148 -0.155654
C44   C     C_R   0.317022 0.918301 0.950657 -0.156630
C45   C     C_R   0.722250 0.795361 0.024892 -0.148183
C46   C     C_R   0.823362 0.422737 0.025028 -0.146148
C47   C     C_R   0.176411 0.418564 0.974256 -0.148448
C48   C     C_R   0.324201 0.926302 0.024519 -0.146733
C49   C     C_R   0.275780 0.963221 0.143656 0.551550
C50   C     C_R   0.719200 0.810932 0.951198 -0.159600
C51   C     C_3   0.631824 0.427634 0.048955 -0.294564
C52   C     C_3   0.367783 0.445245 0.953293 -0.288151
C53   C     C_3   0.132270 0.931914 0.048836 -0.290049
C54   C     C_3   0.807292 0.107059 0.970936 -0.243453
C55   C     C_3   0.623247 0.412520 0.968762 -0.256023
C56   C     C_3   0.376060 0.428269 0.033466 -0.257499
C57   C     C_3   0.123499 0.915589 0.968734 -0.255615
C58   C     C_3   0.813102 0.086333 0.050946 -0.281251
C59   C     C_R   0.750331 0.425245 0.919303 0.011198
C60   C     C_R   0.224261 0.463191 0.856145 0.544319
C61   C     C_R   0.247771 0.425658 0.080967 0.014743
C62   C     C_R   0.250623 0.925735 0.919088 0.015028
C63   C     C_R   0.760285 0.875269 0.068264 0.021836
C64   C     C_R   0.506103 0.143513 0.422493 0.010009
C65   C     C_R   0.520316 0.165192 0.566911 0.004998
C66   C     C_R   0.006703 0.643323 0.422136 0.011382
C67   C     C_R   0.020555 0.664777 0.566601 0.004441
C68   C     C_R   0.565168 0.199737 0.447310 -0.028951
C69   C     C_R   0.573242 0.205422 0.522484 -0.002214
C70   C     C_R   0.065670 0.699604 0.447098 -0.029391
C71   C     C_R   0.775397 0.462106 0.143996 0.548557
C72   C     C_R   0.073445 0.705597 0.522334 -0.001865
C73   C     C_R   0.477559 0.074095 0.540125 -0.029789
C74   C     C_R   0.480476 0.050051 0.466059 -0.001062
C75   C     C_R   0.978503 0.572709 0.539501 -0.029794
C76   C     C_R   0.981615 0.549130 0.465305 -0.000049
C77   C     C_R   0.530934 0.177910 0.850888 0.538294
C78   C     C_R   0.470120 0.177528 0.149852 0.546127
C79   C     C_R   0.029891 0.678133 0.850231 0.538354
C80   C     C_R   0.969686 0.677535 0.149486 0.552417
C81   C     C_3   0.635233 0.139154 0.441421 -0.280931
C82   C     C_R   0.702104 0.475383 0.034616 0.006589
C83   C     C_3   0.640795 0.139161 0.520737 -0.241026
C84   C     C_3   0.135789 0.639194 0.441584 -0.281694
C85   C     C_3   0.141139 0.639850 0.520893 -0.240890
C86   C     C_R   0.747069 0.396192 0.415703 -0.001351
C87   C     C_R   0.253177 0.397609 0.583905 0.001856
C88   C     C_R   0.246861 0.896312 0.415808 -0.001752
C89   C     C_R   0.753461 0.897361 0.584009 0.002441
C90   C     C_R   0.800247 0.345193 0.456511 0.001744
C91   C     C_R   0.200816 0.347245 0.542958 0.014512
C92   C     C_R   0.299814 0.844918 0.456569 -0.000126
C93   C     C_R   0.294755 0.484076 0.966839 0.030783
C94   C     C_R   0.701202 0.846839 0.543053 0.014836
C95   C     C_R   0.797313 0.340160 0.529298 -0.007790
C96   C     C_R   0.209262 0.324143 0.471666 0.000382
C97   C     C_R   0.297128 0.840564 0.529385 -0.008521
C98   C     C_R   0.709771 0.823803 0.471789 -0.000309
C99   C     C_R   0.681769 0.424128 0.525276 -0.146358
C100  C     C_R   0.327729 0.388656 0.479724 -0.147463
C101  C     C_R   0.181646 0.925009 0.525428 -0.145537
C102  C     C_R   0.828095 0.889085 0.479700 -0.148604
C103  C     C_R   0.683645 0.428257 0.448971 -0.037436
C104  C     C_R   0.202805 0.978535 0.034115 0.026627
C105  C     C_R   0.319589 0.414911 0.553874 -0.048414
C106  C     C_R   0.183485 0.928531 0.449130 -0.035312
C107  C     C_R   0.819940 0.914768 0.554011 -0.048844
C108  C     C_3   0.831105 0.221838 0.450829 -0.285004
C109  C     C_3   0.168018 0.229981 0.557259 -0.270212
C110  C     C_3   0.329865 0.721089 0.451137 -0.283568
C111  C     C_3   0.668715 0.729225 0.557207 -0.270907
C112  C     C_3   0.830569 0.218457 0.531271 -0.260033
C113  C     C_3   0.180547 0.202913 0.479994 -0.268984
C114  C     C_3   0.330027 0.718600 0.531541 -0.259170
C115  C     C_R   0.799646 0.974178 0.962610 0.012664
C116  C     C_3   0.681452 0.702385 0.479949 -0.269961
C117  C     C_R   0.740347 0.383596 0.566274 -0.024646
C118  C     C_R   0.270560 0.348205 0.437682 -0.009803
C119  C     C_R   0.240336 0.884532 0.566436 -0.024070
C120  C     C_R   0.770884 0.848354 0.437713 -0.009937
C121  C     C_R   0.738353 0.365053 0.851783 0.537761
C122  C     C_R   0.261324 0.364477 0.148220 0.554353
C123  C     C_R   0.238355 0.864933 0.851825 0.546577
C124  C     C_R   0.763888 0.854112 0.144451 0.555300
C125  C     C_R   0.729590 0.951227 0.650444 0.521389
C126  C     C_R   0.694324 0.463406 0.961312 0.008978
C127  C     C_R   0.270242 0.950023 0.349247 0.534401
C128  C     C_R   0.229538 0.451273 0.650429 0.522912
C129  C     C_R   0.770260 0.449945 0.349171 0.535210
C130  C     C_R   0.533575 0.176814 0.642627 0.547204
C131  C     C_R   0.471260 0.172827 0.354609 0.536440
C132  C     C_R   0.033626 0.676728 0.642499 0.546480
C133  C     C_R   0.971427 0.672835 0.354485 0.536183
C134  C     C_R   0.735619 0.351312 0.642148 0.537725
C135  C     C_R   0.274330 0.316011 0.361484 0.557466
C136  C     C_R   0.235749 0.852017 0.642318 0.535721
Cr1   Cr    Cr6+3 0.769260 0.163750 0.750730 0.977636
Cr2   Cr    Cr6+3 0.385810 0.322400 0.252290 0.991024
Cr3   Cr    Cr6+3 0.114190 0.822400 0.747710 0.988127
Cr4   Cr    Cr6+3 0.885810 0.822400 0.252290 0.993712
Cr5   Cr    Cr6+3 0.230740 0.163750 0.249270 0.986416
Cr6   Cr    Cr6+3 0.269260 0.663750 0.750730 0.984722
Cr7   Cr    Cr6+3 0.730740 0.663750 0.249270 0.984828
Cr8   Cr    Cr6+3 0.612640 0.009910 0.748780 0.993410
Cr9   Cr    Cr6+3 0.387360 0.009910 0.251220 0.967948
Cr10  Cr    Cr6+3 0.112640 0.509910 0.748780 0.992733
Cr11  Cr    Cr6+3 0.887360 0.509910 0.251220 0.962674
Cr12  Cr    Cr6+3 0.614190 0.322400 0.747710 0.985392
H1    H     H_    0.486069 0.985100 0.064315 0.141809
H2    H     H_    0.683997 0.189092 0.542799 0.143256
H3    H     H_    0.561857 0.821955 0.406283 0.143921
H4    H     H_    0.472930 0.856846 0.480584 0.099636
H5    H     H_    0.417727 0.921763 0.414779 0.208667
H6    H     H_    0.846968 0.484915 0.707478 0.185577
H7    H     H_    0.903612 0.609027 0.725939 0.161763
H8    H     H_    0.812162 0.636275 0.709227 0.138696
H9    H     H_    0.884537 0.689371 0.604783 0.166147
H10   H     H_    0.822823 0.578229 0.583484 0.157077
H11   H     H_    0.906215 0.433271 0.560067 0.137371
H12   H     H_    0.958405 0.465354 0.633506 0.166955
H13   H     H_    0.135961 0.546600 0.420395 0.136600
H14   H     H_    0.032525 0.266137 0.285450 0.104174
H15   H     H_    0.945995 0.278644 0.321801 0.146447
H16   H     H_    0.981952 0.396357 0.268215 0.201616
H17   H     H_    0.056927 0.461380 0.357660 0.167927
H18   H     H_    0.063622 0.322470 0.401411 0.141728
H19   H     H_    0.976732 0.355515 0.478824 0.100466
H20   H     H_    0.919443 0.419248 0.414305 0.207076
H21   H     H_    0.184040 0.690348 0.542979 0.143717
H22   H     H_    0.634304 0.444490 0.552562 0.142668
H23   H     H_    0.377796 0.395777 0.455382 0.130450
H24   H     H_    0.134131 0.945911 0.552540 0.143386
H25   H     H_    0.878123 0.897058 0.455097 0.136794
H26   H     H_    0.884281 0.220635 0.429010 0.126802
H27   H     H_    0.112012 0.240559 0.570020 0.137849
H28   H     H_    0.382640 0.719227 0.428858 0.125433
H29   H     H_    0.538913 0.991329 0.941169 0.159433
H30   H     H_    0.612660 0.739261 0.569878 0.137534
H31   H     H_    0.795408 0.156342 0.425549 0.146060
H32   H     H_    0.198832 0.171846 0.594762 0.136828
H33   H     H_    0.293757 0.655755 0.426389 0.146203
H34   H     H_    0.699645 0.671271 0.594718 0.136778
H35   H     H_    0.795697 0.149702 0.552426 0.164910
H36   H     H_    0.222677 0.135917 0.471749 0.154426
H37   H     H_    0.295194 0.650305 0.553247 0.165222
H38   H     H_    0.723716 0.635581 0.471732 0.154516
H39   H     H_    0.883325 0.220680 0.555887 0.127918
H40   H     H_    0.979387 0.486561 0.062808 0.134968
H41   H     H_    0.132798 0.192963 0.448172 0.137494
H42   H     H_    0.383007 0.720720 0.555643 0.127572
H43   H     H_    0.633957 0.692716 0.447766 0.140922
H44   H     H_    0.521291 0.252850 0.056935 0.105691
H45   H     H_    0.475502 0.247225 0.944027 0.101952
H46   H     H_    0.019855 0.751903 0.055513 0.105526
H47   H     H_    0.976397 0.752681 0.943056 0.111679
H48   H     H_    0.861701 0.391971 0.920152 0.131853
H49   H     H_    0.137997 0.383043 0.078159 0.136004
H50   H     H_    0.362092 0.893046 0.919652 0.135886
H51   H     H_    0.022010 0.487142 0.936725 0.138664
H52   H     H_    0.692259 0.723979 0.047963 0.150471
H53   H     H_    0.874055 0.405681 0.048549 0.134130
H54   H     H_    0.126959 0.396821 0.950044 0.135682
H55   H     H_    0.375223 0.911565 0.047996 0.136791
H56   H     H_    0.684957 0.754742 0.919777 0.136998
H57   H     H_    0.097205 0.002350 0.071029 0.140970
H58   H     H_    0.759392 0.158148 0.955173 0.157435
H59   H     H_    0.596424 0.497232 0.071505 0.137311
H60   H     H_    0.399415 0.519587 0.931971 0.141320
H61   H     H_    0.634153 0.341223 0.078878 0.130659
H62   H     H_    0.173677 0.696334 0.414515 0.143812
H63   H     H_    0.370785 0.360090 0.922473 0.128156
H64   H     H_    0.134087 0.845917 0.079210 0.131347
H65   H     H_    0.856127 0.139901 0.947195 0.143589
H66   H     H_    0.620992 0.316751 0.952432 0.156211
H67   H     H_    0.383469 0.332486 0.048908 0.158630
H68   H     H_    0.120649 0.819604 0.952921 0.158099
H69   H     H_    0.865544 0.105795 0.073279 0.140430
H70   H     H_    0.582104 0.472033 0.945071 0.141264
H71   H     H_    0.413429 0.491405 0.058352 0.140736
H72   H     H_    0.082653 0.975378 0.944752 0.143083
H73   H     H_    0.136840 0.549415 0.544655 0.159327
H74   H     H_    0.769014 0.126111 0.081156 0.135205
H75   H     H_    0.488956 0.639729 0.403295 0.128713
H76   H     H_    0.515955 0.544893 0.329872 0.155658
H77   H     H_    0.448938 0.499075 0.388680 0.169918
H78   H     H_    0.530800 0.409614 0.460194 0.178983
H79   H     H_    0.560854 0.554745 0.482834 0.148401
H80   H     H_    0.631781 0.544109 0.370291 0.181045
H81   H     H_    0.612099 0.389402 0.362174 0.154121
H82   H     H_    0.477320 0.636309 0.631745 0.120133
H83   H     H_    0.497034 0.497094 0.677369 0.184907
H84   H     H_    0.673254 0.196300 0.414500 0.144081
H85   H     H_    0.549980 0.546145 0.605007 0.133933
H86   H     H_    0.472246 0.388251 0.557651 0.177514
H87   H     H_    0.442429 0.532951 0.522625 0.162821
H88   H     H_    0.365635 0.543423 0.626771 0.190672
H89   H     H_    0.384680 0.390637 0.648336 0.147116
H90   H     H_    0.011996 0.133656 0.375266 0.136828
H91   H     H_    0.002464 0.992655 0.330585 0.187389
H92   H     H_    0.945562 0.034756 0.402315 0.141343
H93   H     H_    0.029706 0.907305 0.459258 0.184111
H94   H     H_    0.057921 0.054589 0.480896 0.150066
H95   H     H_    0.636293 0.048539 0.544233 0.159621
H96   H     H_    0.131456 0.043538 0.370317 0.181120
H97   H     H_    0.113129 0.888426 0.362034 0.151224
H98   H     H_    0.977022 0.135717 0.633355 0.119967
H99   H     H_    0.997868 0.996054 0.677932 0.186643
H100  H     H_    0.049985 0.047526 0.605335 0.133716
H101  H     H_    0.972771 0.888631 0.557958 0.178043
H102  H     H_    0.942721 0.033799 0.523837 0.160527
H103  H     H_    0.865793 0.042764 0.627325 0.191207
H104  H     H_    0.884900 0.889666 0.648505 0.147669
H105  H     H_    0.343331 0.990567 0.707022 0.184191
H106  H     H_    0.635184 0.046770 0.419887 0.136495
H107  H     H_    0.400579 0.113728 0.725899 0.160536
H108  H     H_    0.309538 0.142639 0.707629 0.139671
H109  H     H_    0.383787 0.192955 0.604176 0.167271
H110  H     H_    0.321745 0.082490 0.582299 0.157246
H111  H     H_    0.404695 0.935608 0.561753 0.137975
H112  H     H_    0.456422 0.969419 0.635074 0.167433
H113  H     H_    0.531360 0.755854 0.292650 0.110606
H114  H     H_    0.444180 0.775514 0.325703 0.147188
H115  H     H_    0.482644 0.887780 0.270533 0.195467
H116  H     H_    0.555375 0.958407 0.359435 0.169468
O1    O     O_R   0.784290 0.290360 0.830540 -0.533405
O2    O     O_R   0.456020 0.282110 0.333230 -0.528551
O3    O     O_R   0.043980 0.782110 0.666770 -0.532265
O4    O     O_R   0.956020 0.782110 0.333230 -0.533368
O5    O     O_R   0.679070 0.374030 0.674430 -0.509616
O6    O     O_R   0.320930 0.374030 0.325570 -0.508881
O7    O     O_R   0.179070 0.874030 0.674430 -0.509996
O8    O     O_R   0.820930 0.874030 0.325570 -0.505320
O9    O     O_3   0.665360 0.165350 0.749070 -0.247707
O10   O     O_3   0.334640 0.165350 0.250930 -0.261543
O11   O     O_3   0.165360 0.665350 0.749070 -0.249270
O12   O     O_R   0.215710 0.290360 0.169460 -0.520668
O13   O     O_3   0.834640 0.665350 0.250930 -0.262522
O14   O     O_R   0.762610 0.041070 0.825230 -0.502466
O15   O     O_R   0.237390 0.041070 0.174770 -0.496115
O16   O     O_R   0.262610 0.541070 0.825230 -0.496158
O17   O     O_R   0.737390 0.541070 0.174770 -0.501415
O18   O     O_R   0.667390 0.924160 0.829970 -0.524968
O19   O     O_R   0.332610 0.924160 0.170030 -0.531562
O20   O     O_R   0.167390 0.424160 0.829970 -0.528096
O21   O     O_R   0.832610 0.424160 0.170030 -0.534616
O22   O     O_R   0.553980 0.081420 0.821780 -0.497138
O23   O     O_R   0.284290 0.790360 0.830540 -0.523118
O24   O     O_R   0.446020 0.081420 0.178220 -0.509433
O25   O     O_R   0.053980 0.581420 0.821780 -0.500676
O26   O     O_R   0.946020 0.581420 0.178220 -0.514936
O27   O     O_R   0.543210 0.283170 0.826740 -0.528171
O28   O     O_R   0.456790 0.283170 0.173260 -0.524808
O29   O     O_R   0.043210 0.783170 0.826740 -0.526817
O30   O     O_R   0.956790 0.783170 0.173260 -0.517465
O31   O     O_R   0.678350 0.375000 0.822720 -0.498313
O32   O     O_R   0.321650 0.375000 0.177280 -0.495752
O33   O     O_R   0.178350 0.875000 0.822720 -0.499570
O34   O     O_R   0.715710 0.790360 0.169460 -0.525956
O35   O     O_R   0.821650 0.875000 0.177280 -0.489582
O36   O     O_R   0.785060 0.289300 0.670580 -0.530414
O37   O     O_R   0.214940 0.289300 0.329420 -0.522554
O38   O     O_R   0.285060 0.789300 0.670580 -0.531729
O39   O     O_R   0.714940 0.789300 0.329420 -0.519421
O40   O     O_R   0.763330 0.040090 0.676940 -0.532324
O41   O     O_R   0.236670 0.040090 0.323060 -0.532265
O42   O     O_R   0.263330 0.540090 0.676940 -0.532616
O43   O     O_R   0.736670 0.540090 0.323060 -0.532298
O44   O     O_R   0.668160 0.923110 0.670000 -0.516191
O45   O     O_R   0.554690 0.080440 0.673480 -0.508671
O46   O     O_R   0.331840 0.923110 0.330000 -0.536067
O47   O     O_R   0.168160 0.423110 0.670000 -0.515002
O48   O     O_R   0.831840 0.423110 0.330000 -0.535609
O49   O     O_R   0.445310 0.080440 0.326520 -0.513013
O50   O     O_R   0.054690 0.580440 0.673480 -0.508914
O51   O     O_R   0.945310 0.580440 0.326520 -0.513793
O52   O     O_R   0.543980 0.282110 0.666770 -0.532188

loop_
_geom_bond_atom_site_label_1
_geom_bond_atom_site_label_2
_ccdc_geom_bond_type
C99   C103  A    
C114  H42   S    
C87   C91   A    
C55   H66   S    
C90   C95   A    
C89   C125  S    
C25   H94   S    
C45   H52   S    
Cr5   O37   S    
C48   H55   S    
Cr2   O10   S    
C68   C81   S    
C37   H12   S    
C17   H80   S    
C113  H36   S    
C94   C111  S    
Cr7   O13   S    
C73   C74   A    
C132  O50   A    
C89   C94   A    
C27   H103  S    
C28   H101  S    
C56   H67   S    
C91   C96   A    
C125  O40   A    
C26   H91   S    
C20   H88   S    
C32   H105  S    
C70   C84   S    
C37   C75   S    
C64   C131  S    
C21   C22   S    
Cr11  O13   S    
C129  O48   A    
C55   H70   S    
C128  O42   A    
C39   H6    S    
Cr5   O15   S    
C86   C90   A    
C121  O1    A    
C6    C11   D    
Cr12  O27   S    
Cr10  O50   S    
C111  H34   S    
C85   H21   S    
C40   C76   S    
C134  O5    A    
C75   C76   A    
C37   C38   S    
Cr7   O43   S    
C51   H61   S    
C21   H86   S    
C22   H82   S    
C57   H68   S    
C66   C76   A    
C43   H49   S    
C134  O36   A    
C124  O35   A    
C35   H48   S    
C12   C71   S    
C24   C63   A    
C16   C115  A    
C9    H29   S    
C43   C61   A    
Cr2   O6    S    
Cr3   O3    S    
Cr11  O51   S    
Cr8   O45   S    
C19   H76   S    
C38   H9    S    
C5    C8    D    
C109  H27   S    
C98   C120  A    
C110  H28   S    
C119  C136  S    
C36   H113  S    
C125  O44   A    
Cr5   O41   S    
C79   O29   A    
C129  O43   A    
C80   O26   A    
C66   C70   A    
C45   C50   A    
C32   H107  S    
C58   H69   S    
C136  O38   A    
C15   C49   S    
C18   H79   S    
C4    C77   S    
C20   C21   S    
C108  H31   S    
C49   O15   A    
C43   C47   A    
Cr6   O11   S    
C84   H13   S    
C44   C48   A    
Cr7   O34   S    
C44   H50   S    
C29   H98   S    
C72   C85   S    
C95   C117  A    
Cr6   O42   S    
C114  H37   S    
C59   C126  A    
C30   H112  S    
C64   C68   A    
C38   C39   S    
C51   H59   S    
C13   C57   S    
C53   C104  S    
Cr1   O40   S    
C67   C72   A    
Cr9   O24   S    
Cr9   O46   S    
C46   H53   S    
C110  H33   S    
C10   H40   S    
C110  C114  S    
C14   C93   A    
C51   C55   S    
Cr6   O23   S    
C83   H2    S    
Cr3   O11   S    
C123  O33   A    
C15   C48   A    
C78   O24   A    
C87   C128  S    
C81   C83   S    
C92   C97   A    
C130  O52   A    
Cr7   O17   S    
C13   C62   A    
Cr8   O22   S    
C36   H115  S    
C52   C93   S    
C12   C46   A    
Cr6   O16   S    
C25   C26   S    
C47   H54   S    
C39   H7    S    
Cr11  O48   S    
C99   C117  A    
C31   C32   S    
C87   C105  A    
C41   H18   S    
C17   C18   S    
C102  C107  A    
C7    H46   S    
Cr7   O39   S    
C121  O31   A    
C29   H100  S    
C67   C75   A    
Cr9   O19   S    
Cr10  O20   S    
C101  C106  A    
Cr12  O31   S    
Cr12  O5    S    
C42   H14   S    
C57   H72   S    
C25   H93   S    
C14   C60   S    
C37   H11   S    
Cr9   O10   S    
C19   H77   S    
C90   C108  S    
C34   H116  S    
C2    C56   S    
C132  O3    A    
C109  H32   S    
C92   C110  S    
Cr10  O47   S    
C53   H64   S    
C71   O21   A    
C31   H110  S    
C34   C36   S    
C28   H102  S    
C10   C11   S    
Cr11  O21   S    
C26   H92   S    
C122  O32   A    
C97   C114  S    
C85   H73   S    
C7    C10   D    
C41   C42   S    
C67   C132  S    
C112  H39   S    
C124  O34   A    
C99   H22   S    
C102  H25   S    
C128  O47   A    
C28   C29   S    
C16   C50   A    
C88   C127  S    
C95   C112  S    
C30   C31   S    
Cr10  O25   S    
C84   H62   S    
C94   C98   A    
C83   H95   S    
C35   C59   A    
C18   C19   S    
C82   C126  A    
C40   H19   S    
Cr2   O28   S    
C22   H83   S    
C68   C69   A    
C54   H58   S    
C108  H26   S    
Cr4   O4    S    
C111  C116  S    
C112  H35   S    
C2    C61   A    
Cr6   O38   S    
C117  C134  S    
C6    H47   S    
C63   C124  S    
Cr4   O35   S    
C4    H45   S    
C71   O17   A    
C19   H75   S    
C84   C85   S    
C38   H10   S    
Cr10  O11   S    
C53   C57   S    
C116  H38   S    
C49   O19   A    
C108  C112  S    
Cr8   O9    S    
C36   H114  S    
C23   H97   S    
C27   H104  S    
C22   H85   S    
C26   H90   S    
C27   C107  S    
C54   C115  S    
C32   H108  S    
C55   C126  S    
C1    C16   S    
C13   C104  A    
C123  O23   A    
C116  H43   S    
Cr8   O18   S    
C96   C113  S    
C100  C118  A    
C133  O51   A    
C102  C120  A    
C20   C105  S    
C127  O46   A    
C17   H81   S    
Cr4   O13   S    
C113  H41   S    
C65   C130  S    
C8    H1    S    
C1    O14   A    
C6    C79   S    
C21   H87   S    
C65   C69   A    
C97   C119  A    
C136  O7    A    
C33   H5    S    
C17   C103  S    
C11   H51   S    
C5    C78   S    
C33   C74   S    
C24   C58   S    
C60   O16   A    
C64   C74   A    
Cr12  O9    S    
C23   H96   S    
C35   C46   A    
C56   H71   S    
C118  C135  S    
Cr8   O44   S    
C7    C80   S    
Cr11  O26   S    
C59   C121  S    
C54   H65   S    
C77   O22   A    
C58   H74   S    
C131  O2    A    
C100  C105  A    
C101  H24   S    
C96   C118  A    
Cr3   O33   S    
Cr4   O30   S    
C1    O18   A    
C20   H89   S    
C127  O41   A    
C65   C73   A    
Cr12  O52   S    
C18   H78   S    
Cr1   O1    S    
C88   C92   A    
Cr9   O49   S    
C8    C9    S    
C81   H84   S    
C41   H17   S    
C111  H30   S    
C53   H57   S    
C60   O20   A    
C15   C104  A    
C109  C113  S    
C100  H23   S    
C29   H99   S    
C89   C107  A    
Cr5   O10   S    
C86   C103  A    
C135  O37   A    
C3    O39   A    
C62   C123  S    
Cr1   O14   S    
C30   H111  S    
C101  C119  A    
Cr2   O32   S    
Cr3   O29   S    
C30   C73   S    
C42   H15   S    
Cr2   O2    S    
C44   C62   A    
C23   C106  S    
Cr3   O7    S    
C45   C63   A    
C135  O6    A    
C3    O8    A    
Cr4   O8    S    
C61   C122  S    
C69   C83   S    
C122  O12   A    
C52   H63   S    
C66   C133  S    
C88   C106  A    
C98   C116  S    
C33   C34   S    
C42   H16   S    
C12   C82   A    
C31   H109  S    
C51   C82   S    
C79   O25   A    
C80   O30   A    
C40   C41   S    
C81   H106  S    
C133  O4    A    
C54   C58   S    
C52   H60   S    
C2    C93   A    
C5    H44   S    
C33   H4    S    
C77   O27   A    
C34   H3    S    
C86   C129  S    
C78   O28   A    
C14   C47   A    
C50   H56   S    
C39   H8    S    
C91   C109  S    
C4    C9    D    
C131  O49   A    
Cr1   O9    S    
C23   C25   S    
C40   H20   S    
C3    C120  S    
C24   C115  A    
C27   C28   S    
Cr1   O36   S    
C70   C72   A    
Cr5   O12   S    
C52   C56   S    
C130  O45   A    
