data_mof_unit_755.cif
_audit_creation_date              2012-12-10T18:08:23-0500
_audit_creation_method            fapswitch 2.2
_symmetry_space_group_name_H-M    P1
_symmetry_Int_Tables_number       1
_space_group_crystal_system       triclinic
_cell_length_a                    12.683715
_cell_length_b                    13.136161
_cell_length_c                    14.163612
_cell_angle_alpha                 90.504946
_cell_angle_beta                  102.461498
_cell_angle_gamma                 83.540161
_cell_volume                      2289.35822893

loop_
_atom_site_label
_atom_site_type_symbol
_atom_type_description
_atom_site_fract_x
_atom_site_fract_y
_atom_site_fract_z
_atom_type_partial_charge
C1    C     C_R   0.440155 0.690563 0.481660 0.867297
C2    C     C_1   0.496376 0.498611 0.227319 -0.096102
C3    C     C_R   0.721036 0.063928 0.458343 -0.048304
C4    C     C_R   0.594272 0.200360 0.498198 -0.076706
C5    C     C_R   0.294776 0.836365 0.447064 -0.293150
C6    C     C_R   0.261612 0.940449 0.430204 0.424265
C7    C     C_R   0.339394 0.007877 0.432472 -0.222861
C8    C     C_R   0.450264 0.970353 0.442087 0.028319
C9    C     C_R   0.478352 0.864704 0.436423 0.015775
C10   C     C_R   0.533928 0.034484 0.456398 0.052650
C11   C     C_R   0.639588 0.997038 0.443683 -0.017745
C12   C     C_R   0.501473 0.500294 0.670685 0.880264
C13   C     C_R   0.659762 0.894236 0.416787 0.394132
C14   C     C_R   0.578914 0.829584 0.413254 -0.258325
C15   C     C_R   0.515595 0.133630 0.488983 -0.155020
C16   C     C_R   0.698075 0.165162 0.484535 -0.163688
C17   C     C_R   0.404006 0.798027 0.453461 -0.139114
C18   C     C_R   0.087299 0.340080 0.376859 -0.219392
C19   C     C_R   0.799212 0.631937 0.608147 0.080910
C20   C     C_R   0.904320 0.658420 0.635955 -0.188154
C21   C     C_R   0.986956 0.605414 0.598406 -0.173049
C22   C     C_R   0.964235 0.525249 0.532598 0.058978
C23   C     C_R   0.560071 0.308694 0.508607 0.900207
C24   C     C_R   0.855548 0.501408 0.507195 0.185512
C25   C     C_R   0.043619 0.469619 0.489414 -0.042755
C26   C     C_R   0.011458 0.391108 0.422806 -0.055982
C27   C     C_R   0.902503 0.369309 0.398836 0.394056
C28   C     C_R   0.827546 0.424295 0.442217 -0.275489
C29   C     C_R   0.153298 0.490649 0.507185 -0.089418
C30   C     C_R   0.188355 0.373538 0.385202 0.513583
C31   C     C_R   0.498628 0.499598 0.329343 0.897852
C32   C     C_1   0.504186 0.500510 0.772843 -0.181069
C33   C     C_1   0.503911 0.500116 0.858125 0.016934
C34   C     C_1   0.501765 0.499334 0.957739 0.045064
C35   C     C_1   0.499400 0.498721 0.042582 0.053109
C36   C     C_1   0.497008 0.498369 0.142129 0.056534
H1    H     H_    0.184909 0.545590 0.559522 0.145655
H2    H     H_    0.745908 0.407283 0.422130 0.251997
H3    H     H_    0.802245 0.039749 0.448799 0.258085
H4    H     H_    0.235231 0.785485 0.453957 0.198647
N1    N     N_R   0.222200 0.444680 0.454480 -0.151650
N2    N     N_R   0.776970 0.554780 0.545050 -0.115918
O1    O     O_R   0.366740 0.627160 0.478260 -0.612065
O2    O     O_R   0.544830 0.662520 0.507340 -0.623793
O3    O     O_R   0.410930 0.482320 0.611740 -0.604918
O4    O     O_R   0.589030 0.517680 0.640820 -0.596737
O5    O     O_R   0.455170 0.337480 0.492660 -0.564247
O6    O     O_R   0.633260 0.372840 0.521740 -0.640864
O7    O     O_R   0.410970 0.482320 0.359180 -0.516062
O8    O     O_R   0.589070 0.517680 0.388260 -0.614660
Zn1   Zn    Zn3+2 0.381090 0.476390 0.480580 1.015584
Zn2   Zn    Zn3+2 0.618910 0.523610 0.519420 0.956382
H5    H     H_    0.760590 0.216183 0.491870 0.193501
S1    S     S_3+6 0.852722 0.279215 0.310226 0.033047
O9    O     O_2   0.884664 0.300794 0.216778 -0.237519
O10   O     O_2   0.900715 0.173260 0.346093 -0.228507
O11   O     O_3   0.716331 0.285686 0.289501 -0.600936
H6    H     H_    0.697735 0.224027 0.251560 0.395735
H7    H     H_    0.065342 0.279503 0.327492 0.271042
H8    H     H_    0.734856 0.672450 0.637636 0.137329
H9    H     H_    0.066944 0.629182 0.621704 0.142758
H10   H     H_    0.921652 0.719963 0.686259 0.173594
S2    S     S_3+6 0.785781 0.842458 0.391500 0.041662
O12   O     O_2   0.783473 0.731858 0.363562 -0.311560
O13   O     O_2   0.808537 0.902667 0.309835 -0.210738
O14   O     O_3   0.884624 0.851516 0.490665 -0.540703
H11   H     H_    0.945897 0.801582 0.481253 0.408371
H12   H     H_    0.439340 0.160427 0.508005 0.163336
H13   H     H_    0.311282 0.088589 0.421839 0.191274
S3    S     S_3+6 0.122980 0.986689 0.405325 0.073113
O15   O     O_2   0.092505 0.027798 0.496295 -0.244001
O16   O     O_2   0.101730 0.071362 0.330706 -0.234472
O17   O     O_3   0.047693 0.891903 0.363559 -0.483183
H14   H     H_    0.066842 0.873034 0.300996 0.369559
H15   H     H_    0.594117 0.752137 0.389346 0.214793
S4    S     S_3+6 0.252231 0.338335 0.286992 0.059187
O18   O     O_2   0.189678 0.263639 0.223010 -0.257789
O19   O     O_2   0.249904 0.432777 0.227112 -0.290173
O20   O     O_3   0.380251 0.282572 0.321840 -0.558917
H16   H     H_    0.408149 0.275026 0.261702 0.375646

loop_
_geom_bond_atom_site_label_1
_geom_bond_atom_site_label_2
_ccdc_geom_bond_type
S2    O13   D    
C24   N2    A    
O17   H14   S    
C35   C36   S    
C18   C26   A    
S4    O20   S    
C27   S1    S    
C7    C8    A    
C26   C27   A    
S4    O19   D    
C10   C15   A    
C5    C6    A    
C5    C17   A    
O3    Zn1   S    
O4    Zn2   S    
C34   C35   T    
C16   H5    S    
C1    O1    A    
C19   C20   A    
C8    C9    A    
O7    Zn1   S    
C22   C25   A    
O8    Zn2   S    
C30   N1    A    
S3    O15   D    
C18   C30   A    
C21   H9    S    
C19   N2    A    
O2    Zn2   S    
O14   H11   S    
S2    O14   S    
C3    H3    S    
C21   C22   A    
C12   C32   S    
C31   O7    A    
C25   C29   A    
S1    O10   D    
C23   O5    A    
S4    O18   D    
C12   O4    A    
C4    C23   S    
O5    Zn1   S    
C25   C26   A    
S2    O12   D    
C2    C31   S    
C4    C16   A    
C9    C14   A    
C30   S4    S    
C1    O2    A    
C13   S2    S    
C28   H2    S    
S3    O17   S    
C33   C34   S    
C9    C17   A    
C22   C24   A    
C31   O8    A    
C2    C36   T    
C6    S3    S    
S1    O9    D    
C23   O6    A    
C29   N1    A    
C24   C28   A    
C12   O3    A    
C7    H13   S    
C6    C7    A    
C19   H8    S    
C1    C17   S    
C14   H15   S    
C4    C15   A    
C32   C33   T    
C11   C13   A    
O1    Zn1   S    
O11   H6    S    
C15   H12   S    
C20   H10   S    
C3    C11   A    
C10   C11   A    
O20   H16   S    
C18   H7    S    
O6    Zn2   S    
C20   C21   A    
C8    C10   A    
C5    H4    S    
C29   H1    S    
C27   C28   A    
S3    O16   D    
C13   C14   A    
N1    Zn1   S    
C3    C16   A    
N2    Zn2   S    
S1    O11   S    
