data_mof_unit_1612.cif
_audit_creation_date              2012-12-10T17:15:47-0500
_audit_creation_method            fapswitch 2.2
_symmetry_space_group_name_H-M    P1
_symmetry_Int_Tables_number       1
_space_group_crystal_system       triclinic
_cell_length_a                    10.157779
_cell_length_b                    10.6517
_cell_length_c                    10.832029
_cell_angle_alpha                 90.67383
_cell_angle_beta                  95.698734
_cell_angle_gamma                 79.296804
_cell_volume                      1145.89147921

loop_
_atom_site_label
_atom_site_type_symbol
_atom_type_description
_atom_site_fract_x
_atom_site_fract_y
_atom_site_fract_z
_atom_type_partial_charge
C1    C     C_R   0.443660 0.504884 0.267240 0.940124
C2    C     C_2   0.489352 0.464141 0.933561 -0.165971
C3    C     C_2   0.075911 0.479737 0.501420 0.055896
C4    C     C_R   0.505873 0.259042 0.507691 0.863476
C5    C     C_2   0.925930 0.509636 0.511251 -0.033546
C6    C     C_R   0.556573 0.488135 0.732650 0.910247
C7    C     C_R   0.497801 0.739878 0.501062 0.851021
C8    C     C_R   0.722795 0.071238 0.665225 0.406477
C9    C     C_R   0.769877 0.001916 0.775181 -0.195991
C10   C     C_R   0.726814 0.888891 0.798246 -0.201952
C11   C     C_R   0.639807 0.842388 0.709791 -0.180056
C12   C     C_R   0.609125 0.040077 0.590429 -0.025850
C13   C     C_R   0.581741 0.917082 0.604566 0.068501
C14   C     C_3   0.148175 0.711920 0.687579 0.231744
C15   C     C_3   0.090671 0.653412 0.794211 -0.438136
C16   C     C_3   0.129439 0.713080 0.918082 -0.966111
C17   C     C_R   0.516433 0.123809 0.506425 -0.081716
C18   C     C_R   0.419672 0.079290 0.425678 -0.174080
C19   C     C_R   0.413083 0.952137 0.425220 -0.177598
C20   C     C_R   0.495061 0.872120 0.512987 -0.069589
C21   C     C_2   0.412001 0.496149 0.135123 -0.384157
C22   C     C_2   0.513945 0.462361 0.065684 -0.137098
C23   C     C_2   0.589253 0.471537 0.864538 -0.359460
H1    H     H_    0.351186 0.142978 0.360782 0.150706
H2    H     H_    0.386245 0.467693 0.893199 0.194560
H3    H     H_    0.618267 0.440678 0.105710 0.193359
H4    H     H_    0.692189 0.467781 0.905232 0.157895
H5    H     H_    0.117627 0.817245 0.691109 0.193066
H6    H     H_    0.259298 0.692385 0.699165 0.168549
H7    H     H_    0.979069 0.669682 0.777264 0.237239
H8    H     H_    0.129475 0.548749 0.798995 0.221799
H9    H     H_    0.240687 0.700292 0.936323 0.268267
H10   H     H_    0.089950 0.666359 0.993924 0.272012
H11   H     H_    0.085544 0.816732 0.917366 0.271572
H12   H     H_    0.307968 0.517534 0.094821 0.159373
H13   H     H_    0.033669 0.092882 0.724761 0.347245
H14   H     H_    0.885713 0.582896 0.574934 0.186026
H15   H     H_    0.117863 0.392591 0.455330 0.105610
H16   H     H_    0.883746 0.378577 0.390073 0.192343
H17   H     H_    0.851514 0.027359 0.836559 0.154336
H18   H     H_    0.768730 0.832574 0.880219 0.164674
H19   H     H_    0.614455 0.750131 0.726254 0.129868
H20   H     H_    0.344207 0.916005 0.356879 0.158284
N1    N     N_2   0.157290 0.551390 0.551110 0.056658
N2    N     N_2   0.842740 0.448550 0.448960 -0.170542
O1    O     O_R   0.568950 0.489660 0.307530 -0.614090
O2    O     O_2   0.830851 0.138419 0.462813 -0.264688
O3    O     O_2   0.844616 0.272311 0.648839 -0.332537
O4    O     O_3   0.001336 0.051875 0.647956 -0.564063
O5    O     O_R   0.348880 0.522640 0.340350 -0.611199
O6    O     O_R   0.610060 0.300270 0.483590 -0.527496
O7    O     O_R   0.389990 0.333260 0.516410 -0.640022
O8    O     O_R   0.651120 0.477360 0.659650 -0.574479
O9    O     O_R   0.431050 0.510340 0.692470 -0.651732
O10   O     O_R   0.610010 0.666740 0.483590 -0.611967
O11   O     O_R   0.389940 0.699730 0.516410 -0.612548
O12   O     O_3   0.094977 0.672205 0.571810 -0.560345
S1    S     S_3+6 0.848584 0.138666 0.602238 0.018828
Zn1   Zn    Zn3+2 0.646940 0.477980 0.478090 1.024905
Zn2   Zn    Zn3+2 0.353060 0.522020 0.521910 0.972358

loop_
_geom_bond_atom_site_label_1
_geom_bond_atom_site_label_2
_ccdc_geom_bond_type
C12   C17   A    
C2    C22   S    
O3    S1    D    
C8    C9    A    
C15   H8    S    
C16   H11   S    
C21   H12   S    
O10   Zn1   S    
O1    Zn1   S    
C16   H9    S    
O7    Zn2   S    
C1    O5    A    
C19   C20   A    
O4    S1    S    
H16   N2    S    
N1    O12   S    
C8    C12   A    
O5    Zn2   S    
C17   C18   A    
O8    Zn1   S    
O9    Zn2   S    
C21   C22   D    
O2    S1    D    
C1    C21   S    
C11   C13   A    
C1    O1    A    
C7    O11   A    
N1    Zn2   S    
C18   H1    S    
C6    C23   S    
C7    O10   A    
C19   H20   S    
C18   C19   A    
C2    H2    S    
C23   H4    S    
C4    O7    A    
C9    H17   S    
C22   H3    S    
C10   H18   S    
C16   H10   S    
C3    N1    D    
O6    Zn1   S    
C10   C11   A    
C4    C17   S    
C4    O6    A    
C14   H5    S    
C15   C16   S    
C12   C13   A    
C15   H7    S    
C7    C20   S    
C9    C10   A    
C2    C23   D    
C14   O12   S    
C14   C15   S    
C5    H14   S    
C11   H19   S    
C6    O8    A    
C13   C20   A    
C8    S1    S    
C5    N2    D    
C6    O9    A    
N2    Zn1   S    
H13   O4    S    
O11   Zn2   S    
C3    H15   S    
C14   H6    S    
C3    C5    S    
