data_mof_unit_4566.cif
_audit_creation_date              2012-12-11T16:12:44-0500
_audit_creation_method            fapswitch 2.2
_symmetry_space_group_name_H-M    P1
_symmetry_Int_Tables_number       1
_space_group_crystal_system       triclinic
_cell_length_a                    23.482438
_cell_length_b                    13.593709
_cell_length_c                    28.467977
_cell_angle_alpha                 90.040298
_cell_angle_beta                  90.499069
_cell_angle_gamma                 90.00368
_cell_volume                      9087.01354713

loop_
_atom_site_label
_atom_site_type_symbol
_atom_type_description
_atom_site_fract_x
_atom_site_fract_y
_atom_site_fract_z
_atom_type_partial_charge
C1    C     C_R   0.284763 0.005292 0.816099 0.543164
C2    C     C_R   0.715237 0.005242 0.183894 0.542485
C3    C     C_R   0.784762 0.505294 0.816098 0.543164
C4    C     C_R   0.215236 0.505241 0.183894 0.542481
C5    C     C_3   0.492836 0.835857 0.954193 0.067398
C6    C     C_3   0.507131 0.835770 0.045823 0.067414
C7    C     C_3   0.992866 0.335857 0.954185 0.067402
C8    C     C_3   0.007159 0.335773 0.045816 0.067409
C9    C     C_3   0.504279 0.728919 0.026935 -0.212729
C10   C     C_3   0.496119 0.728971 0.972920 -0.212672
C11   C     C_3   0.004407 0.228926 0.026917 -0.212727
C12   C     C_3   0.996246 0.228978 0.972902 -0.212678
C13   C     C_1   0.516622 0.834693 0.096682 -0.073361
C14   C     C_1   0.483349 0.834854 0.903333 -0.073224
C15   C     C_1   0.016645 0.334695 0.096674 -0.073363
C16   C     C_1   0.983374 0.334855 0.903325 -0.073223
C17   C     C_1   0.266628 0.633844 0.860912 -0.012955
C18   C     C_1   0.733362 0.633690 0.139100 -0.012964
C19   C     C_1   0.766628 0.133838 0.860911 -0.012937
C20   C     C_1   0.233362 0.133696 0.139099 -0.012976
C21   C     C_R   0.289892 0.652713 0.982135 -0.106881
C22   C     C_R   0.709623 0.651861 0.017947 -0.106961
C23   C     C_R   0.790061 0.152421 0.982127 -0.106844
C24   C     C_R   0.209939 0.152425 0.017933 -0.106959
C25   C     C_R   0.284626 0.640013 0.030601 -0.108670
C26   C     C_R   0.714920 0.639288 0.969472 -0.108611
C27   C     C_R   0.784790 0.139737 0.030594 -0.108633
C28   C     C_R   0.215227 0.139820 0.969459 -0.108622
C29   C     C_R   0.218743 0.505265 0.016749 -0.105733
C30   C     C_R   0.781739 0.505909 0.983180 -0.105786
C31   C     C_R   0.718554 0.005522 0.016750 -0.105714
C32   C     C_R   0.281395 0.005393 0.983186 -0.105785
C33   C     C_R   0.223889 0.518092 0.968313 -0.107635
C34   C     C_R   0.776561 0.518608 0.031624 -0.107649
C35   C     C_R   0.723706 0.018332 0.968314 -0.107607
C36   C     C_R   0.276226 0.018125 0.031630 -0.107664
C37   C     C_R   0.259285 0.592145 0.950973 0.040810
C38   C     C_R   0.740680 0.591916 0.049038 0.040850
C39   C     C_R   0.759283 0.092110 0.950969 0.040797
C40   C     C_R   0.240678 0.091972 0.049033 0.040874
C41   C     C_R   0.248724 0.566640 0.047923 0.040977
C42   C     C_R   0.751308 0.566678 0.952078 0.041038
C43   C     C_R   0.748709 0.066642 0.047921 0.040965
C44   C     C_R   0.251284 0.066664 0.952076 0.041059
C45   C     C_R   0.445948 0.824135 0.816665 0.545582
C46   C     C_R   0.554051 0.824086 0.183338 0.543549
C47   C     C_R   0.945950 0.324135 0.816664 0.545585
C48   C     C_R   0.054053 0.324086 0.183336 0.543548
C49   C     C_1   0.241192 0.553965 0.097495 -0.059207
C50   C     C_1   0.758824 0.554083 0.902503 -0.059041
C51   C     C_1   0.741187 0.053969 0.097494 -0.059182
C52   C     C_1   0.258820 0.054068 0.902503 -0.059053
C53   C     C_1   0.262462 0.610454 0.901458 -0.059042
C54   C     C_1   0.737516 0.610242 0.098552 -0.059155
C55   C     C_1   0.762461 0.110437 0.901456 -0.059020
C56   C     C_1   0.237517 0.110265 0.098549 -0.059161
C57   C     C_1   0.231492 0.536709 0.138065 -0.013263
C58   C     C_1   0.768520 0.536832 0.861927 -0.012895
C59   C     C_1   0.731492 0.036712 0.138065 -0.013244
C60   C     C_1   0.268521 0.036823 0.861929 -0.012906
C61   C     C_1   0.466395 0.830941 0.637497 -0.029655
C62   C     C_1   0.527428 0.833204 0.359995 -0.018952
C63   C     C_1   0.966389 0.330939 0.637495 -0.029647
C64   C     C_1   0.027425 0.333205 0.359993 -0.018948
C65   C     C_R   0.470817 0.734808 0.519064 0.027730
C66   C     C_R   0.479213 0.739551 0.469332 0.021788
C67   C     C_R   0.970830 0.234795 0.519063 0.027712
C68   C     C_R   0.979238 0.239532 0.469332 0.021780
C69   C     C_R   0.505582 0.912775 0.475910 -0.125120
C70   C     C_R   0.499147 0.908682 0.524119 -0.124867
C71   C     C_R   0.005542 0.412786 0.475903 -0.125103
C72   C     C_R   0.999107 0.408695 0.524112 -0.124853
C73   C     C_R   0.482689 0.821520 0.546144 0.042130
C74   C     C_R   0.496177 0.829470 0.448568 0.032890
C75   C     C_R   0.982676 0.321521 0.546141 0.042120
C76   C     C_R   0.996171 0.329465 0.448565 0.032890
C77   C     C_1   0.510726 0.834554 0.399710 -0.065514
C78   C     C_1   0.476310 0.827682 0.596166 -0.065155
C79   C     C_1   0.010722 0.334553 0.399708 -0.065505
C80   C     C_1   0.976301 0.327679 0.596163 -0.065148
C81   C     C_1   0.266690 0.635675 0.636929 -0.018765
C82   C     C_1   0.734322 0.633536 0.362495 -0.012709
C83   C     C_1   0.766684 0.135659 0.636934 -0.018776
C84   C     C_1   0.234322 0.133537 0.362496 -0.012716
C85   C     C_R   0.263608 0.682235 0.517056 -0.110760
C86   C     C_R   0.764449 0.674199 0.480440 -0.106148
C87   C     C_R   0.763839 0.182137 0.517055 -0.110829
C88   C     C_R   0.264594 0.174112 0.480427 -0.106131
C89   C     C_R   0.274615 0.674076 0.815109 0.544262
C90   C     C_R   0.725387 0.674018 0.184898 0.543626
C91   C     C_R   0.774615 0.174076 0.815110 0.544266
C92   C     C_R   0.225388 0.174016 0.184899 0.543616
C93   C     C_R   0.260000 0.670117 0.468518 -0.121646
C94   C     C_R   0.766666 0.664103 0.529090 -0.107535
C95   C     C_R   0.760215 0.170014 0.468518 -0.121709
C96   C     C_R   0.266809 0.164032 0.529078 -0.107518
C97   C     C_R   0.253025 0.493280 0.479285 -0.107428
C98   C     C_R   0.727487 0.499344 0.521871 -0.109455
C99   C     C_R   0.752735 0.993251 0.479310 -0.107420
C100  C     C_R   0.227350 0.999465 0.521887 -0.109470
C101  C     C_R   0.256358 0.505413 0.527826 -0.117854
C102  C     C_R   0.725157 0.509552 0.473134 -0.111009
C103  C     C_R   0.756083 0.005391 0.527850 -0.117825
C104  C     C_R   0.225023 0.009657 0.473149 -0.111022
C105  C     C_R   0.260895 0.600025 0.546629 0.033452
C106  C     C_R   0.744050 0.596808 0.452501 0.039340
C107  C     C_R   0.760884 0.099974 0.546639 0.033421
C108  C     C_R   0.244057 0.096807 0.452502 0.039356
C109  C     C_R   0.254302 0.575633 0.449744 0.034337
C110  C     C_R   0.748239 0.576660 0.549760 0.039322
C111  C     C_R   0.754261 0.075567 0.449757 0.034378
C112  C     C_R   0.248240 0.076693 0.549763 0.039338
C113  C     C_1   0.244537 0.562069 0.400690 -0.066410
C114  C     C_1   0.756740 0.561396 0.598871 -0.060281
C115  C     C_1   0.744517 0.062034 0.400699 -0.066411
C116  C     C_1   0.256738 0.061414 0.598873 -0.060278
C117  C     C_1   0.263096 0.614548 0.596194 -0.068409
C118  C     C_1   0.739482 0.611257 0.402997 -0.060951
C119  C     C_1   0.763087 0.114517 0.596203 -0.068435
C120  C     C_1   0.239484 0.111258 0.402998 -0.060955
C121  C     C_1   0.233076 0.542563 0.360706 -0.019983
C122  C     C_1   0.767405 0.541644 0.638972 -0.012214
C123  C     C_1   0.733068 0.042548 0.360710 -0.019973
C124  C     C_1   0.267403 0.041652 0.638973 -0.012218
C125  C     C_R   0.284451 0.007059 0.683994 0.544959
C126  C     C_R   0.715642 0.007331 0.315892 0.544207
C127  C     C_R   0.784451 0.507059 0.683994 0.544952
C128  C     C_R   0.215642 0.507330 0.315892 0.544216
C129  C     C_R   0.445491 0.825050 0.684236 0.541441
C130  C     C_R   0.554038 0.825257 0.315390 0.545219
C131  C     C_R   0.945490 0.325050 0.684236 0.541441
C132  C     C_R   0.054037 0.325258 0.315389 0.545226
C133  C     C_R   0.274370 0.674487 0.682822 0.543454
C134  C     C_R   0.725759 0.674184 0.317043 0.545310
C135  C     C_R   0.774369 0.174484 0.682823 0.543452
C136  C     C_R   0.225759 0.174185 0.317043 0.545313
C137  C     C_3   0.442445 0.888697 0.978645 -0.212497
C138  C     C_3   0.557308 0.889316 0.021451 -0.212449
C139  C     C_3   0.942430 0.388547 0.978642 -0.212586
C140  C     C_3   0.057285 0.389467 0.021449 -0.212390
C141  C     C_3   0.548740 0.889779 0.967392 -0.216192
C142  C     C_3   0.451011 0.889056 0.032705 -0.216231
C143  C     C_3   0.048719 0.389925 0.967390 -0.216150
C144  C     C_3   0.950993 0.388906 0.032701 -0.216298
C145  C     C_1   0.529955 0.831162 0.137419 -0.015983
C146  C     C_1   0.470027 0.831317 0.862591 -0.015893
C147  C     C_1   0.029968 0.331163 0.137413 -0.015977
C148  C     C_1   0.970042 0.331318 0.862586 -0.015897
Cr1   Cr    Cr6+3 0.250680 0.837130 0.748990 1.033242
Cr2   Cr    Cr6+3 0.749320 0.837130 0.251010 1.029058
Cr3   Cr    Cr6+3 0.750680 0.337130 0.748990 1.033246
Cr4   Cr    Cr6+3 0.249320 0.337130 0.251010 1.029055
Cr5   Cr    Cr6+3 0.378160 0.960100 0.750430 1.032642
Cr6   Cr    Cr6+3 0.621840 0.960100 0.249570 1.032751
Cr7   Cr    Cr6+3 0.878160 0.460100 0.750430 1.032646
Cr8   Cr    Cr6+3 0.121840 0.460100 0.249570 1.032745
Cr9   Cr    Cr6+3 0.376090 0.707720 0.749670 1.019998
Cr10  Cr    Cr6+3 0.623910 0.707720 0.250330 1.028247
Cr11  Cr    Cr6+3 0.876090 0.207720 0.749670 1.020006
Cr12  Cr    Cr6+3 0.123910 0.207720 0.250330 1.028240
H1    H     H_    0.452178 0.966254 0.045729 0.121003
H2    H     H_    0.547261 0.967012 0.954486 0.121140
H3    H     H_    0.952088 0.466099 0.045732 0.120938
H4    H     H_    0.047170 0.467153 0.954488 0.121180
H5    H     H_    0.199825 0.471338 0.944535 0.102160
H6    H     H_    0.800979 0.472363 0.055352 0.102001
H7    H     H_    0.699507 0.971784 0.944540 0.102212
H8    H     H_    0.300395 0.971475 0.055366 0.101958
H9    H     H_    0.519457 0.980972 0.459942 0.120755
H10   H     H_    0.507355 0.974618 0.544561 0.119690
H11   H     H_    0.019394 0.480995 0.459933 0.120756
H12   H     H_    0.007292 0.474642 0.544553 0.119697
H13   H     H_    0.267636 0.755650 0.531578 0.109842
H14   H     H_    0.778735 0.742170 0.464560 0.102737
H15   H     H_    0.768068 0.255526 0.531567 0.109844
H16   H     H_    0.278988 0.242005 0.464537 0.102706
H17   H     H_    0.260627 0.734057 0.445821 0.106968
H18   H     H_    0.783605 0.723508 0.550431 0.103881
H19   H     H_    0.761037 0.233928 0.445812 0.106932
H20   H     H_    0.283854 0.223364 0.550408 0.103870
H21   H     H_    0.248038 0.420044 0.464797 0.107317
H22   H     H_    0.714041 0.430835 0.537747 0.107351
H23   H     H_    0.747547 0.920049 0.464831 0.107330
H24   H     H_    0.213792 0.931032 0.537774 0.107297
H25   H     H_    0.254670 0.441606 0.550565 0.104959
H26   H     H_    0.708861 0.449814 0.451683 0.106282
H27   H     H_    0.754202 0.941619 0.550597 0.105014
H28   H     H_    0.208617 0.949990 0.451709 0.106242
H29   H     H_    0.438836 0.965759 0.965758 0.122709
H30   H     H_    0.560609 0.966370 0.034456 0.122806
H31   H     H_    0.938753 0.465602 0.965762 0.122617
H32   H     H_    0.060512 0.466523 0.034460 0.122861
H33   H     H_    0.585594 0.853118 0.950363 0.108722
H34   H     H_    0.414305 0.851878 0.049677 0.108571
H35   H     H_    0.085604 0.353370 0.950359 0.108732
H36   H     H_    0.914323 0.351620 0.049668 0.108568
H37   H     H_    0.598160 0.851841 0.030287 0.104877
H38   H     H_    0.401740 0.850765 0.969751 0.104837
H39   H     H_    0.098172 0.352109 0.030285 0.104892
H40   H     H_    0.901763 0.350510 0.969744 0.104824
H41   H     H_    0.456388 0.688415 0.963610 0.121313
H42   H     H_    0.544173 0.688818 0.036184 0.121037
H43   H     H_    0.956554 0.188321 0.963589 0.121282
H44   H     H_    0.044337 0.188935 0.036163 0.121121
H45   H     H_    0.532225 0.689413 0.956266 0.119494
H46   H     H_    0.468334 0.688854 0.043529 0.119518
H47   H     H_    0.032386 0.189527 0.956244 0.119551
H48   H     H_    0.968502 0.188755 0.043508 0.119497
H49   H     H_    0.317166 0.710607 0.968951 0.098127
H50   H     H_    0.681979 0.709192 0.031194 0.098210
H51   H     H_    0.817473 0.210105 0.968940 0.098210
H52   H     H_    0.182552 0.210166 0.031172 0.098143
H53   H     H_    0.307954 0.687780 0.054411 0.101586
H54   H     H_    0.691235 0.686564 0.945710 0.101803
H55   H     H_    0.808256 0.187302 0.054401 0.101634
H56   H     H_    0.191797 0.187493 0.945692 0.101763
H57   H     H_    0.190948 0.448187 0.029937 0.097975
H58   H     H_    0.809902 0.449411 0.969929 0.097947
H59   H     H_    0.690622 0.948657 0.029942 0.098061
H60   H     H_    0.309307 0.948480 0.969943 0.097893
O1    O     O_R   0.237900 0.735050 0.799950 -0.504972
O2    O     O_R   0.762100 0.735050 0.200050 -0.505408
O3    O     O_R   0.737900 0.235050 0.799950 -0.504971
O4    O     O_R   0.262100 0.235050 0.200050 -0.505409
O5    O     O_R   0.425240 0.902610 0.703070 -0.489864
O6    O     O_R   0.574760 0.902610 0.296930 -0.492814
O7    O     O_R   0.925240 0.402610 0.703070 -0.489866
O8    O     O_R   0.074760 0.402610 0.296930 -0.492811
O9    O     O_R   0.433420 0.739640 0.698910 -0.518879
O10   O     O_R   0.566580 0.739640 0.301090 -0.511497
O11   O     O_R   0.933420 0.239640 0.698910 -0.518878
O12   O     O_R   0.066580 0.239640 0.301090 -0.511502
O13   O     O_R   0.323550 0.666510 0.701520 -0.503414
O14   O     O_R   0.676450 0.666510 0.298480 -0.495077
O15   O     O_R   0.823550 0.166510 0.701520 -0.503418
O16   O     O_R   0.176450 0.166510 0.298480 -0.495081
O17   O     O_3   0.334980 0.834990 0.749700 -0.251283
O18   O     O_3   0.665020 0.834990 0.250300 -0.251228
O19   O     O_3   0.834980 0.334990 0.749700 -0.251283
O20   O     O_3   0.165020 0.334990 0.250300 -0.251225
O21   O     O_R   0.256160 0.936210 0.796950 -0.494421
O22   O     O_R   0.743840 0.936210 0.203050 -0.495074
O23   O     O_R   0.756160 0.436210 0.796950 -0.494418
O24   O     O_R   0.243840 0.436210 0.203050 -0.495077
O25   O     O_R   0.333710 0.029860 0.801630 -0.506835
O26   O     O_R   0.666290 0.029860 0.198370 -0.506736
O27   O     O_R   0.833710 0.529860 0.801630 -0.506834
O28   O     O_R   0.166290 0.529860 0.198370 -0.506740
O29   O     O_R   0.425340 0.901920 0.798280 -0.494844
O30   O     O_R   0.574660 0.901920 0.201720 -0.495475
O31   O     O_R   0.925340 0.401920 0.798280 -0.494843
O32   O     O_R   0.074660 0.401920 0.201720 -0.495478
O33   O     O_R   0.433530 0.738890 0.801610 -0.506083
O34   O     O_R   0.566470 0.738890 0.198390 -0.508026
O35   O     O_R   0.933530 0.238890 0.801610 -0.506079
O36   O     O_R   0.066470 0.238890 0.198390 -0.508023
O37   O     O_R   0.323650 0.665810 0.796720 -0.494334
O38   O     O_R   0.676350 0.665810 0.203280 -0.494964
O39   O     O_R   0.823650 0.165810 0.796720 -0.494335
O40   O     O_R   0.176350 0.165810 0.203280 -0.494962
O41   O     O_R   0.237790 0.735800 0.697250 -0.504229
O42   O     O_R   0.762210 0.735800 0.302750 -0.508071
O43   O     O_R   0.737790 0.235800 0.697250 -0.504226
O44   O     O_R   0.262210 0.235800 0.302750 -0.508074
O45   O     O_R   0.256050 0.936910 0.701750 -0.495712
O46   O     O_R   0.743950 0.936910 0.298250 -0.498376
O47   O     O_R   0.756050 0.436910 0.701750 -0.495711
O48   O     O_R   0.243950 0.436910 0.298250 -0.498374
O49   O     O_R   0.333600 0.030610 0.698930 -0.507111
O50   O     O_R   0.666400 0.030610 0.301070 -0.504437
O51   O     O_R   0.833600 0.530610 0.698930 -0.507109
O52   O     O_R   0.166400 0.530610 0.301070 -0.504439
C149  C     C_3   0.450483 0.635973 0.539401 -0.267783
C150  C     C_3   0.431220 0.629334 0.590610 -0.283712
C151  C     C_3   0.407583 0.527279 0.601643 -0.446603
H61   H     H_    0.371011 0.509571 0.578178 0.156209
H62   H     H_    0.441142 0.470560 0.597089 0.148049
H63   H     H_    0.392863 0.525248 0.638595 0.165789
H64   H     H_    0.468320 0.640979 0.614361 0.185503
H65   H     H_    0.397187 0.684297 0.597264 0.184046
H66   H     H_    0.413333 0.611614 0.517880 0.153242
H67   H     H_    0.485376 0.581596 0.534897 0.137776
C152  C     C_3   0.470437 0.649917 0.437545 -0.258339
C153  C     C_3   0.412264 0.654345 0.412699 -0.298661
C154  C     C_3   0.402960 0.564925 0.381136 -0.441192
H68   H     H_    0.437236 0.559959 0.354590 0.160558
H69   H     H_    0.402488 0.496550 0.402477 0.154926
H70   H     H_    0.361492 0.571827 0.362445 0.153437
H71   H     H_    0.377919 0.656922 0.439236 0.169448
H72   H     H_    0.409255 0.721908 0.390874 0.171017
H73   H     H_    0.504843 0.646165 0.411052 0.157847
H74   H     H_    0.474356 0.579392 0.456699 0.127821
C155  C     C_3   0.950512 0.135952 0.539403 -0.267790
C156  C     C_3   0.931192 0.129336 0.590597 -0.283735
C157  C     C_3   0.907539 0.027289 0.601621 -0.446595
H75   H     H_    0.870986 0.009582 0.578135 0.156262
H76   H     H_    0.941098 0.970562 0.597091 0.148056
H77   H     H_    0.892785 0.025270 0.638564 0.165794
H78   H     H_    0.968269 0.140983 0.614374 0.185529
H79   H     H_    0.897157 0.184310 0.597222 0.183998
H80   H     H_    0.913393 0.111539 0.517860 0.153238
H81   H     H_    0.985428 0.081606 0.534930 0.137771
C158  C     C_3   0.970509 0.149875 0.437551 -0.258329
C159  C     C_3   0.912334 0.154209 0.412705 -0.298694
C160  C     C_3   0.903060 0.064744 0.381166 -0.441196
H82   H     H_    0.937325 0.059808 0.354609 0.160564
H83   H     H_    0.902638 0.996390 0.402523 0.154930
H84   H     H_    0.861577 0.071561 0.362491 0.153446
H85   H     H_    0.877990 0.156774 0.439243 0.169399
H86   H     H_    0.909298 0.221745 0.390864 0.171002
H87   H     H_    0.004915 0.146164 0.411058 0.157853
H88   H     H_    0.974466 0.079366 0.456714 0.127825

loop_
_geom_bond_atom_site_label_1
_geom_bond_atom_site_label_2
_ccdc_geom_bond_type
C28   H56   S    
C99   C103  A    
C108  C120  S    
C62   C77   T    
C76   C79   S    
Cr1   O45   S    
C159  H86   S    
C20   C92   S    
C102  H26   S    
C127  O47   A    
C72   H12   S    
Cr5   O5    S    
C153  C154  S    
C10   H45   S    
Cr4   O24   S    
C88   C108  A    
C22   C38   A    
C29   C33   A    
C36   H8    S    
C150  C151  S    
C94   H18   S    
C12   H43   S    
C83   C119  T    
C46   O30   A    
C48   O32   A    
Cr6   O26   S    
Cr1   O17   S    
Cr8   O8    S    
C153  H72   S    
C106  C118  S    
C41   C49   S    
C115  C123  T    
C92   O4    A    
C17   C89   S    
C121  C128  S    
C1    C60   S    
C25   C41   A    
Cr7   O31   S    
C2    C59   S    
C123  C126  S    
C98   C102  A    
C28   C44   A    
C86   H14   S    
Cr11  O11   S    
C82   C134  S    
C158  C159  S    
C142  H34   S    
C69   C74   A    
C96   H20   S    
Cr10  O18   S    
C68   C158  S    
C64   C79   T    
C82   C118  T    
C90   O38   A    
C158  H87   S    
Cr11  O39   S    
C125  O45   A    
C126  O50   A    
C138  C141  S    
C5    C137  S    
Cr7   O27   S    
C152  H74   S    
C8    C140  S    
C25   H53   S    
C154  H69   S    
C1    O25   A    
C156  C157  S    
C22   H50   S    
C11   H44   S    
C2    O26   A    
C69   C70   A    
C9    H42   S    
Cr3   O23   S    
C87   C107  A    
C130  O6    A    
Cr12  O16   S    
C103  C107  A    
Cr6   O50   S    
C137  C142  S    
C81   C117  T    
C62   C130  S    
C140  C143  S    
C100  C104  A    
C20   C56   T    
C142  H1    S    
C7    C143  S    
Cr9   O9    S    
C157  H76   S    
Cr4   O48   S    
C133  O41   A    
Cr7   O7    S    
C31   C43   A    
C149  H67   S    
C32   C36   A    
C89   O1    A    
C66   C74   A    
C49   C57   T    
C122  C127  S    
C52   C60   T    
C45   O29   A    
C85   C93   A    
Cr9   O37   S    
C160  H83   S    
C74   C77   S    
C87   C95   A    
Cr12  O12   S    
C9    C10   S    
C110  C114  S    
C47   O31   A    
C61   C129  S    
C30   H58   S    
C37   C53   S    
C44   C52   S    
C141  H2    S    
C127  O51   A    
C128  O52   A    
C86   C106  A    
C72   C75   A    
C101  H25   S    
C63   C80   T    
C7    C12   S    
C104  H28   S    
C30   C34   A    
C65   C149  S    
C150  H64   S    
C12   H47   S    
C151  H63   S    
C93   H17   S    
C139  H40   S    
C69   H9    S    
Cr6   O30   S    
Cr10  O34   S    
C155  C156  S    
C131  O7    A    
C97   C109  A    
C99   C111  A    
C134  O14   A    
C141  H33   S    
C2    O22   A    
C32   H60   S    
C42   C50   S    
C63   C131  S    
C71   H11   S    
C67   C75   A    
C155  H80   S    
C112  C116  S    
C26   C42   A    
C131  O11   A    
C21   C25   A    
C29   C41   A    
Cr11  O15   S    
C33   H5    S    
C24   C28   A    
C81   C133  S    
C144  H36   S    
C68   C76   A    
C87   H15   S    
Cr6   O18   S    
C88   H16   S    
C156  H78   S    
Cr10  O14   S    
C136  O16   A    
Cr3   O3    S    
C66   C152  S    
C91   O39   A    
C138  H37   S    
C113  C121  T    
C129  O5    A    
C152  C153  S    
C126  O46   A    
C4    O24   A    
C93   C109  A    
C88   C96   A    
C98   C110  A    
C151  H61   S    
Cr11  O35   S    
Cr6   O6    S    
C139  H31   S    
C9    H46   S    
C132  O8    A    
C71   C76   A    
C130  O10   A    
C48   C147  S    
Cr1   O41   S    
C39   C55   S    
C64   C132  S    
C40   C56   S    
Cr5   O25   S    
C13   C145  T    
C6    C142  S    
Cr2   O46   S    
Cr3   O43   S    
Cr4   O44   S    
Cr7   O19   S    
C27   H55   S    
Cr2   O2    S    
C105  C117  S    
C3    O27   A    
C6    C9    S    
C107  C119  S    
C31   H59   S    
C159  H85   S    
C67   C68   A    
C18   C90   S    
Cr8   O28   S    
C157  H75   S    
C152  H73   S    
Cr10  O38   S    
C94   C110  A    
C33   C37   A    
C50   C58   T    
C98   H22   S    
C35   C39   A    
C47   O35   A    
C154  H68   S    
C38   C54   S    
C84   C120  T    
C143  H35   S    
C70   C73   A    
C128  O48   A    
C103  H27   S    
C133  O13   A    
C5    C14   S    
Cr2   O42   S    
Cr3   O47   S    
C7    C16   S    
C153  H71   S    
C100  C112  A    
C8    C15   S    
Cr4   O4    S    
C144  H3    S    
C31   C35   A    
C91   O3    A    
C17   C53   T    
C143  H4    S    
C104  C108  A    
C19   C55   T    
C84   C136  S    
C116  C124  T    
Cr7   O51   S    
Cr8   O32   S    
Cr8   O52   S    
Cr3   O19   S    
C26   H54   S    
C149  H66   S    
Cr12  O36   S    
C70   H10   S    
C15   C147  T    
C43   C51   S    
C23   H51   S    
C21   H49   S    
C100  H24   S    
C10   H41   S    
C19   C91   S    
C3    C58   S    
C27   C43   A    
Cr2   O22   S    
C21   C37   A    
C137  H38   S    
C160  H82   S    
C22   C26   A    
Cr11  O19   S    
C30   C42   A    
C34   H6    S    
C46   O34   A    
C158  H88   S    
C135  O43   A    
C136  O44   A    
Cr10  O10   S    
C24   H52   S    
Cr8   O20   S    
C96   C112  A    
C150  H65   S    
C151  H62   S    
C140  H39   S    
C90   O2    A    
C154  H70   S    
C46   C145  S    
C129  O9    A    
Cr12  O40   S    
C65   C73   A    
C4    O28   A    
C86   C94   A    
Cr2   O18   S    
C4    C57   S    
C85   H13   S    
C73   C78   S    
C23   C27   A    
C48   O36   A    
C75   C80   S    
C83   C135  S    
C109  C113  S    
C29   H57   S    
C134  O42   A    
C138  H30   S    
Cr1   O1    S    
C85   C105  A    
C132  O12   A    
C92   O40   A    
C157  H77   S    
C101  C105  A    
C45   C146  S    
C36   C40   A    
C89   O37   A    
Cr5   O29   S    
C125  O49   A    
C6    C138  S    
C156  H79   S    
Cr9   O33   S    
C139  C144  S    
C35   H7    S    
Cr4   O20   S    
C61   C78   T    
C160  H84   S    
C67   C155  S    
C149  C150  S    
C32   C44   A    
C8    C144  S    
C3    O23   A    
C1    O21   A    
C137  H29   S    
C95   H19   S    
C159  C160  S    
C140  H32   S    
C51   C59   T    
C11   H48   S    
Cr9   O17   S    
C47   C148  S    
Cr12  O20   S    
C34   C38   A    
C99   H23   S    
Cr5   O49   S    
C5    C141  S    
C11   C12   S    
C97   H21   S    
C14   C146  T    
Cr5   O17   S    
C16   C148  T    
C5    C10   S    
C95   C111  A    
C6    C13   S    
C7    C139  S    
Cr9   O13   S    
C8    C11   S    
C23   C39   A    
C24   C40   A    
C102  C106  A    
C135  O15   A    
C18   C54   T    
C114  C122  T    
C71   C72   A    
Cr1   O21   S    
C65   C66   A    
C111  C115  S    
C155  H81   S    
C97   C101  A    
C45   O33   A    
C124  C125  S    
