data_mof_unit_4111.cif
_audit_creation_date              2012-12-10T16:50:58-0500
_audit_creation_method            fapswitch 2.2
_symmetry_space_group_name_H-M    P1
_symmetry_Int_Tables_number       1
_space_group_crystal_system       triclinic
_cell_length_a                    7.910066
_cell_length_b                    8.60847
_cell_length_c                    10.604517
_cell_angle_alpha                 91.596302
_cell_angle_beta                  84.354867
_cell_angle_gamma                 93.450288
_cell_volume                      717.119883445

loop_
_atom_site_label
_atom_site_type_symbol
_atom_type_description
_atom_site_fract_x
_atom_site_fract_y
_atom_site_fract_z
_atom_type_partial_charge
C1    C     C_R   0.544761 0.793682 0.496652 0.875289
C2    C     C_R   0.940807 0.392749 0.023413 -0.196064
C3    C     C_R   0.036316 0.510937 0.083128 -0.222960
C4    C     C_R   0.963653 0.488799 0.916916 -0.223050
C5    C     C_R   0.179297 0.461494 0.133272 -0.150642
C6    C     C_R   0.820689 0.538228 0.866745 -0.150618
C7    C     C_R   0.342236 0.489511 0.071068 0.005559
C8    C     C_R   0.657739 0.510276 0.928945 0.005548
C9    C     C_R   0.359300 0.560431 0.953485 -0.049183
C10   C     C_R   0.640664 0.439375 0.046537 -0.049166
C11   C     C_R   0.488602 0.450571 0.124369 -0.141080
C12   C     C_R   0.455239 0.206318 0.503348 0.875267
C13   C     C_R   0.511379 0.549276 0.875649 -0.141080
C14   C     C_2   0.568380 0.956295 0.493128 0.304200
C15   C     C_2   0.431621 0.043705 0.506874 0.304174
C16   C     C_R   0.504145 0.521984 0.739404 0.895233
C17   C     C_R   0.495849 0.477972 0.260604 0.895239
C18   C     C_R   0.223279 0.641304 0.918801 0.633907
C19   C     C_R   0.776659 0.358489 0.081244 0.633884
C20   C     C_R   0.059139 0.607000 0.976636 -0.196130
F1    F     F_    0.247926 0.752522 0.829193 -0.650853
F2    F     F_    0.751984 0.247335 0.170902 -0.650854
F3    F     F_    0.732640 0.015618 0.474030 -0.606203
F4    F     F_    0.267365 0.984382 0.525977 -0.606230
H1    H     H_    0.037166 0.434293 0.836809 0.197895
H2    H     H_    0.962830 0.565441 0.163251 0.197901
H3    H     H_    0.996284 0.716426 0.990067 0.193146
H4    H     H_    0.003632 0.283308 0.009997 0.193141
H5    H     H_    0.158371 0.383170 0.212086 0.182546
H6    H     H_    0.841674 0.616543 0.787932 0.182589
H7    H     H_    0.010507 0.373217 0.411759 0.217763
H8    H     H_    0.989490 0.626779 0.588245 0.217771
N1    N     N_2   0.950330 0.457950 0.466250 -0.157234
N2    N     N_2   0.049670 0.542050 0.533750 -0.157224
O1    O     O_R   0.389250 0.738570 0.508280 -0.544484
O2    O     O_R   0.610750 0.261430 0.491720 -0.544473
O3    O     O_R   0.678390 0.711630 0.486650 -0.593533
O4    O     O_R   0.321610 0.288370 0.513350 -0.593567
O5    O     O_R   0.355430 0.513480 0.694040 -0.589831
O6    O     O_R   0.644570 0.486520 0.305960 -0.589866
O7    O     O_R   0.644570 0.486540 0.672410 -0.644053
O8    O     O_R   0.355430 0.513460 0.327590 -0.644009
Zn1   Zn    Zn3+2 0.306940 0.517990 0.514440 1.040671
Zn2   Zn    Zn3+2 0.693060 0.482010 0.485560 1.040662

loop_
_geom_bond_atom_site_label_1
_geom_bond_atom_site_label_2
_ccdc_geom_bond_type
C14   F3    S    
C2    C4    A    
H7    N1    S    
C8    C13   A    
C20   H3    S    
C12   O2    A    
C18   F1    S    
O1    Zn1   S    
O6    Zn2   S    
C18   C20   A    
C14   C15   D    
C12   C15   S    
C1    O3    A    
C10   C19   A    
O3    Zn2   S    
C2    C3    A    
C5    C7    A    
C3    C20   A    
C7    C11   A    
C6    C8    A    
C4    C6    A    
C15   F4    S    
C6    H6    S    
N1    N2    D    
C4    H1    S    
C5    H5    S    
C12   O4    A    
O7    Zn2   S    
O2    Zn2   S    
C10   C11   A    
C16   O5    A    
C4    C20   A    
C9    C18   A    
O4    Zn1   S    
C19   F2    S    
C1    O1    A    
C8    C10   A    
O8    Zn1   S    
C13   C16   S    
C7    C9    A    
C9    C13   A    
C17   O8    A    
C11   C17   S    
C2    H4    S    
C1    C14   S    
C2    C19   A    
O5    Zn1   S    
N1    Zn2   S    
C16   O7    A    
C3    H2    S    
N2    Zn1   S    
C3    C5    A    
C17   O6    A    
H8    N2    S    
