data_mof_unit_4613.cif
_audit_creation_date              2012-10-26T20:02:33-0400
_audit_creation_method            fapswitch 2.2
_symmetry_space_group_name_H-M    P1
_symmetry_Int_Tables_number       1
_space_group_crystal_system       triclinic
_cell_length_a                    18.734985
_cell_length_b                    18.670461
_cell_length_c                    12.419774
_cell_angle_alpha                 89.751793
_cell_angle_beta                  130.504177
_cell_angle_gamma                 90.028468
_cell_volume                      3303.19692331

loop_
_atom_site_label
_atom_site_type_symbol
_atom_type_description
_atom_site_fract_x
_atom_site_fract_y
_atom_site_fract_z
_atom_type_partial_charge
C1    C     C_R   0.606905 0.894248 0.644833 0.570373
C2    C     C_R   0.651498 0.724552 0.009470 0.064100
C3    C     C_R   0.151294 0.775230 0.011246 0.076690
C4    C     C_R   0.151458 0.224385 0.009202 0.064075
C5    C     C_R   0.573732 0.237248 0.898311 -0.106736
C6    C     C_R   0.571842 0.759074 0.891202 -0.082577
C7    C     C_R   0.073905 0.736801 0.899042 -0.107315
C8    C     C_R   0.071817 0.258856 0.890818 -0.082436
C9    C     C_R   0.575111 0.205609 0.798534 -0.093025
C10   C     C_R   0.573403 0.790280 0.790888 -0.056245
C11   C     C_R   0.075044 0.705407 0.798850 -0.092216
C12   C     C_R   0.607001 0.105680 0.645158 0.599685
C13   C     C_R   0.073519 0.290173 0.790720 -0.056273
C14   C     C_R   0.307277 0.822404 0.135428 -0.110417
C15   C     C_R   0.311395 0.182962 0.143470 -0.118765
C16   C     C_R   0.807417 0.322305 0.135676 -0.109814
C17   C     C_R   0.811297 0.682888 0.143279 -0.118606
C18   C     C_R   0.229339 0.841460 0.229682 -0.124260
C19   C     C_R   0.227931 0.156603 0.226605 -0.121135
C20   C     C_R   0.728950 0.341948 0.228933 -0.124110
C21   C     C_R   0.728102 0.656822 0.226965 -0.120796
C22   C     C_R   0.660627 0.173521 0.714689 -0.010284
C23   C     C_R   0.107038 0.394310 0.644995 0.570157
C24   C     C_R   0.661676 0.826773 0.714592 -0.030506
C25   C     C_R   0.160226 0.673722 0.714252 -0.010113
C26   C     C_R   0.162073 0.326968 0.715043 -0.030705
C27   C     C_R   0.679020 0.043579 0.287350 -0.117776
C28   C     C_R   0.178502 0.544652 0.287049 -0.117793
C29   C     C_R   0.341456 0.988358 0.623404 0.049329
C30   C     C_R   0.841468 0.488272 0.623392 0.049420
C31   C     C_R   0.304735 0.985093 0.691182 -0.153350
C32   C     C_R   0.804751 0.484872 0.691166 -0.153236
C33   C     C_R   0.383424 0.099008 0.341895 0.530471
C34   C     C_R   0.106894 0.605731 0.645035 0.599951
C35   C     C_R   0.382951 0.901439 0.341237 0.530296
C36   C     C_R   0.883432 0.599018 0.341902 0.530603
C37   C     C_R   0.882926 0.401467 0.341207 0.529969
C38   C     C_R   0.362949 0.994258 0.837137 -0.129426
C39   C     C_R   0.862951 0.494001 0.837128 -0.129385
C40   C     C_R   0.459327 0.007869 0.918134 -0.018569
C41   C     C_R   0.959303 0.507726 0.918110 -0.018572
C42   C     C_R   0.495235 0.010407 0.844996 0.125872
C43   C     C_R   0.995201 0.510387 0.844979 0.125818
C44   C     C_R   0.522142 0.016144 0.069779 -0.040432
C45   C     C_R   0.228948 0.786242 0.017899 0.072938
C46   C     C_R   0.022078 0.516104 0.069710 -0.040367
C47   C     C_R   0.614168 0.041079 0.139722 -0.045473
C48   C     C_R   0.113929 0.541442 0.139514 -0.045976
C49   C     C_R   0.644352 0.055478 0.063819 0.004817
C50   C     C_R   0.144253 0.555596 0.063698 0.004170
C51   C     C_R   0.593439 0.025066 0.929060 0.061002
C52   C     C_R   0.093372 0.525081 0.929019 0.061822
C53   C     C_R   0.498798 0.000332 0.156705 0.023930
C54   C     C_R   0.998818 0.500096 0.156697 0.023994
C55   C     C_R   0.658104 0.015267 0.366986 0.192601
C56   C     C_R   0.232494 0.217613 0.023058 0.046142
C57   C     C_R   0.157940 0.515956 0.366896 0.192508
C58   C     C_R   0.651846 0.303171 0.116457 -0.116771
C59   C     C_R   0.650598 0.695144 0.112859 -0.114049
C60   C     C_R   0.152289 0.802545 0.117444 -0.117726
C61   C     C_R   0.150417 0.194868 0.112382 -0.114193
C62   C     C_R   0.306754 0.852257 0.237954 0.000273
C63   C     C_R   0.307932 0.149255 0.240326 0.001857
C64   C     C_R   0.806659 0.352375 0.237813 0.000472
C65   C     C_R   0.807960 0.649296 0.240362 0.001976
C66   C     C_R   0.724237 0.199395 0.697421 0.061400
C67   C     C_R   0.729077 0.286270 0.017930 0.073457
C68   C     C_R   0.727832 0.802868 0.701210 0.048248
C69   C     C_R   0.223421 0.699911 0.696382 0.061181
C70   C     C_R   0.228616 0.303360 0.702251 0.048592
C71   C     C_R   0.290743 0.750571 0.790512 -0.136676
C72   C     C_R   0.299271 0.255699 0.802604 -0.141213
C73   C     C_R   0.791779 0.249838 0.791924 -0.136687
C74   C     C_R   0.798555 0.755239 0.801583 -0.141278
C75   C     C_R   0.294964 0.777570 0.898193 -0.144739
C76   C     C_R   0.303525 0.229473 0.911093 -0.149066
C77   C     C_R   0.795804 0.276971 0.899336 -0.144744
C78   C     C_R   0.732393 0.717613 0.022993 0.046161
C79   C     C_R   0.803085 0.729226 0.910459 -0.149099
C80   C     C_R   0.727741 0.258198 0.910323 0.061296
C81   C     C_R   0.731820 0.745339 0.915879 0.040375
C82   C     C_R   0.227318 0.758423 0.909849 0.061945
C83   C     C_R   0.232074 0.245438 0.916162 0.040288
C84   C     C_R   0.654379 0.211123 0.808132 0.036149
C85   C     C_R   0.655337 0.788512 0.807137 0.032361
C86   C     C_R   0.154077 0.711203 0.807913 0.037422
C87   C     C_R   0.155584 0.288566 0.807307 0.032217
C88   C     C_2   0.742869 0.079168 0.139250 0.586938
C89   C     C_R   0.651113 0.275622 0.010649 0.077777
C90   C     C_2   0.242828 0.579169 0.139031 0.586736
C91   C     C_2   0.655586 0.977308 0.928478 0.653082
C92   C     C_2   0.155512 0.477235 0.928556 0.652457
C93   C     C_2   0.717004 0.181593 0.574492 0.591061
C94   C     C_2   0.721326 0.820235 0.578341 0.603115
C95   C     C_2   0.215850 0.682257 0.573104 0.589990
C96   C     C_2   0.222740 0.321167 0.580117 0.603810
C97   C     C_2   0.741356 0.998200 0.517436 0.635743
C98   C     C_2   0.241470 0.499327 0.517490 0.636441
Cu1   Cu    Cu3+1 0.526340 0.000000 0.421010 1.038672
Cu2   Cu    Cu3+1 0.026340 0.500000 0.421010 1.038677
Cu3   Cu    Cu3+1 0.473640 0.000000 0.578990 0.955545
Cu4   Cu    Cu3+1 0.973640 0.500000 0.578990 0.955797
H1    H     H_    0.227392 0.864449 0.307660 0.129283
H2    H     H_    0.795104 0.481277 0.509917 0.125018
H3    H     H_    0.330571 0.991952 0.883871 0.103819
H4    H     H_    0.830581 0.491622 0.883870 0.103868
H5    H     H_    0.230510 0.975450 0.630016 0.118538
H6    H     H_    0.730540 0.475156 0.629993 0.118567
H7    H     H_    0.512408 0.230584 0.888766 0.103677
H8    H     H_    0.508350 0.762537 0.876748 0.111765
H9    H     H_    0.012766 0.729903 0.889917 0.103417
H10   H     H_    0.008231 0.262200 0.876115 0.111717
H11   H     H_    0.592275 0.295464 0.111138 0.115499
H12   H     H_    0.224021 0.130750 0.300871 0.134480
H13   H     H_    0.588895 0.699857 0.102972 0.122762
H14   H     H_    0.092949 0.794559 0.112600 0.115437
H15   H     H_    0.088602 0.199447 0.102234 0.122832
H16   H     H_    0.370546 0.827449 0.150524 0.134205
H17   H     H_    0.376749 0.180688 0.163957 0.137539
H18   H     H_    0.870890 0.327083 0.151276 0.133970
H19   H     H_    0.876551 0.680472 0.163490 0.137695
H20   H     H_    0.347870 0.817650 0.963951 0.104393
H21   H     H_    0.359774 0.192264 0.982674 0.110037
H22   H     H_    0.848934 0.316862 0.965414 0.104579
H23   H     H_    0.726819 0.365134 0.306595 0.128900
H24   H     H_    0.859349 0.692024 0.982013 0.109862
H25   H     H_    0.339395 0.770990 0.778455 0.133652
H26   H     H_    0.350902 0.237301 0.795479 0.134686
H27   H     H_    0.840771 0.269989 0.780370 0.133334
H28   H     H_    0.849985 0.736667 0.794146 0.135258
H29   H     H_    0.511325 0.179584 0.710587 0.149351
H30   H     H_    0.509077 0.814587 0.699136 0.146907
H31   H     H_    0.011257 0.679331 0.711042 0.149380
H32   H     H_    0.009205 0.314442 0.698876 0.146874
H33   H     H_    0.880860 0.054452 0.277525 0.346981
H34   H     H_    0.724290 0.631071 0.301410 0.134650
H35   H     H_    0.380913 0.554928 0.279563 0.347232
H36   H     H_    0.758935 0.967333 0.919493 0.337374
H37   H     H_    0.258843 0.467112 0.919558 0.337045
H38   H     H_    0.634089 0.174926 0.361875 0.324037
H39   H     H_    0.638988 0.831603 0.366384 0.337121
H40   H     H_    0.132443 0.675460 0.360427 0.323603
H41   H     H_    0.141227 0.332435 0.368277 0.337224
H42   H     H_    0.878860 0.970826 0.655284 0.356610
H43   H     H_    0.379581 0.473764 0.655760 0.356673
H44   H     H_    0.749571 0.062954 0.343658 0.190742
H45   H     H_    0.248647 0.564899 0.343205 0.191793
H46   H     H_    0.427978 0.987335 0.110608 0.116407
H47   H     H_    0.928093 0.486746 0.110632 0.116399
H48   H     H_    0.295078 0.981349 0.509931 0.125027
N1    N     N_R   0.566260 0.000000 0.302220 -0.252515
N2    N     N_R   0.066260 0.500000 0.302220 -0.252455
N3    N     N_R   0.434410 0.000000 0.697680 -0.246845
N4    N     N_R   0.934410 0.500000 0.697680 -0.246900
O1    O     O_R   0.608610 0.924520 0.551740 -0.418486
O2    O     O_R   0.435880 0.924530 0.314850 -0.507635
O3    O     O_R   0.935880 0.575470 0.314850 -0.505220
O4    O     O_R   0.935880 0.424530 0.314850 -0.507978
O5    O     O_R   0.391380 0.075460 0.448260 -0.522431
O6    O     O_R   0.391380 0.924540 0.448260 -0.528432
O7    O     O_R   0.891380 0.575460 0.448260 -0.522526
O8    O     O_R   0.891380 0.424540 0.448260 -0.528336
O9    O     O_2   0.757556 0.137249 0.112078 -0.511212
O10   O     O_R   0.817848 0.032903 0.235314 -0.659367
O11   O     O_2   0.257474 0.636165 0.108491 -0.509791
O12   O     O_R   0.608610 0.075480 0.551740 -0.420892
O13   O     O_R   0.317907 0.533650 0.238037 -0.659727
O14   O     O_2   0.664127 0.915123 0.966268 -0.514520
O15   O     O_R   0.715311 0.004991 0.907701 -0.649180
O16   O     O_2   0.163950 0.415058 0.966325 -0.515259
O17   O     O_R   0.215273 0.504821 0.907776 -0.648301
O18   O     O_2   0.787879 0.168290 0.592038 -0.526553
O19   O     O_R   0.629706 0.184930 0.437568 -0.693533
O20   O     O_2   0.792857 0.830329 0.596112 -0.508905
O21   O     O_R   0.634058 0.819954 0.441168 -0.681126
O22   O     O_2   0.286610 0.669367 0.590100 -0.527139
O23   O     O_R   0.108610 0.424520 0.551740 -0.417859
O24   O     O_R   0.128316 0.685279 0.436443 -0.693686
O25   O     O_2   0.294515 0.332087 0.598945 -0.509027
O26   O     O_R   0.135866 0.320418 0.442483 -0.681097
O27   O     O_2   0.739130 0.001199 0.612922 -0.462264
O28   O     O_R   0.826255 0.980266 0.550477 -0.665629
O29   O     O_2   0.238894 0.500952 0.612693 -0.461891
O30   O     O_R   0.326927 0.483166 0.550953 -0.665446
O31   O     O_R   0.108610 0.575480 0.551740 -0.421396
O32   O     O_R   0.564110 0.924510 0.685150 -0.488011
O33   O     O_R   0.564110 0.075490 0.685150 -0.497428
O34   O     O_R   0.064110 0.424510 0.685150 -0.487895
O35   O     O_R   0.064110 0.575490 0.685150 -0.497230
O36   O     O_R   0.435880 0.075470 0.314850 -0.505409

loop_
_geom_bond_atom_site_label_1
_geom_bond_atom_site_label_2
_ccdc_geom_bond_type
C39   H4    S    
C83   C87   A    
C13   C87   A    
C10   C85   A    
C8    C13   A    
C90   O13   S    
C75   H20   S    
C41   C43   A    
H33   O10   S    
C45   C82   A    
C80   C84   A    
C97   O28   S    
C93   O18   D    
C28   C57   A    
Cu2   N2    S    
C7    C11   A    
H43   O30   S    
C72   H26   S    
C21   C59   A    
C3    C7    A    
C16   H18   S    
C12   O12   A    
C23   O34   A    
C27   C55   A    
C43   C52   A    
C32   C39   A    
C11   C86   A    
C68   C74   A    
C14   C62   A    
C57   N2    A    
C12   C22   S    
C67   C89   A    
Cu4   O35   S    
C88   O10   S    
C69   C71   A    
C13   H32   S    
C23   C26   S    
C93   O19   S    
C98   O29   D    
C1    O1    A    
C35   O6    A    
C22   C66   A    
C51   C91   S    
C29   H48   S    
Cu2   O3    S    
C50   C90   S    
Cu3   O6    S    
C92   O16   D    
C26   C87   A    
C14   H16   S    
Cu1   O1    S    
C58   H11   S    
C50   C52   A    
C41   C46   A    
C15   H17   S    
H37   O17   S    
C30   C32   A    
C43   N4    A    
C24   C85   A    
Cu4   N4    S    
C21   H34   S    
C44   C47   A    
C4    C8    A    
C94   O21   S    
Cu1   O12   S    
C3    C60   A    
C40   C42   A    
C4    C56   A    
H36   O15   S    
C6    H8    S    
C49   C88   S    
C71   H25   S    
C2    C6    A    
Cu2   O23   S    
C44   C53   A    
C76   C83   A    
C54   H47   S    
C73   H27   S    
C9    H29   S    
C5    C89   A    
C46   C48   A    
C71   C75   A    
C91   O15   S    
C61   H15   S    
C91   O14   D    
C42   N3    A    
C35   O2    A    
C39   C41   A    
C19   C63   A    
C79   C81   A    
C2    C59   A    
C18   C62   A    
C54   N2    A    
C19   H12   S    
C49   C51   A    
C1    O32   A    
C66   C73   A    
Cu1   N1    S    
C4    C61   A    
C3    C45   A    
C53   H46   S    
C68   C94   S    
C33   O36   A    
C22   C84   A    
C37   O4    A    
C20   C64   A    
C34   O31   A    
C70   C96   S    
C95   O22   D    
C5    C9    A    
C2    C78   A    
C95   O24   S    
Cu3   N3    S    
C33   C63   S    
Cu1   O2    S    
C46   C54   A    
Cu2   Cu4   S    
C72   C76   A    
C75   C82   A    
C16   C67   A    
H41   O26   S    
C96   O26   S    
C55   N1    A    
C36   O3    A    
C94   O20   D    
C66   C93   S    
C12   O33   A    
C18   C60   A    
Cu1   Cu3   S    
C79   H24   S    
C40   C44   A    
C74   C79   A    
C74   H28   S    
C90   O11   D    
C27   H44   S    
C36   O7    A    
C26   C70   A    
C25   C86   A    
C60   H14   S    
C25   C69   A    
C20   C58   A    
Cu3   O32   S    
H35   O13   S    
C37   C64   S    
Cu4   O8    S    
C56   C83   A    
C29   N3    A    
C55   C97   S    
C17   H19   S    
C28   C48   A    
C28   H45   S    
C73   C77   A    
C21   C65   A    
C36   C65   S    
C76   H21   S    
C31   H5    S    
C34   O35   A    
C67   C80   A    
C69   C95   S    
C6    C10   A    
Cu1   O36   S    
H42   O28   S    
C97   O27   D    
C14   C45   A    
C42   C51   A    
C47   C49   A    
C88   O9    D    
C16   C64   A    
C25   C34   S    
C17   C65   A    
C27   C47   A    
C31   C38   A    
C15   C56   A    
C38   H3    S    
C11   H31   S    
Cu2   O31   S    
C20   H23   S    
C29   C31   A    
C77   H22   S    
C82   C86   A    
C38   C40   A    
C77   C80   A    
C78   C81   A    
H40   O24   S    
C5    H7    S    
C19   C61   A    
Cu4   O7    S    
C57   C98   S    
C48   C50   A    
C17   C78   A    
H38   O19   S    
C8    H10   S    
C7    H9    S    
C35   C62   S    
C18   H1    S    
C96   O25   D    
C98   O30   S    
C58   C89   A    
C10   H30   S    
C23   O23   A    
C52   C92   S    
C24   C68   A    
C9    C84   A    
Cu2   O4    S    
C30   N4    A    
Cu3   O5    S    
C1    C24   S    
C59   H13   S    
C32   H6    S    
C30   H2    S    
H39   O21   S    
C15   C63   A    
C70   C72   A    
C92   O17   S    
Cu4   O34   S    
Cu3   O33   S    
C81   C85   A    
C33   O5    A    
C53   N1    A    
C37   O8    A    
