data_mof_unit_1838.cif
_audit_creation_date              2012-12-10T17:55:52-0500
_audit_creation_method            fapswitch 2.2
_symmetry_space_group_name_H-M    P1
_symmetry_Int_Tables_number       1
_space_group_crystal_system       triclinic
_cell_length_a                    10.85056
_cell_length_b                    10.850473
_cell_length_c                    9.538725
_cell_angle_alpha                 91.350574
_cell_angle_beta                  102.1507
_cell_angle_gamma                 90.486642
_cell_volume                      1097.46164424

loop_
_atom_site_label
_atom_site_type_symbol
_atom_type_description
_atom_site_fract_x
_atom_site_fract_y
_atom_site_fract_z
_atom_type_partial_charge
C1    C     C_R   0.503297 0.262331 0.499240 0.844761
C2    C     C_R   0.499729 0.737923 0.501724 0.901568
C3    C     C_R   0.260407 0.504999 0.443089 0.883262
C4    C     C_R   0.738831 0.501898 0.557547 0.915584
C5    C     C_R   0.430487 0.414594 0.052929 0.491071
C6    C     C_R   0.573667 0.582275 0.947104 0.500621
C7    C     C_R   0.428813 0.416806 0.904779 -0.091830
C8    C     C_R   0.571718 0.583064 0.094891 -0.097650
C9    C     C_2   0.120469 0.520141 0.418896 -0.130232
C10   C     C_2   0.877991 0.507359 0.586216 -0.093077
C11   C     C_2   0.071353 0.586242 0.517739 0.307256
C12   C     C_2   0.934582 0.588980 0.512803 0.293318
C13   C     C_R   0.553187 0.059399 0.395018 0.427329
C14   C     C_R   0.460467 0.941763 0.612372 0.440303
C15   C     C_R   0.549376 0.931824 0.398314 -0.196127
C16   C     C_R   0.461107 0.068871 0.606571 -0.251665
C17   C     C_R   0.502475 0.871978 0.505304 -0.190841
C18   C     C_R   0.505852 0.128597 0.498343 -0.188804
Cu1   Cu    Cu3+1 0.500000 0.500020 0.640660 1.056934
Cu2   Cu    Cu3+1 0.500000 0.499980 0.359340 1.053946
H1    H     H_    0.372400 0.349897 0.832214 0.173905
H2    H     H_    0.629351 0.649090 0.167347 0.210618
H3    H     H_    0.585785 0.879285 0.318212 0.225572
H4    H     H_    0.425434 0.121238 0.687380 0.208190
N1    N     N_R   0.500030 0.500030 0.852080 -0.219634
N2    N     N_R   0.499970 0.499970 0.147920 -0.221400
O1    O     O_R   0.499990 0.319660 0.618740 -0.615612
O2    O     O_R   0.500010 0.680340 0.381260 -0.594953
O3    O     O_R   0.499990 0.319630 0.381170 -0.488610
O4    O     O_R   0.500010 0.680370 0.618830 -0.483519
O5    O     O_R   0.320690 0.500020 0.575130 -0.558863
O6    O     O_R   0.679310 0.499980 0.424870 -0.569281
O7    O     O_R   0.320680 0.499990 0.337560 -0.551721
O8    O     O_R   0.679320 0.500010 0.662440 -0.548524
Cl1   Cl    Cl    0.850802 0.707742 0.411459 -0.572290
Cl2   Cl    Cl    0.163113 0.677373 0.657812 -0.486415
Cl3   Cl    Cl    0.345997 0.293682 0.108291 -0.581614
Cl4   Cl    Cl    0.676665 0.687228 0.891672 -0.496680
C19   C     C_3   0.957368 0.416685 0.686340 -0.462142
C20   C     C_3   0.882750 0.323873 0.755111 -0.712399
H5    H     H_    0.834086 0.371325 0.832054 0.267999
H6    H     H_    0.813171 0.272330 0.671713 0.244462
H7    H     H_    0.948661 0.256591 0.815713 0.259238
H8    H     H_    0.016138 0.363209 0.624791 0.215989
H9    H     H_    0.021882 0.469359 0.773623 0.260682
C21   C     C_3   0.028384 0.458079 0.293021 -0.486145
C22   C     C_3   0.086606 0.380017 0.190529 -0.649123
H10   H     H_    0.140167 0.439849 0.131052 0.283378
H11   H     H_    0.147374 0.308790 0.250738 0.278106
H12   H     H_    0.010651 0.332545 0.110773 0.244424
H13   H     H_    0.963247 0.396791 0.335993 0.226519
H14   H     H_    0.970882 0.530134 0.229848 0.269895
Cl5   Cl    Cl    0.624971 0.126230 0.264881 -0.508575
Cl6   Cl    Cl    0.403791 0.877804 0.755225 -0.437201

loop_
_geom_bond_atom_site_label_1
_geom_bond_atom_site_label_2
_ccdc_geom_bond_type
C8    H2    S    
C11   C12   S    
C6    Cl4   S    
C19   H8    S    
C3    C9    S    
C5    Cl3   S    
Cu1   O1    S    
C22   H10   S    
C7    N1    A    
C2    O4    A    
C19   H9    S    
Cu1   O5    S    
C15   H3    S    
C1    O3    A    
C5    C7    A    
C9    C21   S    
C16   H4    S    
C16   C18   A    
C12   Cl1   S    
C3    O5    A    
C9    C11   D    
C14   C17   A    
C1    C18   S    
C4    O6    A    
Cu2   N2    S    
C13   C18   A    
C6    C8    A    
Cu2   O7    S    
C10   C12   D    
C20   H6    S    
C11   Cl2   S    
C14   Cl6   S    
C22   H12   S    
C13   Cl5   S    
Cu2   O3    S    
C13   C15   A    
C4    O8    A    
Cu1   N1    S    
C14   C16   A    
C1    O1    A    
C3    O7    A    
C4    C10   S    
C5    N2    A    
C6    N1    A    
C21   H14   S    
C8    N2    A    
C22   H11   S    
Cu2   O6    S    
C19   C20   S    
C15   C17   A    
C21   C22   S    
C20   H5    S    
C2    O2    A    
Cu2   O2    S    
C7    H1    S    
Cu1   O4    S    
C21   H13   S    
C20   H7    S    
Cu1   Cu2   S    
C10   C19   S    
C2    C17   S    
Cu1   O8    S    
