data_mof_unit_1816.cif
_audit_creation_date              2012-12-10T17:38:50-0500
_audit_creation_method            fapswitch 2.2
_symmetry_space_group_name_H-M    P1
_symmetry_Int_Tables_number       1
_space_group_crystal_system       triclinic
_cell_length_a                    12.422652
_cell_length_b                    13.202556
_cell_length_c                    23.527168
_cell_angle_alpha                 75.333734
_cell_angle_beta                  101.266372
_cell_angle_gamma                 117.232279
_cell_volume                      3305.00136915

loop_
_atom_site_label
_atom_site_type_symbol
_atom_type_description
_atom_site_fract_x
_atom_site_fract_y
_atom_site_fract_z
_atom_type_partial_charge
C1    C     C_R   0.855024 0.286013 0.507284 0.951733
C2    C     C_R   0.806147 0.308979 0.034781 0.486790
C3    C     C_R   0.809785 0.311613 0.975376 -0.213218
C4    C     C_R   0.897597 0.406106 0.941847 -0.066679
C5    C     C_R   0.984653 0.499877 0.968148 -0.068521
C6    C     C_R   0.072857 0.595731 0.934209 -0.212112
C7    C     C_R   0.158333 0.690305 0.960856 0.391089
C8    C     C_R   0.159852 0.685336 0.021133 0.582830
C9    C     C_R   0.900695 0.408598 0.882312 0.693572
C10   C     C_R   0.072729 0.593197 0.874613 0.697983
C11   C     C_R   0.942029 0.562947 0.744931 0.541323
C12   C     C_R   0.999102 0.498385 0.609023 0.952161
C13   C     C_R   0.945169 0.562435 0.686186 0.470351
C14   C     C_R   0.999477 0.500009 0.671628 -0.445549
C15   C     C_R   0.053295 0.440040 0.717434 0.269207
C16   C     C_R   0.044657 0.437413 0.776421 0.521864
C17   C     C_R   0.990885 0.499964 0.790010 -0.047672
C18   C     C_R   0.066362 0.453826 0.250626 0.548103
C19   C     C_R   0.068106 0.452330 0.310518 0.257466
C20   C     C_R   0.993105 0.491355 0.328506 -0.443753
C21   C     C_R   0.911196 0.522809 0.285648 0.513015
C22   C     C_R   0.908565 0.521106 0.226459 0.538239
C23   C     C_R   0.144695 0.713713 0.493369 0.796210
C24   C     C_R   0.986868 0.488048 0.208809 -0.072766
C25   C     C_R   0.282594 0.026452 0.427128 0.695269
C26   C     C_R   0.225762 0.837695 0.488962 -0.259057
C27   C     C_R   0.804030 0.093814 0.570404 0.435754
C28   C     C_R   0.714515 0.009409 0.606417 0.369271
C29   C     C_R   0.592381 0.986921 0.589118 0.488345
C30   C     C_R   0.555971 0.030042 0.530194 -0.105794
C31   C     C_R   0.648511 0.123534 0.496939 -0.269516
C32   C     C_R   0.432509 0.988808 0.503898 -0.110504
C33   C     C_R   0.403592 0.058889 0.451767 -0.307485
C34   C     C_R   0.998186 0.497647 0.391138 0.915955
C35   C     C_R   0.496603 0.154526 0.421859 0.621429
C36   C     C_R   0.616865 0.179880 0.441484 0.568366
C37   C     C_R   0.339452 0.876291 0.523192 0.495200
C38   C     C_R   0.194839 0.916051 0.445412 -0.337007
C39   C     C_R   0.771361 0.162287 0.520808 -0.204884
C40   C     C_R   0.345434 0.334336 0.602189 0.438273
C41   C     C_R   0.768155 0.658140 0.424971 0.665804
C42   C     C_R   0.694612 0.713669 0.424352 -0.412309
C43   C     C_R   0.599673 0.661916 0.460188 0.631376
C44   C     C_R   0.564599 0.547511 0.491120 -0.118684
C45   C     C_R   0.071962 0.584077 0.115626 0.733372
C46   C     C_R   0.654776 0.504961 0.501060 -0.042171
C47   C     C_R   0.454069 0.483726 0.520599 -0.173495
C48   C     C_R   0.449272 0.395216 0.570257 -0.221245
C49   C     C_R   0.546246 0.365031 0.585578 0.575381
C50   C     C_R   0.642016 0.412593 0.550533 0.548347
C51   C     C_R   0.344396 0.497251 0.499800 0.689050
C52   C     C_R   0.247229 0.362095 0.584028 -0.116458
C53   C     C_R   0.899357 0.399751 0.122728 0.684338
C54   C     C_R   0.895546 0.400665 0.062356 -0.094096
C55   C     C_R   0.984098 0.496942 0.028577 -0.141222
C56   C     C_R   0.072925 0.589686 0.055275 -0.218456
Cu1   Cu    Cu3+1 0.098270 0.475410 0.513370 1.013011
Cu2   Cu    Cu3+1 0.901730 0.524590 0.486630 1.123464
H1    H     H_    0.105442 0.888491 0.421399 0.223507
H2    H     H_    0.743194 0.238540 0.955762 0.204751
H3    H     H_    0.168974 0.320024 0.609209 0.215579
H4    H     H_    0.717451 0.801600 0.400813 0.179286
N1    N     N_R   0.986348 0.490380 0.147595 -0.416264
N2    N     N_R   0.987580 0.500785 0.850351 -0.402635
N3    N     N_R   0.246280 0.438190 0.533650 -0.255255
N4    N     N_R   0.754320 0.561190 0.466710 -0.193830
O1    O     O_R   0.972510 0.318130 0.516820 -0.556605
O2    O     O_2   0.817558 0.309348 0.156691 -0.447248
O3    O     O_2   0.817746 0.319615 0.856422 -0.497903
O4    O     O_2   0.157369 0.681187 0.841068 -0.483196
O5    O     O_R   0.806530 0.359650 0.494230 -0.504726
O6    O     O_R   0.082990 0.479200 0.593420 -0.584082
O7    O     O_R   0.917010 0.520720 0.570830 -0.474176
O8    O     O_R   0.193470 0.640350 0.505770 -0.591326
O9    O     O_R   0.027490 0.681870 0.483180 -0.546139
O10   O     O_R   0.082990 0.479280 0.429170 -0.550184
O11   O     O_R   0.917010 0.520800 0.406580 -0.465613
O12   O     O_2   0.155268 0.671472 0.142440 -0.419970
O13   O     O_3   0.719773 0.212405 0.066515 -0.527966
C57   C     C_3   0.607375 0.219425 0.052581 -0.124270
H5    H     H_    0.614287 0.301117 0.061667 0.167927
H6    H     H_    0.540218 0.146009 0.080936 0.223500
H7    H     H_    0.572042 0.211662 0.005888 0.138317
O14   O     O_3   0.147777 0.417717 0.350594 -0.479679
C58   C     C_3   0.090057 0.296207 0.368646 -0.013264
H8    H     H_    0.070259 0.251248 0.331139 0.187447
H9    H     H_    0.005114 0.268376 0.389338 0.114519
H10   H     H_    0.152424 0.268866 0.402381 0.195084
F1    F     F_    0.833143 0.555501 0.300487 -0.567080
F2    F     F_    0.830609 0.553305 0.185800 -0.570591
F3    F     F_    0.472206 0.217149 0.369810 -0.522999
F4    F     F_    0.250744 0.096718 0.381218 -0.593726
O15   O     O_3   0.364675 0.798286 0.569089 -0.521196
C59   C     C_3   0.288311 0.764876 0.614610 -0.124006
H11   H     H_    0.199118 0.693875 0.605797 0.109109
H12   H     H_    0.274286 0.837967 0.621984 0.133486
H13   H     H_    0.330968 0.731860 0.656447 0.198394
F5    F     F_    0.922962 0.119833 0.588373 -0.662322
O16   O     O_3   0.515392 0.937625 0.633406 -0.548482
C60   C     C_3   0.497030 0.025194 0.648367 -0.226448
H14   H     H_    0.445707 0.061100 0.611491 0.168619
H15   H     H_    0.584553 0.095888 0.661658 0.211809
H16   H     H_    0.441875 0.986570 0.686663 0.194268
O17   O     O_3   0.743863 0.950985 0.660444 -0.513900
C61   C     C_3   0.811236 0.028918 0.699610 -0.071884
H17   H     H_    0.782731 0.099812 0.694102 0.121164
H18   H     H_    0.909969 0.066177 0.694927 0.212963
H19   H     H_    0.796739 0.979800 0.745435 0.186439
F6    F     F_    0.702614 0.258456 0.404846 -0.622935
F7    F     F_    0.547813 0.284112 0.634296 -0.613288
O18   O     O_3   0.342648 0.252607 0.652901 -0.519471
C62   C     C_3   0.258414 0.141503 0.642032 -0.193373
H20   H     H_    0.269731 0.075614 0.679558 0.191946
H21   H     H_    0.274483 0.123778 0.601336 0.136121
H22   H     H_    0.163427 0.130467 0.639265 0.193656
O19   O     O_3   0.322685 0.532226 0.439415 -0.552642
C63   C     C_3   0.339669 0.648893 0.423234 -0.040641
H23   H     H_    0.366739 0.695573 0.460428 0.198693
H24   H     H_    0.256210 0.654152 0.398856 0.144613
H25   H     H_    0.409490 0.696367 0.391255 0.177613
O20   O     O_3   0.869144 0.709838 0.392885 -0.558036
C64   C     C_3   0.848988 0.771662 0.336575 -0.174886
H26   H     H_    0.863696 0.859752 0.339583 0.142570
H27   H     H_    0.757258 0.724121 0.314506 0.203974
H28   H     H_    0.917064 0.783254 0.308311 0.226146
F8    F     F_    0.565609 0.733476 0.476348 -0.677871
F9    F     F_    0.721200 0.366391 0.570803 -0.639840
O21   O     O_3   0.246084 0.785661 0.929257 -0.499919
C65   C     C_3   0.205767 0.873921 0.910504 -0.117974
H29   H     H_    0.198271 0.905092 0.948639 0.174869
H30   H     H_    0.117367 0.844583 0.882762 0.152425
H31   H     H_    0.273626 0.948641 0.883030 0.194648
F10   F     F_    0.247671 0.775127 0.045707 -0.580722
F11   F     F_    0.890356 0.624096 0.758225 -0.578466
F12   F     F_    0.896902 0.625054 0.643646 -0.580440
O22   O     O_3   0.104309 0.375308 0.704965 -0.533674
C66   C     C_3   0.232123 0.434663 0.714076 -0.151019
H32   H     H_    0.272498 0.378964 0.708194 0.203328
H33   H     H_    0.267231 0.516572 0.681149 0.143506
H34   H     H_    0.263694 0.453089 0.759524 0.200579
F13   F     F_    0.088250 0.373511 0.820738 -0.609715
F14   F     F_    0.142030 0.421494 0.233101 -0.570269

loop_
_geom_bond_atom_site_label_1
_geom_bond_atom_site_label_2
_ccdc_geom_bond_type
C55   C56   A    
C27   F5    S    
O15   C59   S    
C9    N2    A    
C53   N1    A    
C41   C42   A    
C19   C20   A    
O21   C65   S    
C8    C56   A    
C62   H21   S    
C7    C8    A    
C21   F1    S    
C53   C54   A    
C61   H18   S    
C1    O5    A    
C18   C24   A    
Cu1   O10   S    
C21   C22   A    
C28   C29   A    
C9    O3    S    
C46   N4    A    
C52   H3    S    
C63   H24   S    
C34   O11   A    
C5    C6    A    
Cu2   O5    S    
C15   C16   A    
O19   C63   S    
C18   C19   A    
C51   N3    A    
C23   C26   S    
C41   O20   S    
C53   O2    S    
C62   H20   S    
C2    O13   S    
Cu2   O11   S    
C1    O1    A    
Cu2   N4    S    
O18   C62   S    
C45   C56   A    
C27   C39   A    
C16   C17   A    
C45   O12   S    
C7    O21   S    
C42   H4    S    
C44   C47   A    
C65   H31   S    
C20   C34   S    
C3    H2    S    
C12   O6    A    
C12   O7    A    
C13   F12   S    
Cu1   O1    S    
C57   H7    S    
C43   F8    S    
O17   C61   S    
C61   H19   S    
C44   C46   A    
Cu2   O9    S    
C40   O18   S    
C58   H9    S    
C66   H34   S    
C29   O16   S    
C18   F14   S    
O14   C58   S    
C57   H6    S    
C2    C54   A    
C11   F11   S    
Cu1   N3    S    
C26   C38   A    
C47   C51   A    
C15   O22   S    
C59   H13   S    
C58   H8    S    
C45   N1    A    
C60   H16   S    
C38   H1    S    
C35   C36   A    
Cu1   O8    S    
C43   C44   A    
C29   C30   A    
C25   C38   A    
C66   H33   S    
C28   O17   S    
C47   C48   A    
C60   H15   S    
C22   F2    S    
C37   O15   S    
C32   C37   A    
C59   H12   S    
O20   C64   S    
C6    C7    A    
C10   O4    S    
C48   C49   A    
C12   C14   S    
C24   N1    S    
C22   C24   A    
C63   H25   S    
C42   C43   A    
C23   O8    A    
C64   H27   S    
C3    C4    A    
C36   F6    S    
C65   H29   S    
C61   H17   S    
C58   H10   S    
C40   C48   A    
C54   C55   A    
C11   C17   A    
C25   F4    S    
C8    F10   S    
C31   C36   A    
C5    C55   A    
C10   N2    A    
C23   O9    A    
C57   H5    S    
C6    C10   A    
C26   C37   A    
C41   N4    A    
C66   H32   S    
C46   C50   A    
C51   O19   S    
O16   C60   S    
C32   C33   A    
C64   H28   S    
C16   F13   S    
C4    C9    A    
C17   N2    S    
C40   C52   A    
C63   H23   S    
C30   C32   A    
C11   C13   A    
Cu1   Cu2   S    
C30   C31   A    
C60   H14   S    
C33   C35   A    
C31   C39   A    
C2    C3    A    
Cu1   O6    S    
C59   H11   S    
C1    C39   S    
O13   C57   S    
C4    C5    A    
C20   C21   A    
C49   C50   A    
C34   O10   A    
C27   C28   A    
C14   C15   A    
O22   C66   S    
C50   F9    S    
C64   H26   S    
C13   C14   A    
C62   H22   S    
C52   N3    A    
C19   O14   S    
Cu2   O7    S    
C25   C33   A    
C49   F7    S    
C65   H30   S    
C35   F3    S    
