data_mof_unit_4860.cif
_audit_creation_date              2012-12-11T16:22:26-0500
_audit_creation_method            fapswitch 2.2
_symmetry_space_group_name_H-M    P1
_symmetry_Int_Tables_number       1
_space_group_crystal_system       triclinic
_cell_length_a                    16.917452
_cell_length_b                    16.790254
_cell_length_c                    19.5686
_cell_angle_alpha                 118.064937
_cell_angle_beta                  62.749778
_cell_angle_gamma                 100.625601
_cell_volume                      4357.06592644

loop_
_atom_site_label
_atom_site_type_symbol
_atom_type_description
_atom_site_fract_x
_atom_site_fract_y
_atom_site_fract_z
_atom_type_partial_charge
Br1   Br    Br    0.094728 0.854771 0.068886 -0.693218
Br2   Br    Br    0.862113 0.952253 0.884594 -0.609960
C1    C     C_R   0.024772 0.760829 0.022974 0.289790
C2    C     C_R   0.245560 0.556210 0.826438 0.513551
C3    C     C_R   0.193381 0.437680 0.038629 -0.103918
C4    C     C_R   0.763440 0.422945 0.163741 -0.127581
C5    C     C_R   0.034358 0.324311 0.751032 -0.117536
C6    C     C_R   0.275032 0.448328 0.979607 0.102657
C7    C     C_R   0.020225 0.238140 0.746230 0.033140
C8    C     C_R   0.251364 0.510578 0.744354 -0.069012
C9    C     C_R   0.987701 0.232864 0.043445 0.104981
C10   C     C_R   0.126275 0.828168 0.422698 0.531021
C11   C     C_R   0.101719 0.767043 0.357572 -0.285637
C12   C     C_R   0.765757 0.443759 0.240131 0.038213
C13   C     C_R   0.096117 0.793851 0.301916 0.069863
C14   C     C_R   0.123375 0.879559 0.306714 -0.161743
C15   C     C_R   0.145312 0.941495 0.372647 -0.213172
C16   C     C_R   0.815346 0.510236 0.913705 -0.127752
C17   C     C_R   0.140283 0.918594 0.434790 -0.080665
C18   C     C_R   0.173287 0.071327 0.527429 -0.200112
C19   C     C_R   0.140191 0.151405 0.602128 -0.154909
C20   C     C_R   0.058855 0.153136 0.670173 0.137310
C21   C     C_R   0.014354 0.072951 0.665280 -0.185836
C22   C     C_R   0.046694 0.993431 0.590465 -0.089178
C23   C     C_R   0.740659 0.462003 0.938156 0.056140
C24   C     C_R   0.124551 0.992767 0.519788 0.140648
C25   C     C_R   0.559999 0.357986 0.367531 -0.164571
C26   C     C_R   0.625865 0.371289 0.298835 -0.166140
C27   C     C_R   0.705754 0.409813 0.302459 0.142450
C28   C     C_R   0.009276 0.659825 0.240942 -0.126548
C29   C     C_R   0.723596 0.422307 0.370175 -0.181880
C30   C     C_R   0.657360 0.409241 0.439128 -0.190671
C31   C     C_R   0.573121 0.384049 0.440702 0.117237
C32   C     C_R   0.486888 0.500168 0.585656 -0.197062
C33   C     C_R   0.406400 0.534287 0.656597 -0.118545
C34   C     C_R   0.058161 0.735394 0.241436 0.057874
C35   C     C_R   0.333206 0.479151 0.665810 0.164754
C36   C     C_R   0.341236 0.389375 0.603576 -0.166930
C37   C     C_R   0.421842 0.355243 0.532242 -0.189883
C38   C     C_R   0.494908 0.410736 0.522749 0.125389
C39   C     C_R   0.673124 0.435140 0.904978 0.119363
C40   C     C_R   0.748532 0.433692 0.990880 -0.124697
C41   C     C_R   0.361637 0.403019 0.943800 -0.010001
C42   C     C_R   0.459072 0.323302 0.953661 -0.397797
C43   C     C_R   0.372700 0.342192 0.970414 0.575826
C44   C     C_R   0.436996 0.430398 0.889336 -0.345091
C45   C     C_R   0.261100 0.515688 0.963558 -0.181752
C46   C     C_R   0.520433 0.419464 0.881047 0.189709
C47   C     C_R   0.530600 0.369462 0.917592 0.135665
C48   C     C_R   0.608850 0.374285 0.925759 -0.233747
C49   C     C_R   0.666667 0.476970 0.860088 -0.176812
C50   C     C_R   0.591174 0.467363 0.846366 -0.195143
C51   C     C_R   0.780138 0.169001 0.163894 0.085987
C52   C     C_R   0.080227 0.735383 0.164309 -0.078557
C53   C     C_R   0.930821 0.860545 0.016374 0.111947
C54   C     C_R   0.876961 0.947611 0.974332 0.306190
C55   C     C_R   0.916602 0.868844 0.954729 -0.243166
C56   C     C_R   0.967660 0.247503 0.828406 -0.121407
C57   C     C_R   0.905062 0.932687 0.098738 -0.208965
C58   C     C_R   0.864867 0.012042 0.119778 0.125031
C59   C     C_R   0.849486 0.019673 0.057607 0.070420
C60   C     C_R   0.806136 0.098716 0.081145 -0.219703
C61   C     C_R   0.796506 0.161670 0.224381 -0.153037
C62   C     C_R   0.838411 0.083472 0.202730 -0.181513
C63   C     C_R   0.842042 0.491746 0.240117 -0.119404
C64   C     C_R   0.944917 0.689095 0.948326 -0.198418
C65   C     C_R   0.966268 0.774047 0.996498 0.023561
C66   C     C_3   0.278139 0.693926 0.915000 0.146652
C67   C     C_R   0.167243 0.482726 0.751625 -0.247863
C68   C     C_3   0.355998 0.748277 0.931464 -0.284721
C69   C     C_3   0.326247 0.842993 0.004593 -0.917032
C70   C     C_3   0.210245 0.797484 0.471501 0.168660
C71   C     C_3   0.206861 0.765206 0.533883 -0.228152
C72   C     C_3   0.299515 0.758816 0.526482 -1.021269
C73   C     C_3   0.293283 0.300720 0.081948 0.137765
C74   C     C_3   0.302779 0.205335 0.069518 -0.232826
C75   C     C_3   0.293313 0.206377 0.151319 -1.012984
C76   C     C_R   0.026404 0.314016 0.075775 -0.120460
C77   C     C_R   0.949375 0.245796 0.999908 -0.128422
H1    H     H_    0.943479 0.193995 0.847744 0.114684
H2    H     H_    0.156239 0.010218 0.380197 0.147351
H3    H     H_    0.233624 0.072016 0.473629 0.121434
H4    H     H_    0.176927 0.212223 0.605788 0.108697
H5    H     H_    0.951672 0.072605 0.717134 0.141665
H6    H     H_    0.006468 0.934551 0.585672 0.158205
H7    H     H_    0.495318 0.338197 0.367515 0.117405
H8    H     H_    0.610287 0.358783 0.246974 0.108803
H9    H     H_    0.785833 0.448182 0.373386 0.113220
H10   H     H_    0.668681 0.427998 0.494933 0.123940
H11   H     H_    0.541621 0.545209 0.577780 0.128434
H12   H     H_    0.146256 0.455161 0.700763 0.129186
H13   H     H_    0.837736 0.530614 0.863143 0.089785
H14   H     H_    0.401168 0.604096 0.703118 0.153639
H15   H     H_    0.285593 0.345311 0.610752 0.116185
H16   H     H_    0.426724 0.286584 0.483517 0.118540
H17   H     H_    0.614540 0.337869 0.956569 0.117060
H18   H     H_    0.716374 0.522140 0.840806 0.121529
H19   H     H_    0.469432 0.278535 0.974721 0.146119
H20   H     H_    0.584547 0.504893 0.816735 0.131252
H21   H     H_    0.431166 0.469573 0.861050 0.158177
H22   H     H_    0.791535 0.107015 0.036540 0.163056
H23   H     H_    0.052010 0.331898 0.122413 0.088150
H24   H     H_    0.992031 0.630809 0.284735 0.092897
H25   H     H_    0.776097 0.216573 0.288297 0.134052
H26   H     H_    0.849880 0.078683 0.250827 0.132301
H27   H     H_    0.936347 0.813681 0.890890 0.163838
H28   H     H_    0.913402 0.925932 0.147494 0.166826
H29   H     H_    0.708918 0.385578 0.013629 0.087712
H30   H     H_    0.134738 0.771494 0.136558 0.135172
H31   H     H_    0.871003 0.509173 0.284205 0.086366
H32   H     H_    0.902957 0.673317 0.915732 0.125201
H33   H     H_    0.311168 0.546460 0.927083 0.169000
H34   H     H_    0.904296 0.200411 0.975665 0.112548
H35   H     H_    0.229364 0.688391 0.974347 0.129168
H36   H     H_    0.246135 0.729665 0.897843 0.145207
H37   H     H_    0.388778 0.712158 0.947506 0.199712
H38   H     H_    0.405638 0.753730 0.872268 0.206685
H39   H     H_    0.295401 0.881381 0.989083 0.295319
H40   H     H_    0.384862 0.879528 0.014196 0.256040
H41   H     H_    0.278014 0.839398 0.065012 0.274406
H42   H     H_    0.239972 0.865170 0.486152 0.105516
H43   H     H_    0.253186 0.748737 0.404912 0.095075
H44   H     H_    0.163968 0.813157 0.600522 0.216612
H45   H     H_    0.178360 0.394988 0.069567 0.137698
H46   H     H_    0.177332 0.697636 0.520161 0.200922
H47   H     H_    0.343159 0.710026 0.460683 0.267101
H48   H     H_    0.294649 0.735173 0.572534 0.275624
H49   H     H_    0.329663 0.826066 0.541549 0.273045
H50   H     H_    0.225693 0.328826 0.132669 0.112786
H51   H     H_    0.340779 0.346245 0.106695 0.083915
H52   H     H_    0.250616 0.162972 0.050927 0.218524
H53   H     H_    0.368772 0.174229 0.017152 0.193870
H54   H     H_    0.346075 0.246748 0.170100 0.262112
H55   H     H_    0.299966 0.136232 0.140254 0.280466
H56   H     H_    0.068431 0.340260 0.697531 0.089604
H57   H     H_    0.226996 0.235664 0.204311 0.268250
H58   H     H_    0.084483 0.699814 0.352666 0.138075
H59   H     H_    0.120672 0.901609 0.263945 0.152633
H60   H     H_    0.721325 0.375491 0.136413 0.086709
N1    N     N_R   0.034930 0.670790 0.995440 -0.081495
N2    N     N_R   0.867000 0.509260 0.948460 -0.036165
N3    N     N_R   0.003780 0.616410 0.165900 -0.043092
N4    N     N_R   0.825670 0.461520 0.995440 -0.040035
N5    N     N_R   0.045120 0.664150 0.118920 -0.044130
N6    N     N_R   0.884940 0.497570 0.165910 -0.039014
N7    N     N_R   0.985840 0.628110 0.948460 -0.052753
N8    N     N_R   0.174330 0.538480 0.004560 -0.051874
N9    N     N_R   0.954880 0.335850 0.881080 -0.040710
N10   N     N_R   0.115060 0.502430 0.834090 -0.054339
N11   N     N_R   0.014160 0.371890 0.051540 -0.042888
N12   N     N_R   0.965070 0.329210 0.004560 -0.043224
N13   N     N_R   0.164150 0.545120 0.881070 -0.101367
N14   N     N_R   0.133000 0.490740 0.051540 -0.050639
N15   N     N_R   0.996220 0.383590 0.834100 -0.033783
N16   N     N_R   0.835850 0.454880 0.118930 -0.038476
Ni1   Ni    Ni4+2 0.103690 0.603690 0.000000 0.214561
Ni2   Ni    Ni4+2 0.896310 0.396310 0.000000 0.214667
Ni3   Ni    Ni4+2 0.991110 0.505800 0.892250 0.211479
Ni4   Ni    Ni4+2 0.008890 0.494200 0.107750 0.203328
O1    O     O_3   0.312202 0.608118 0.846727 -0.711334
O2    O     O_3   0.122986 0.801905 0.481137 -0.671163
O3    O     O_3   0.300486 0.296437 0.005139 -0.671453

loop_
_geom_bond_atom_site_label_1
_geom_bond_atom_site_label_2
_ccdc_geom_bond_type
C42   C47   A    
C49   H18   S    
C52   N5    A    
N5    Ni1   S    
C18   H3    S    
C70   H42   S    
N16   Ni2   S    
C51   C61   A    
C71   C72   S    
C39   C48   A    
C6    C41   S    
N3    Ni4   S    
C43   O3    S    
C62   H26   S    
C2    O1    S    
C25   C31   A    
C3    H45   S    
C75   H54   S    
C69   H41   S    
C73   O3    S    
C32   C38   A    
N12   Ni2   S    
C26   C27   A    
C33   C35   A    
C22   C24   A    
N15   Ni3   S    
C53   C57   A    
N2    N4    A    
C36   C37   A    
N6    Ni4   S    
C74   H52   S    
C56   N9    A    
C7    C20   S    
C76   H23   S    
C68   H38   S    
C13   C14   A    
C54   C55   A    
C32   C33   A    
C4    H60   S    
C17   C24   S    
C10   O2    S    
C42   H19   S    
C72   H49   S    
C19   H4    S    
C14   C15   A    
C71   H44   S    
C28   H24   S    
C70   O2    S    
C68   C69   S    
C75   H57   S    
C64   H32   S    
C22   H6    S    
C4    N16   A    
C73   H51   S    
C56   H1    S    
C60   H22   S    
C64   C65   A    
C57   C58   A    
C19   C20   A    
C16   C23   A    
N9    N15   A    
C72   H48   S    
C40   H29   S    
N4    Ni2   S    
C44   C46   A    
C33   H14   S    
C2    N13   A    
C45   N8    A    
C31   C38   S    
C21   H5    S    
C66   O1    S    
C49   C50   A    
N13   Ni1   S    
C74   C75   S    
N11   Ni4   S    
N10   N13   A    
N1    N7    A    
C37   C38   A    
C70   C71   S    
C68   H37   S    
C3    N14   A    
C57   H28   S    
C52   H30   S    
C58   C59   A    
Br1   C1    S    
C11   H58   S    
N14   Ni4   S    
C25   H7    S    
C73   C74   S    
C32   H11   S    
C5    H56   S    
C35   C36   A    
C9    C76   A    
C4    C12   A    
C51   C60   A    
C30   H10   S    
C11   C13   A    
C21   C22   A    
C36   H15   S    
C26   H8    S    
C10   C11   A    
N8    Ni1   S    
C41   C43   A    
C37   H16   S    
C9    C77   A    
N1    Ni1   S    
C46   C47   A    
C69   H40   S    
C53   C55   A    
N3    N5    A    
C75   H55   S    
C12   C27   S    
C63   N6    A    
C13   C34   S    
C25   C26   A    
C42   C43   A    
C76   N11   A    
C77   N12   A    
N10   Ni3   S    
C5    C7    A    
C44   H21   S    
C7    C56   A    
C29   H9    S    
C69   H39   S    
C70   H43   S    
C20   C21   A    
C29   C30   A    
C14   H59   S    
C61   H25   S    
C18   C24   A    
C23   C40   A    
C3    C6    A    
C53   C65   S    
N7    Ni3   S    
C8    C35   S    
C45   H33   S    
C50   H20   S    
C28   N3    A    
C28   C34   A    
C58   C62   A    
C67   N10   A    
C30   C31   A    
C77   H34   S    
C6    C45   A    
C16   H13   S    
C27   C29   A    
Br2   C54   S    
C74   H53   S    
C48   H17   S    
C72   H47   S    
C5    N15   A    
C1    C65   A    
C71   H46   S    
C10   C17   A    
C15   C17   A    
C12   C63   A    
C39   C49   A    
C55   H27   S    
C15   H2    S    
N9    Ni2   S    
C59   C60   A    
N8    N14   A    
C41   C44   A    
C63   H31   S    
C64   N7    A    
C34   C52   A    
C66   H36   S    
C61   C62   A    
N6    N16   A    
C8    C67   A    
N2    Ni3   S    
C46   C50   A    
C18   C19   A    
C66   C68   S    
C47   C48   A    
C40   N4    A    
C54   C59   A    
C23   C39   S    
C1    N1    A    
C67   H12   S    
C2    C8    A    
C16   N2    A    
C73   H50   S    
C66   H35   S    
N11   N12   A    
