data_mof_unit_761.cif
_audit_creation_date              2012-12-11T14:57:55-0500
_audit_creation_method            fapswitch 2.2
_symmetry_space_group_name_H-M    P1
_symmetry_Int_Tables_number       1
_space_group_crystal_system       triclinic
_cell_length_a                    6.946543
_cell_length_b                    16.731174
_cell_length_c                    17.03537
_cell_angle_alpha                 100.385888
_cell_angle_beta                  90.947671
_cell_angle_gamma                 90.487829
_cell_volume                      1947.07723051

loop_
_atom_site_label
_atom_site_type_symbol
_atom_type_description
_atom_site_fract_x
_atom_site_fract_y
_atom_site_fract_z
_atom_type_partial_charge
O1    O     O_R   0.506180 0.438940 0.579430 -0.508309
O2    O     O_R   0.170520 0.406230 0.413590 -0.541863
O3    O     O_R   0.005180 0.561060 0.420570 -0.545554
C1    C     C_R   0.338206 0.382322 0.386063 0.678061
O4    O     O_R   0.176140 0.429310 0.578370 -0.532305
O5    O     O_R   0.010830 0.584300 0.586530 -0.532118
C2    C     C_R   0.345209 0.413097 0.604664 0.748744
O6    O     O_R   0.500520 0.415700 0.413470 -0.537597
O7    O     O_3   0.340830 0.550820 0.502480 -0.375948
V1    V     V_3+5 0.064040 0.490570 0.499540 1.467914
O8    O     O_R   0.681400 0.593770 0.586410 -0.527897
C3    C     C_R   0.851482 0.614477 0.616733 0.784645
O9    O     O_R   0.675790 0.570690 0.421630 -0.547403
C4    C     C_R   0.842220 0.586255 0.394678 0.680171
V2    V     V_3+5 0.564650 0.509430 0.500460 1.472163
O10   O     O_3   0.837730 0.449180 0.497520 -0.353049
C5    C     C_R   0.928748 0.860704 0.166640 -0.062616
C6    C     C_R   0.837777 0.638917 0.332951 -0.062224
C7    C     C_R   0.649215 0.695064 0.233468 -0.200697
C8    C     C_R   0.669027 0.640238 0.285904 -0.151416
C9    C     C_R   0.989128 0.692942 0.324988 -0.252441
C10   C     C_R   0.969234 0.749020 0.272643 0.161929
C11   C     C_R   0.797444 0.750434 0.226770 0.160950
C12   C     C_R   0.777472 0.806586 0.174497 -0.250893
C13   C     C_R   0.097639 0.859264 0.213584 -0.155187
C14   C     C_R   0.117527 0.804358 0.265924 -0.204507
H1    H     H_    0.647620 0.806299 0.138229 0.120945
H2    H     H_    0.216754 0.900362 0.209137 0.123623
H3    H     H_    0.516868 0.694657 0.198782 0.122620
H4    H     H_    0.249961 0.804710 0.300558 0.119393
H5    H     H_    0.549956 0.599131 0.290362 0.126541
H6    H     H_    0.118945 0.693259 0.361272 0.120490
H7    H     H_    0.705726 0.645354 0.985397 0.136858
C15   C     C_R   0.000019 0.903174 0.723961 -0.153532
C16   C     C_R   0.039048 0.914922 0.646915 -0.124334
C17   C     C_R   0.020410 0.850605 0.583077 -0.117676
C18   C     C_R   0.963328 0.774046 0.595896 -0.135153
C19   C     C_R   0.924180 0.759838 0.673746 0.060345
C20   C     C_R   0.942157 0.825982 0.738841 0.070887
C21   C     C_R   0.866827 0.681523 0.686859 -0.183827
C22   C     C_R   0.827244 0.669052 0.766300 0.009499
C23   C     C_R   0.839313 0.737298 0.830580 0.046284
C24   C     C_R   0.899041 0.814697 0.816892 -0.163757
C25   C     C_R   0.778104 0.591529 0.786098 0.213578
C26   C     C_R   0.732745 0.584839 0.864312 -0.075224
C27   C     C_R   0.739626 0.651853 0.925009 -0.177055
C28   C     C_R   0.794527 0.726860 0.908947 -0.138525
H8    H     H_    0.014885 0.955403 0.771521 0.100571
H9    H     H_    0.083060 0.974365 0.636688 0.114389
H10   H     H_    0.049868 0.860055 0.523186 0.113226
H11   H     H_    0.949879 0.726476 0.543851 0.089889
H12   H     H_    0.694618 0.526331 0.878791 0.183994
H13   H     H_    0.802118 0.776519 0.959291 0.109117
H14   H     H_    0.272706 0.492134 0.141748 0.135901
C29   C     C_R   0.376204 0.213928 0.404233 -0.133815
C30   C     C_R   0.401469 0.134162 0.415290 -0.118789
C31   C     C_R   0.429999 0.072634 0.350044 -0.118440
C32   C     C_R   0.435105 0.090461 0.273271 -0.142856
C33   C     C_R   0.411091 0.170976 0.259973 0.062990
C34   C     C_R   0.379203 0.233803 0.327015 0.072698
C35   C     C_R   0.421766 0.189282 0.181715 -0.166384
C36   C     C_R   0.402577 0.272031 0.171431 0.018151
C37   C     C_R   0.348169 0.332315 0.237911 0.047307
C38   C     C_R   0.347456 0.314485 0.315987 -0.160215
C39   C     C_R   0.437657 0.298870 0.097925 0.219026
C40   C     C_R   0.384241 0.376688 0.087548 -0.059729
C41   C     C_R   0.310968 0.431642 0.150276 -0.158937
C42   C     C_R   0.299231 0.410975 0.225338 -0.153641
H15   H     H_    0.352275 0.259623 0.456704 0.081887
H16   H     H_    0.398135 0.120000 0.474812 0.109638
H17   H     H_    0.449148 0.010717 0.358948 0.112288
H18   H     H_    0.460213 0.040490 0.224740 0.093409
H19   H     H_    0.408800 0.396330 0.031292 0.171829
H20   H     H_    0.250161 0.457304 0.273367 0.112020
C43   C     C_R   0.418101 0.135652 0.830706 -0.066788
C44   C     C_R   0.349862 0.362208 0.667783 -0.090171
C45   C     C_R   0.208433 0.329951 0.789041 0.269944
C46   C     C_R   0.227753 0.381169 0.733004 -0.145405
C47   C     C_R   0.463642 0.292448 0.661455 -0.197170
C48   C     C_R   0.448479 0.240514 0.718001 0.120330
C49   C     C_R   0.316833 0.258094 0.781582 0.077980
C50   C     C_R   0.300262 0.204218 0.836515 -0.142207
C51   C     C_R   0.549766 0.120011 0.768224 -0.145952
C52   C     C_R   0.562877 0.171068 0.711868 -0.135598
H21   H     H_    0.202480 0.216659 0.885885 0.180027
H22   H     H_    0.643539 0.067977 0.763177 0.111309
H23   H     H_    0.664965 0.156863 0.664091 0.112398
H24   H     H_    0.147790 0.436872 0.740647 0.187659
H25   H     H_    0.559861 0.277585 0.611592 0.123308
O11   O     O_R   0.265840 0.084300 0.086750 -0.537152
O12   O     O_R   0.589750 0.070740 0.921690 -0.514707
O13   O     O_R   0.755020 0.915730 0.913400 -0.543422
C53   C     C_R   0.421085 0.084851 0.893805 0.743620
O14   O     O_R   0.595830 0.093740 0.086480 -0.516119
O15   O     O_R   0.761150 0.938890 0.079360 -0.545166
C54   C     C_R   0.428063 0.120268 0.111921 0.759588
O16   O     O_R   0.259710 0.061140 0.920790 -0.544958
O17   O     O_3   0.425260 0.949200 0.997610 -0.379864
V3    V     V_3+5 0.702060 0.009430 0.000450 1.493017
O18   O     O_R   0.090530 0.929220 0.078150 -0.545557
C55   C     C_R   0.924155 0.913579 0.105100 0.685138
O19   O     O_R   0.084440 0.906220 0.913360 -0.540834
C56   C     C_R   0.914103 0.884269 0.884536 0.683011
V4    V     V_3+5 0.201450 0.990520 0.999290 1.443249
O20   O     O_3   0.928380 0.050800 0.002390 -0.346846
Br1   Br    Br    0.780276 0.488012 0.716502 -0.560808
Br2   Br    Br    0.605746 0.246383 0.017372 -0.520938
Br3   Br    Br    0.031943 0.362127 0.874411 -0.520973

loop_
_geom_bond_atom_site_label_1
_geom_bond_atom_site_label_2
_ccdc_geom_bond_type
C29   C30   A    
C6    C9    A    
C22   C23   A    
C4    C6    S    
O2    C1    A    
C7    C8    A    
C52   H23   S    
C48   C52   A    
C43   C51   A    
C49   C50   A    
C35   C54   S    
C26   C27   A    
C13   H2    S    
C36   C37   A    
C17   C18   A    
C44   C46   A    
O5    C3    A    
C19   C20   A    
C18   H11   S    
O15   V3    S    
C42   H20   S    
V2    O10   S    
O17   V3    S    
O18   V4    S    
C30   C31   A    
C15   C16   A    
C5    C55   S    
O13   C56   A    
C37   C42   A    
O8    V2    S    
C16   C17   A    
C16   H9    S    
C11   C12   A    
C12   H1    S    
O1    V2    S    
O9    C4    A    
O7    V1    S    
C1    O6    A    
C28   H13   S    
C40   C41   A    
C33   C34   A    
C29   C34   A    
H7    C27   S    
C35   C36   A    
V4    O20   S    
V3    O20   S    
C9    H6    S    
C33   C35   A    
C5    C12   A    
C41   C42   A    
C47   C48   A    
O4    C2    A    
C20   C24   A    
H14   C41   S    
C26   H12   S    
C32   C33   A    
C45   C46   A    
C40   H19   S    
C15   C20   A    
C3    C21   S    
C7    C11   A    
C18   C19   A    
O12   C53   A    
C51   C52   A    
C45   C49   A    
C31   H17   S    
O14   C54   A    
O11   V4    S    
C29   H15   S    
O3    C4    A    
C21   C22   A    
C14   H4    S    
O6    V2    S    
C30   H16   S    
O9    V2    S    
C22   C25   A    
C15   H8    S    
C23   C24   A    
O2    V1    S    
C53   O16   A    
C17   H10   S    
C25   C26   A    
C43   C53   S    
C46   H24   S    
C27   C28   A    
C36   C39   A    
O1    C2    A    
C45   Br3   S    
C48   C49   A    
O5    V1    S    
O8    C3    A    
C43   C50   A    
O11   C54   A    
C2    C44   S    
C25   Br1   S    
C50   H21   S    
C1    C38   S    
O19   V4    S    
C34   C38   A    
C5    C13   A    
C13   C14   A    
O4    V1    S    
O3    V1    S    
V1    O10   S    
C19   C21   A    
C32   H18   S    
C31   C32   A    
O14   V3    S    
O17   V4    S    
O18   C55   A    
C6    C8    A    
C23   C28   A    
O7    V2    S    
O19   C56   A    
C24   C56   S    
C47   H25   S    
O16   V4    S    
C37   C38   A    
C51   H22   S    
C39   C40   A    
C10   C14   A    
C44   C47   A    
C10   C11   A    
O12   V3    S    
C9    C10   A    
C39   Br2   S    
O15   C55   A    
O13   V3    S    
C8    H5    S    
C7    H3    S    
