data_mof_unit_2241.cif
_audit_creation_date              2013-03-05T16:12:06-0500
_audit_creation_method            fapswitch 2.2
_symmetry_space_group_name_H-M    P1
_symmetry_Int_Tables_number       1
_space_group_crystal_system       triclinic
_cell_length_a                    9.841668
_cell_length_b                    10.663597
_cell_length_c                    16.919426
_cell_angle_alpha                 90.194868
_cell_angle_beta                  84.899749
_cell_angle_gamma                 89.976058
_cell_volume                      1768.61176023

loop_
_atom_site_label
_atom_site_type_symbol
_atom_site_description
_atom_site_fract_x
_atom_site_fract_y
_atom_site_fract_z
_atom_type_partial_charge
O1    O     O_R   0.385380 0.683250 0.500010 -0.610367
O2    O     O_R   0.614620 0.316750 0.499990 -0.610360
O3    O     O_R   0.614710 0.683220 0.500000 -0.603533
O4    O     O_R   0.385290 0.316780 0.500000 -0.603546
C1    C     C_R   0.499974 0.739603 0.499888 0.964107
C2    C     C_R   0.500026 0.260397 0.500112 0.964088
O5    O     O_R   0.371780 0.500040 0.615800 -0.649523
O6    O     O_R   0.628220 0.499960 0.384200 -0.649520
O7    O     O_R   0.601110 0.500010 0.615800 -0.543678
O8    O     O_R   0.398890 0.499990 0.384200 -0.543678
C3    C     C_R   0.480894 0.505869 0.652678 0.942934
C4    C     C_R   0.519106 0.494130 0.347322 0.942951
Zn1   Zn    Zn3+2 0.346870 0.500020 0.500000 1.021496
Zn2   Zn    Zn3+2 0.653130 0.499980 0.500000 1.021505
C5    C     C_R   0.468116 0.525488 0.737919 -0.072902
C6    C     C_R   0.531885 0.474491 0.262083 -0.072900
C7    C     C_R   0.571385 0.589048 0.774754 0.453949
C8    C     C_R   0.428625 0.410902 0.225256 0.453933
C9    C     C_R   0.558288 0.601799 0.857097 -0.168013
C10   C     C_R   0.441732 0.398114 0.142914 -0.167996
C11   C     C_R   0.445960 0.550082 0.901540 0.042111
C12   C     C_R   0.554057 0.449827 0.098466 0.042089
C13   C     C_R   0.339783 0.494815 0.864658 -0.171873
C14   C     C_R   0.660224 0.505124 0.135341 -0.171864
C15   C     C_R   0.350533 0.482973 0.782758 -0.211384
C16   C     C_R   0.649466 0.517000 0.217240 -0.211379
C17   C     C_2   0.450475 0.535891 0.986766 0.358953
C18   C     C_2   0.549534 0.464003 0.013239 0.358950
H1    H     H_    0.730165 0.564180 0.245244 0.189330
H2    H     H_    0.269827 0.435814 0.754749 0.189330
H3    H     H_    0.252889 0.454610 0.899444 0.164153
H4    H     H_    0.747113 0.545328 0.100550 0.164152
H5    H     H_    0.361206 0.354212 0.112885 0.144106
H6    H     H_    0.638820 0.645683 0.887131 0.144101
C19   C     C_R   0.554663 0.936076 0.563203 0.337607
C20   C     C_R   0.445340 0.063923 0.436794 0.337619
C21   C     C_R   0.556517 0.065536 0.561939 0.270917
C22   C     C_R   0.443489 0.934463 0.438057 0.270916
C23   C     C_R   0.500476 0.128074 0.499504 -0.408580
C24   C     C_R   0.499525 0.871925 0.500494 -0.408581
C25   C     C_R   0.935213 0.417521 0.453568 -0.053180
C26   C     C_R   0.064786 0.582479 0.546432 -0.053191
H7    H     H_    0.886415 0.351616 0.416430 0.139972
H8    H     H_    0.113585 0.648384 0.583570 0.139971
C27   C     C_R   0.079094 0.417509 0.453617 -0.009261
C28   C     C_R   0.920906 0.582491 0.546383 -0.009264
H9    H     H_    0.139310 0.351468 0.416598 0.183497
H10   H     H_    0.860690 0.648531 0.583402 0.183498
N1    N     N_R   0.142790 0.500030 0.500020 -0.093804
N2    N     N_R   0.857210 0.499970 0.499980 -0.093805
O9    O     O_3   0.683816 0.636384 0.729806 -0.758688
H11   H     H_    0.745042 0.678225 0.765214 0.346208
O10   O     O_3   0.316194 0.363575 0.270208 -0.758716
H12   H     H_    0.255006 0.321670 0.234809 0.346233
O11   O     O_3   0.646787 0.407370 0.960659 -0.766872
H13   H     H_    0.708675 0.357929 0.991736 0.345419
O12   O     O_3   0.353220 0.592523 0.039346 -0.766876
H14   H     H_    0.291333 0.641963 0.008270 0.345421
O13   O     O_3   0.601918 0.876338 0.627940 -0.676496
H15   H     H_    0.561810 0.791519 0.633583 0.339228
O14   O     O_3   0.398089 0.123661 0.372056 -0.676519
H16   H     H_    0.438167 0.208491 0.366423 0.339249
N3    N     N_R   0.608653 0.133198 0.626464 0.254327
O15   O     O_R   0.532897 0.215866 0.666254 -0.399411
O16   O     O_R   0.726548 0.103756 0.650433 -0.300732
N4    N     N_R   0.391364 0.866799 0.373529 0.254318
O17   O     O_R   0.467120 0.784119 0.333749 -0.399425
O18   O     O_R   0.273487 0.896261 0.349540 -0.300721

loop_
_geom_bond_atom_site_label_1
_geom_bond_atom_site_label_2
_geom_bond_distance
_ccdc_geom_bond_type
N4    O18   1.301367 A    
O7    Zn2   1.980529 S    
C14   H4    1.083548 S    
C9    C11   1.395432 A    
O9    H11   0.991792 S    
O7    C3    1.288966 A    
C28   N2    1.366376 A    
C27   N1    1.366376 A    
O6    C4    1.290461 A    
N3    O16   1.301349 A    
C7    O9    1.382374 S    
O11   H13   0.991952 S    
C20   C22   1.380858 A    
C19   C24   1.409222 A    
C11   C17   1.455005 S    
O13   H15   0.988521 S    
C21   C23   1.404601 A    
C12   C18   1.455007 S    
O10   H12   0.991751 S    
C17   O12   1.384459 S    
C22   C24   1.404602 A    
C25   H7    1.081815 S    
O12   H14   0.991938 S    
O2    C2    1.277965 A    
O3    Zn2   1.990091 S    
C26   H8    1.081814 S    
O1    C1    1.277966 A    
C10   H5    1.084279 S    
O8    C4    1.288967 A    
C12   C14   1.393782 A    
O4    C2    1.279221 A    
C19   C21   1.380851 A    
C18   O11   1.384457 S    
C10   C12   1.395432 A    
O5    C3    1.290462 A    
C8    C10   1.393885 A    
C27   H9    1.081715 S    
C11   C13   1.393781 A    
C6    C16   1.402463 A    
O14   H16   0.988504 S    
O2    Zn2   1.990467 S    
C19   O13   1.384501 S    
Zn1   N1    2.008458 S    
C5    C15   1.402462 A    
O1    Zn1   1.990467 S    
Zn2   N2    2.008458 S    
C26   N1    1.366212 A    
C20   O14   1.384500 S    
C28   H10   1.081715 S    
C22   N4    1.438854 S    
C25   N2    1.366211 A    
O5    Zn1   1.996055 S    
C13   C15   1.385661 A    
N4    O17   1.300929 A    
C16   H1    1.083509 S    
C6    C8    1.411056 A    
C26   C28   1.416098 A    
C1    C24   1.411035 S    
C17   C18   1.348350 D    
C5    C7    1.411054 A    
C25   C27   1.416098 A    
C2    C23   1.411039 S    
C15   H2    1.083510 S    
O6    Zn2   1.996055 S    
C8    O10   1.382375 S    
C7    C9    1.393880 A    
C21   N3    1.438850 S    
C3    C5    1.450959 S    
C9    H6    1.084282 S    
C20   C23   1.409226 A    
C4    C6    1.450960 S    
O4    Zn1   1.990091 S    
C14   C16   1.385665 A    
N3    O15   1.300921 A    
O3    C1    1.279219 A    
O8    Zn1   1.980529 S    
C13   H3    1.083550 S    
