data_mof_unit_970.cif
_audit_creation_date              2012-12-11T15:36:01-0500
_audit_creation_method            fapswitch 2.2
_symmetry_space_group_name_H-M    P1
_symmetry_Int_Tables_number       1
_space_group_crystal_system       triclinic
_cell_length_a                    7.141193
_cell_length_b                    12.202063
_cell_length_c                    35.690632
_cell_angle_alpha                 90.001454
_cell_angle_beta                  91.706949
_cell_angle_gamma                 90.002196
_cell_volume                      3108.6047952

loop_
_atom_site_label
_atom_site_type_symbol
_atom_type_description
_atom_site_fract_x
_atom_site_fract_y
_atom_site_fract_z
_atom_type_partial_charge
O1    O     O_R   0.379730 0.148600 0.662710 -0.556148
O2    O     O_R   0.620270 0.851400 0.337290 -0.516173
O3    O     O_R   0.120270 0.648600 0.337290 -0.556176
O4    O     O_R   0.879730 0.351400 0.662710 -0.516161
O5    O     O_R   0.722480 0.134490 0.741330 -0.529304
O6    O     O_R   0.277520 0.865510 0.258670 -0.531433
O7    O     O_R   0.777520 0.634490 0.258670 -0.529235
O8    O     O_R   0.222480 0.365510 0.741330 -0.531437
O9    O     O_R   0.892880 0.345890 0.741600 -0.530855
O10   O     O_R   0.107120 0.654110 0.258400 -0.555982
O11   O     O_R   0.607120 0.845890 0.258400 -0.530767
O12   O     O_R   0.392880 0.154110 0.741600 -0.555981
C1    C     C_R   0.553977 0.112823 0.754013 0.677226
C2    C     C_R   0.444686 0.883476 0.244872 0.640447
C3    C     C_R   0.946032 0.612760 0.246001 0.677117
C4    C     C_R   0.055322 0.383418 0.755141 0.640412
O13   O     O_R   0.709490 0.135560 0.662990 -0.526170
O14   O     O_R   0.290510 0.864440 0.337010 -0.545373
O15   O     O_R   0.790510 0.635560 0.337010 -0.526193
O16   O     O_R   0.209490 0.364440 0.662990 -0.545411
C5    C     C_R   0.538924 0.107369 0.651564 0.742537
C6    C     C_R   0.461547 0.891727 0.348914 0.720363
C7    C     C_R   0.961068 0.607378 0.348438 0.742431
C8    C     C_R   0.038459 0.391731 0.651089 0.720611
O17   O     O_3   0.552800 0.316610 0.702160 -0.353640
O18   O     O_3   0.447200 0.683390 0.297840 -0.383393
O19   O     O_3   0.947200 0.816610 0.297840 -0.353568
O20   O     O_3   0.052800 0.183390 0.702160 -0.383376
V1    V     V_3+5 0.827630 0.234380 0.702160 1.536642
V2    V     V_3+5 0.172370 0.765620 0.297840 1.491803
V3    V     V_3+5 0.672370 0.734380 0.297840 1.536882
V4    V     V_3+5 0.327630 0.265620 0.702160 1.491568
C9    C     C_R   0.972764 0.629616 0.925956 0.531458
C10   C     C_R   0.026491 0.333944 0.082168 0.644224
C11   C     C_R   0.527199 0.130217 0.074161 0.531409
C12   C     C_R   0.473455 0.834610 0.917980 0.643266
O21   O     O_2   0.922279 0.527083 0.934338 -0.553187
O22   O     O_2   0.091827 0.432412 0.073038 -0.538705
O23   O     O_2   0.577719 0.027701 0.065763 -0.553233
O24   O     O_2   0.408049 0.933055 0.927113 -0.539031
N1    N     N_R   0.025284 0.657178 0.890116 -0.524516
N2    N     N_R   0.972179 0.311946 0.118099 -0.522691
N3    N     N_R   0.474682 0.157717 0.110006 -0.524615
N4    N     N_R   0.527653 0.812584 0.882045 -0.522655
C13   C     C_R   0.065496 0.765631 0.883512 0.515899
C14   C     C_R   0.935485 0.203517 0.126739 0.591666
C15   C     C_R   0.434490 0.266157 0.116639 0.515116
C16   C     C_R   0.564536 0.704168 0.873425 0.592296
C17   C     C_R   0.973119 0.619419 0.821654 0.018529
C18   C     C_R   0.042134 0.366730 0.184767 0.001676
C19   C     C_R   0.527010 0.119707 0.178446 0.018711
C20   C     C_R   0.457721 0.867060 0.815345 0.001778
C21   C     C_R   0.984206 0.558543 0.788726 -0.067579
C22   C     C_R   0.043912 0.436695 0.215850 -0.072237
C23   C     C_R   0.515968 0.058703 0.211350 -0.067295
C24   C     C_R   0.456118 0.936866 0.784223 -0.072449
C25   C     C_R   0.115490 0.407438 0.824918 -0.042941
C26   C     C_R   0.879765 0.573586 0.177743 -0.080511
C27   C     C_R   0.384224 0.907803 0.175112 -0.043417
C28   C     C_R   0.619947 0.073983 0.822296 -0.081037
C29   C     C_R   0.102100 0.470512 0.858821 -0.037012
C30   C     C_R   0.900853 0.507014 0.145057 -0.039038
C31   C     C_R   0.397585 0.971012 0.141238 -0.037609
C32   C     C_R   0.598438 0.007626 0.855010 -0.039539
C33   C     C_R   0.030812 0.580260 0.857586 0.187585
C34   C     C_R   0.970361 0.396157 0.148598 0.261230
C35   C     C_R   0.469101 0.080708 0.142508 0.187524
C36   C     C_R   0.529246 0.896699 0.851514 0.260530
C37   C     C_R   0.996500 0.819999 0.946989 -0.026193
C38   C     C_R   0.992154 0.143131 0.062872 -0.076055
C39   C     C_R   0.503182 0.320615 0.053148 -0.025162
C40   C     C_R   0.507614 0.643788 0.937277 -0.076163
C41   C     C_R   0.965862 0.708957 0.954947 -0.033114
C42   C     C_R   0.027478 0.253052 0.054140 -0.056705
C43   C     C_R   0.534065 0.209595 0.045184 -0.033628
C44   C     C_R   0.472512 0.753730 0.946013 -0.056370
C45   C     C_R   0.925039 0.679033 0.991695 -0.114887
C46   C     C_R   0.072418 0.281203 0.017560 -0.109982
C47   C     C_R   0.575041 0.179716 0.008438 -0.114836
C48   C     C_R   0.427787 0.781907 0.982599 -0.109882
C49   C     C_R   0.034060 0.849499 0.909971 -0.090343
C50   C     C_R   0.952010 0.116342 0.100173 -0.065538
C51   C     C_R   0.465550 0.350069 0.090172 -0.088686
C52   C     C_R   0.547723 0.616992 0.899978 -0.065182
C53   C     C_R   0.050490 0.450789 0.790080 -0.208981
C54   C     C_R   0.954803 0.539060 0.212915 -0.157349
C55   C     C_R   0.449491 0.950980 0.209959 -0.209017
C56   C     C_R   0.545196 0.039254 0.787124 -0.157736
H1    H     H_    0.898508 0.594271 0.998874 0.189475
H2    H     H_    0.102390 0.365204 0.009911 0.172904
H3    H     H_    0.601776 0.094979 0.001257 0.189540
H4    H     H_    0.398065 0.865933 0.990257 0.172988
C57   C     C_R   0.954366 0.950391 0.042565 0.044430
C58   C     C_R   0.038586 0.011227 0.967870 0.026438
C59   C     C_R   0.545167 0.451034 0.957570 0.044545
C60   C     C_R   0.460811 0.511843 0.032269 0.026749
C61   C     C_R   0.040544 0.091421 0.996930 0.017030
C62   C     C_R   0.954882 0.869315 0.013438 0.021587
C63   C     C_R   0.459128 0.592073 0.003216 0.016881
C64   C     C_R   0.544784 0.369970 0.986700 0.021259
C65   C     C_R   0.995961 0.061159 0.034089 0.069245
C66   C     C_R   0.995461 0.900596 0.976168 0.077446
C67   C     C_R   0.503664 0.561805 0.966054 0.069199
C68   C     C_R   0.504098 0.401224 0.023970 0.078381
C69   C     C_R   0.916718 0.924528 0.080263 -0.133602
C70   C     C_R   0.070076 0.039165 0.930118 -0.006586
C71   C     C_R   0.582612 0.425150 0.919862 -0.134378
C72   C     C_R   0.428902 0.539717 0.070017 -0.008490
C73   C     C_R   0.919623 0.003921 0.108881 -0.015138
C74   C     C_R   0.058600 0.961565 0.901206 0.062985
C75   C     C_R   0.579780 0.504559 0.891252 -0.015706
C76   C     C_R   0.440490 0.462114 0.098931 0.063513
O25   O     O_2   0.880766 0.179300 0.161169 -0.526408
O26   O     O_2   0.147755 0.792709 0.851751 -0.578423
O27   O     O_2   0.619795 0.679966 0.839031 -0.526627
O28   O     O_2   0.352619 0.293176 0.148448 -0.578520
C77   C     C_R   0.916880 0.757216 0.020070 -0.147817
C78   C     C_R   0.084052 0.202263 0.990006 -0.164820
C79   C     C_R   0.583098 0.257907 0.980067 -0.148034
C80   C     C_R   0.416090 0.702973 0.010152 -0.165196
H5    H     H_    0.880402 0.726232 0.046991 0.146620
H6    H     H_    0.130533 0.231946 0.963646 0.173551
H7    H     H_    0.619800 0.226963 0.953150 0.147422
H8    H     H_    0.370046 0.732739 0.036526 0.173999
C81   C     C_R   0.975871 0.527933 0.379186 -0.041065
C82   C     C_R   0.022770 0.470326 0.619825 -0.045398
C83   C     C_R   0.524096 0.027920 0.620816 -0.041096
C84   C     C_R   0.477245 0.970309 0.380185 -0.045354
C85   C     C_R   0.005122 0.343650 0.403793 -0.253497
C86   C     C_R   0.961297 0.651476 0.594526 -0.242078
C87   C     C_R   0.494831 0.843635 0.596205 -0.253496
C88   C     C_R   0.538746 0.151453 0.405494 -0.242021
C89   C     C_R   0.968439 0.413527 0.373348 -0.028087
C90   C     C_R   0.954781 0.578080 0.624412 -0.012904
C91   C     C_R   0.531566 0.913514 0.626650 -0.028078
C92   C     C_R   0.545356 0.078047 0.375612 -0.012898
C93   C     C_R   0.008084 0.569730 0.415240 -0.253952
C94   C     C_R   0.072106 0.434535 0.584137 -0.246751
C95   C     C_R   0.491795 0.069715 0.584766 -0.253940
C96   C     C_R   0.427775 0.934528 0.415866 -0.246675
C97   C     C_R   0.029021 0.500067 0.446654 0.089359
C98   C     C_R   0.050025 0.503464 0.552428 0.085865
C99   C     C_R   0.470817 0.000053 0.553351 0.089356
C100  C     C_R   0.449825 0.003455 0.447579 0.085845
C101  C     C_R   0.034299 0.385624 0.440102 0.135402
C102  C     C_R   0.005751 0.615017 0.558736 0.132556
C103  C     C_R   0.465573 0.885609 0.559899 0.135402
C104  C     C_R   0.494146 0.115006 0.441277 0.132554
C105  C     C_R   0.038267 0.540161 0.484286 0.055488
C106  C     C_R   0.060695 0.464579 0.514751 0.054790
C107  C     C_R   0.461526 0.040150 0.515721 0.055501
C108  C     C_R   0.439109 0.964569 0.485254 0.054785
C109  C     C_R   0.078370 0.351793 0.506497 -0.198582
C110  C     C_R   0.013621 0.652520 0.492533 -0.202401
C111  C     C_R   0.421433 0.851782 0.493505 -0.198578
C112  C     C_R   0.486145 0.152514 0.507478 -0.202402
C113  C     C_R   0.063324 0.313391 0.469932 -0.187089
C114  C     C_R   0.995111 0.688554 0.528997 -0.188382
C115  C     C_R   0.436512 0.813376 0.530068 -0.187076
C116  C     C_R   0.504715 0.188548 0.471016 -0.188386
H9    H     H_    0.070143 0.225766 0.465059 0.142440
H10   H     H_    0.965874 0.774559 0.533829 0.141250
H11   H     H_    0.429708 0.725751 0.534939 0.142433
H12   H     H_    0.533964 0.274554 0.466187 0.141248
H13   H     H_    0.122003 0.351451 0.581924 0.101126
H14   H     H_    0.015946 0.657619 0.417632 0.098535
H15   H     H_    0.377812 0.851452 0.418074 0.101135
H16   H     H_    0.483909 0.157603 0.582378 0.098535
C117  C     C_2   0.208198 0.298156 0.824513 0.594533
H17   H     H_    0.162426 0.236298 0.804417 0.039255
O29   O     O_2   0.342147 0.277583 0.845303 -0.540176
C118  C     C_2   0.783592 0.682610 0.175440 0.331261
H18   H     H_    0.815285 0.746068 0.195926 0.074810
O30   O     O_2   0.665127 0.702447 0.151061 -0.549199
C119  C     C_2   0.291498 0.798502 0.175474 0.595512
H19   H     H_    0.337124 0.736631 0.195575 0.039425
O31   O     O_2   0.157731 0.777903 0.154636 -0.539475
C120  C     C_2   0.716256 0.182980 0.824596 0.332945
H20   H     H_    0.685485 0.246228 0.803985 0.073931
O32   O     O_2   0.833769 0.203039 0.849136 -0.548231
C121  C     C_2   0.866999 0.616718 0.658822 0.300420
H21   H     H_    0.888030 0.700717 0.668015 0.101855
O33   O     O_2   0.759567 0.558098 0.675664 -0.511760
C122  C     C_2   0.923006 0.363137 0.336408 0.309182
H22   H     H_    0.961930 0.278610 0.331213 0.112727
O34   O     O_2   0.835374 0.413019 0.311991 -0.526930
C123  C     C_2   0.633393 0.116653 0.341226 0.300438
H23   H     H_    0.612406 0.200637 0.332017 0.101858
O35   O     O_2   0.740981 0.058028 0.324427 -0.511702
C124  C     C_2   0.577088 0.863124 0.663585 0.309160
H24   H     H_    0.538247 0.778580 0.668776 0.112634
O36   O     O_2   0.664701 0.913027 0.688002 -0.526923
H25   H     H_    0.004366 0.255632 0.399386 0.123911
H26   H     H_    0.917061 0.735700 0.598532 0.120848
H27   H     H_    0.495613 0.755616 0.600609 0.123886
H28   H     H_    0.583053 0.235670 0.401496 0.120849
H29   H     H_    0.094742 0.289849 0.527827 0.130003
H30   H     H_    0.997738 0.714946 0.471402 0.130425
H31   H     H_    0.405052 0.789840 0.472172 0.130001
H32   H     H_    0.501979 0.214945 0.528609 0.130414
C125  C     C_2   0.159934 0.420410 0.894831 0.523555
H33   H     H_    0.225922 0.469924 0.916419 0.051444
O37   O     O_2   0.121656 0.325381 0.901823 -0.521261
C126  C     C_2   0.876269 0.565459 0.108921 0.526926
H34   H     H_    0.928476 0.648490 0.106589 0.096371
O38   O     O_2   0.797470 0.524579 0.081813 -0.557381
C127  C     C_2   0.339772 0.921036 0.105210 0.523374
H35   H     H_    0.273705 0.970597 0.083646 0.051443
O39   O     O_2   0.378195 0.826060 0.098180 -0.521761
C128  C     C_2   0.621612 0.066449 0.891101 0.529277
H36   H     H_    0.567235 0.149001 0.893388 0.097124
O40   O     O_2   0.701713 0.026398 0.918200 -0.557561
C129  C     C_2   0.138321 0.400017 0.251505 0.479116
H37   H     H_    0.150109 0.454143 0.275499 0.054093
O41   O     O_2   0.205862 0.308365 0.254582 -0.524575
C130  C     C_2   0.942225 0.612950 0.752445 0.564263
H38   H     H_    0.004374 0.581491 0.727384 0.026341
O42   O     O_2   0.842772 0.694317 0.750321 -0.494253
C131  C     C_2   0.361984 0.899989 0.748564 0.479273
H39   H     H_    0.350213 0.954021 0.724547 0.054104
O43   O     O_2   0.294651 0.808274 0.745510 -0.524492
C132  C     C_2   0.558241 0.112943 0.247647 0.564346
H40   H     H_    0.496175 0.081409 0.272705 0.026027
O44   O     O_2   0.657838 0.194254 0.249790 -0.494280
H41   H     H_    0.105386 0.287447 0.189190 0.237634
H42   H     H_    0.921011 0.701877 0.818451 0.214406
H43   H     H_    0.394648 0.787716 0.810946 0.237732
H44   H     H_    0.579393 0.202112 0.181666 0.214266
C133  C     C_2   0.885027 0.962079 0.147020 0.486904
H45   H     H_    0.774377 0.903155 0.150829 0.070005
O45   O     O_2   0.986086 0.986654 0.173880 -0.502609
C134  C     C_2   0.071694 0.001268 0.862181 0.482027
H46   H     H_    0.988452 0.963883 0.839705 0.072189
O46   O     O_2   0.177763 0.075610 0.854702 -0.520543
C135  C     C_2   0.613868 0.462722 0.853089 0.486617
H47   H     H_    0.724249 0.403663 0.849222 0.070307
O47   O     O_2   0.512708 0.487520 0.826272 -0.502641
C136  C     C_2   0.426970 0.501810 0.137947 0.482520
H48   H     H_    0.510556 0.464740 0.160433 0.072244
O48   O     O_2   0.320194 0.575808 0.145405 -0.520474
H49   H     H_    0.887360 0.841896 0.088769 0.131263
H50   H     H_    0.091716 0.122216 0.921446 0.180335
H51   H     H_    0.611621 0.342490 0.911337 0.131431
H52   H     H_    0.406558 0.622692 0.078685 0.180066

loop_
_geom_bond_atom_site_label_1
_geom_bond_atom_site_label_2
_ccdc_geom_bond_type
C26   C30   A    
C22   C129  S    
C63   C67   A    
C39   C68   A    
C48   C80   A    
O1    C5    A    
C124  H24   S    
C86   C102  A    
O13   V1    S    
C117  H17   S    
C98   C102  A    
C11   O23   S    
C10   N2    A    
C25   C117  S    
C100  C104  A    
C103  C115  A    
C79   H7    S    
C120  H20   S    
C28   C56   A    
C38   C65   A    
C97   C105  A    
C85   H25   S    
C119  O31   D    
C112  H32   S    
C129  H37   S    
C46   H2    S    
C99   C103  A    
C61   C65   A    
C45   H1    S    
C18   C22   A    
C17   C33   A    
C94   H13   S    
C116  H12   S    
O20   V1    S    
C46   C78   A    
O9    C4    A    
C83   C91   A    
C2    C55   S    
C110  C114  A    
C87   C91   A    
O10   C3    A    
C84   C92   A    
C109  C113  A    
C78   H6    S    
C110  H30   S    
O11   C2    A    
C88   C92   A    
C24   C56   A    
C109  H29   S    
C28   C120  S    
C60   C63   A    
C64   C68   A    
C122  H22   S    
C104  C116  A    
C61   C78   A    
C77   H5    S    
C69   C73   A    
C12   C44   A    
C57   C69   A    
C63   C80   A    
C14   C50   A    
O3    C7    A    
C13   O26   S    
C58   C70   A    
O16   C8    A    
C118  O30   D    
C106  C109  A    
C47   C79   A    
O2    C6    A    
C75   C135  S    
C135  H47   S    
C37   C41   A    
O14   V2    S    
C15   C51   A    
C5    C83   S    
O14   C6    A    
C11   N3    A    
O5    C1    A    
O4    V1    S    
C20   C36   A    
O9    V1    S    
C31   C35   A    
C7    C81   S    
C29   C125  S    
C96   H15   S    
O7    C3    A    
C60   C72   A    
C100  C108  A    
O15   V3    S    
O18   V3    S    
O8    C4    A    
C31   C127  S    
O12   V4    S    
O19   V2    S    
C8    C82   S    
C126  H34   S    
C135  O47   D    
C71   H51   S    
C86   C90   A    
C83   C95   A    
C125  O37   D    
C70   H50   S    
C26   C54   A    
O20   V4    S    
C69   H49   S    
C93   H14   S    
C59   C67   A    
N1    C13   A    
C39   C51   A    
C121  O33   D    
O17   V1    S    
C15   O28   S    
C136  O48   D    
C52   C75   A    
O7    V3    S    
C30   C34   A    
C111  C115  A    
C127  H35   S    
C88   C104  A    
C50   C73   A    
N2    C14   A    
C12   O24   S    
C37   C49   A    
C130  H38   S    
C16   O27   S    
C94   C98   A    
C57   C65   A    
C131  H39   S    
C22   C54   A    
C37   C66   A    
C59   C64   A    
N1    C33   S    
C58   C61   A    
C81   C93   A    
C121  H21   S    
O19   V3    S    
O1    V4    S    
O13   C5    A    
C72   C76   A    
C80   H8    S    
O2    V3    S    
O8    V4    S    
C48   H4    S    
O3    V2    S    
O15   C7    A    
C105  C110  A    
C91   C124  S    
C38   C42   A    
C133  H45   S    
C29   C33   A    
C131  O43   D    
C101  C113  A    
C71   C75   A    
O10   V2    S    
C89   C122  S    
C6    C84   S    
C119  H19   S    
C108  C111  A    
C112  C116  A    
O4    C8    A    
C107  C108  A    
C11   C43   A    
C72   H52   S    
C32   C36   A    
C134  O46   D    
C73   C133  S    
C95   C99   A    
N3    C35   S    
C64   C79   A    
C19   C35   A    
C107  C112  A    
C49   C74   A    
C132  O44   D    
C18   C34   A    
C30   C126  S    
C40   C52   A    
C74   C134  S    
C10   C42   A    
C23   C132  S    
C85   C89   A    
C128  O40   D    
C9    C41   A    
O6    V2    S    
C126  O38   D    
O18   V2    S    
C21   C130  S    
C76   C136  S    
C3    C54   S    
C92   C123  S    
C32   C128  S    
C4    C53   S    
C115  H11   S    
C27   C31   A    
N4    C36   S    
C18   H41   S    
C44   C48   A    
C90   C121  S    
O5    V1    S    
C113  H9    S    
C111  H31   S    
C118  H18   S    
C62   C77   A    
C127  O39   D    
O16   V4    S    
C81   C89   A    
C45   C77   A    
C93   C97   A    
C136  H48   S    
C82   C94   A    
C124  O36   D    
C20   H43   S    
C14   O25   S    
C10   O22   S    
C16   C52   A    
C47   H3    S    
C13   C49   A    
C96   C100  A    
C130  O42   D    
C86   H26   S    
C120  O32   D    
C25   C29   A    
C26   C118  S    
C102  C114  A    
C40   C67   A    
C97   C101  A    
C27   C119  S    
C122  O34   D    
C125  H33   S    
C28   C32   A    
C9    N1    A    
C98   C106  A    
C60   C68   A    
C84   C96   A    
C129  O41   D    
O6    C2    A    
C133  O45   D    
C62   C66   A    
C105  C106  A    
C39   C43   A    
N3    C15   A    
O17   V4    S    
C40   C44   A    
C17   C21   A    
C57   C62   A    
C1    C56   S    
C99   C107  A    
C134  H46   S    
C25   C53   A    
C9    O21   S    
C19   C23   A    
C85   C101  A    
C23   C55   A    
C95   H16   S    
C38   C50   A    
C27   C55   A    
C123  O35   D    
C12   N4    A    
C114  H10   S    
O11   V3    S    
N4    C16   A    
C123  H23   S    
O12   C1    A    
C82   C90   A    
C70   C74   A    
C128  H36   S    
C42   C46   A    
C19   H44   S    
N2    C34   S    
C41   C45   A    
C51   C76   A    
C87   H27   S    
C21   C53   A    
C87   C103  A    
C59   C71   A    
C17   H42   S    
C43   C47   A    
C132  H40   S    
C24   C131  S    
C88   H28   S    
C20   C24   A    
C58   C66   A    
C117  O29   D    
