data_mof_unit_3844.cif
_audit_creation_date              2012-12-10T16:56:33-0500
_audit_creation_method            fapswitch 2.2
_symmetry_space_group_name_H-M    P1
_symmetry_Int_Tables_number       1
_space_group_crystal_system       triclinic
_cell_length_a                    7.772693
_cell_length_b                    8.578499
_cell_length_c                    15.706745
_cell_angle_alpha                 90.85179
_cell_angle_beta                  85.946877
_cell_angle_gamma                 93.635269
_cell_volume                      1042.51688561

loop_
_atom_site_label
_atom_site_type_symbol
_atom_type_description
_atom_site_fract_x
_atom_site_fract_y
_atom_site_fract_z
_atom_type_partial_charge
C1    C     C_R   0.545763 0.794719 0.497807 0.961458
C2    C     C_3   0.360232 0.411509 0.030894 -0.216316
C3    C     C_1   0.506839 0.499458 0.750683 -0.138035
C4    C     C_1   0.493160 0.500542 0.249317 -0.138035
C5    C     C_3   0.357369 0.558307 0.975728 0.493142
C6    C     C_3   0.642630 0.441693 0.024272 0.493142
C7    C     C_3   0.504849 0.499426 0.916933 0.014784
C8    C     C_3   0.495151 0.500574 0.083067 0.014784
C9    C     C_1   0.507670 0.499251 0.825976 0.057002
C10   C     C_1   0.492330 0.500749 0.174024 0.057002
C11   C     C_R   0.454237 0.205281 0.502193 0.961458
C12   C     C_R   0.502270 0.500012 0.661939 0.895645
C13   C     C_R   0.497730 0.499988 0.338061 0.895645
C14   C     C_2   0.569838 0.958200 0.496555 -0.363914
C15   C     C_2   0.430162 0.041799 0.503445 -0.363914
C16   C     C_3   0.490438 0.648126 0.029351 -0.264767
C17   C     C_3   0.509562 0.351874 0.970649 -0.264767
C18   C     C_3   0.639768 0.588491 0.969106 -0.216316
Cl1   Cl    Cl    0.832658 0.363679 0.058748 -0.575840
Cl2   Cl    Cl    0.167341 0.636321 0.941252 -0.575840
H1    H     H_    0.754562 0.659464 0.942091 0.221936
H2    H     H_    0.245438 0.340536 0.057909 0.221936
H3    H     H_    0.480790 0.768728 0.055092 0.192050
H4    H     H_    0.519210 0.231272 0.944908 0.192050
H5    H     H_    0.701766 0.009236 0.489980 0.183565
H6    H     H_    0.298233 0.990764 0.510020 0.183566
H7    H     H_    0.013365 0.382066 0.436437 0.199342
H8    H     H_    0.986635 0.617934 0.563563 0.199342
N1    N     N_2   0.950320 0.457950 0.477300 -0.168296
N2    N     N_2   0.049680 0.542050 0.522700 -0.168296
O1    O     O_R   0.389250 0.738570 0.505570 -0.612846
O2    O     O_R   0.610750 0.261430 0.494430 -0.612846
O3    O     O_R   0.678390 0.711630 0.491020 -0.629627
O4    O     O_R   0.321610 0.288370 0.508980 -0.629628
O5    O     O_R   0.355460 0.513480 0.630490 -0.597666
O6    O     O_R   0.644540 0.486520 0.369510 -0.597666
O7    O     O_R   0.644600 0.486540 0.615950 -0.621918
O8    O     O_R   0.355400 0.513460 0.384050 -0.621918
Zn1   Zn    Zn3+2 0.306940 0.517990 0.509710 0.970300
Zn2   Zn    Zn3+2 0.693060 0.482010 0.490290 0.970300

loop_
_geom_bond_atom_site_label_1
_geom_bond_atom_site_label_2
_ccdc_geom_bond_type
O3    Zn2   S    
C2    H2    S    
O5    Zn1   S    
N1    N2    D    
C3    C9    T    
O7    Zn2   S    
C18   H1    S    
O6    Zn2   S    
C7    C18   S    
H8    N2    S    
C1    O3    A    
C8    C16   S    
C5    Cl2   S    
C2    C17   S    
C6    Cl1   S    
C13   O8    A    
N1    Zn2   S    
C16   C18   S    
O1    Zn1   S    
C11   O2    A    
C16   H3    S    
O2    Zn2   S    
C14   H5    S    
O8    Zn1   S    
C6    C18   S    
C12   O5    A    
C17   H4    S    
H7    N1    S    
C4    C10   T    
O4    Zn1   S    
C2    C5    S    
C7    C9    S    
C1    C14   S    
C1    O1    A    
C13   O6    A    
C8    C10   S    
C12   O7    A    
C4    C13   S    
C5    C7    S    
C6    C17   S    
C14   C15   D    
C15   H6    S    
C6    C8    S    
C3    C12   S    
C7    C17   S    
C11   C15   S    
C11   O4    A    
C2    C8    S    
N2    Zn1   S    
C5    C16   S    
