data_mof_unit_632.cif
_audit_creation_date              2013-03-05T15:43:53-0500
_audit_creation_method            fapswitch 2.2
_symmetry_space_group_name_H-M    P1
_symmetry_Int_Tables_number       1
_space_group_crystal_system       triclinic
_cell_length_a                    7.212276
_cell_length_b                    14.029697
_cell_length_c                    16.463784
_cell_angle_alpha                 90.000159
_cell_angle_beta                  97.186216
_cell_angle_gamma                 90.0
_cell_volume                      1652.81924358

loop_
_atom_site_label
_atom_site_type_symbol
_atom_site_description
_atom_site_fract_x
_atom_site_fract_y
_atom_site_fract_z
_atom_type_partial_charge
O1    O     O_R   0.525340 0.338340 0.164530 -0.502662
O2    O     O_R   0.474660 0.661660 0.835470 -0.499921
O3    O     O_R   0.974660 0.838340 0.835470 -0.502686
O4    O     O_R   0.025340 0.161660 0.164530 -0.499926
O5    O     O_R   0.253520 0.352000 0.336710 -0.579235
O6    O     O_R   0.746480 0.648000 0.663290 -0.592683
O7    O     O_R   0.246480 0.852000 0.663290 -0.579243
O8    O     O_R   0.753520 0.148000 0.336710 -0.592685
O9    O     O_R   0.083330 0.168380 0.337300 -0.554326
O10   O     O_R   0.916670 0.831620 0.662700 -0.552819
O11   O     O_R   0.416670 0.668380 0.662700 -0.554323
O12   O     O_R   0.583330 0.331620 0.337300 -0.552822
C1    C     C_R   0.432179 0.369952 0.362912 0.884653
C2    C     C_R   0.567991 0.629998 0.637162 0.825480
C3    C     C_R   0.067821 0.869952 0.637088 0.884645
C4    C     C_R   0.932009 0.129999 0.362838 0.825474
O13   O     O_R   0.195840 0.349670 0.165140 -0.515263
O14   O     O_R   0.804160 0.650330 0.834860 -0.527547
O15   O     O_R   0.304160 0.849670 0.834860 -0.515282
O16   O     O_R   0.695840 0.150330 0.165140 -0.527564
C5    C     C_R   0.357066 0.370182 0.136786 0.960820
C6    C     C_R   0.642912 0.629817 0.863207 0.944484
C7    C     C_R   0.142934 0.870184 0.863212 0.960837
C8    C     C_R   0.857088 0.129816 0.136793 0.944493
O17   O     O_3   0.387830 0.193120 0.250910 -0.276913
O18   O     O_3   0.612170 0.806880 0.749090 -0.271793
O19   O     O_3   0.112170 0.693120 0.749090 -0.276895
O20   O     O_3   0.887830 0.306880 0.250910 -0.271767
V1    V     V_3+5 0.113010 0.264540 0.250910 1.263394
V2    V     V_3+5 0.886990 0.735460 0.749090 1.249391
V3    V     V_3+5 0.386990 0.764540 0.749090 1.263371
V4    V     V_3+5 0.613010 0.235460 0.250910 1.249399
H1    H     H_    0.120542 0.808221 0.271398 0.123081
H2    H     H_    0.872499 0.193607 0.727315 0.094431
H3    H     H_    0.379469 0.308219 0.728602 0.123084
H4    H     H_    0.627386 0.693623 0.272680 0.094438
C9    C     C_R   0.883325 0.190217 0.523397 -0.088042
C10   C     C_R   0.123816 0.811415 0.476648 -0.088968
C11   C     C_R   0.616655 0.690220 0.476602 -0.088044
C12   C     C_R   0.376190 0.311413 0.523353 -0.088973
C13   C     C_R   0.858449 0.223950 0.600374 -0.112696
C14   C     C_R   0.149626 0.778367 0.399428 -0.142626
C15   C     C_R   0.641495 0.723958 0.399624 -0.112703
C16   C     C_R   0.350380 0.278366 0.600572 -0.142631
C17   C     C_R   0.891528 0.164882 0.667857 -0.105384
C18   C     C_R   0.105802 0.836096 0.331607 -0.032758
C19   C     C_R   0.608384 0.664894 0.332139 -0.105386
C20   C     C_R   0.394208 0.336095 0.668393 -0.032756
C21   C     C_R   0.950631 0.070151 0.659729 0.385860
C22   C     C_R   0.034619 0.927579 0.339799 0.376290
C23   C     C_R   0.549296 0.570161 0.340267 0.385869
C24   C     C_R   0.465392 0.427577 0.660202 0.376289
C25   C     C_R   0.974252 0.033232 0.580465 0.013018
C26   C     C_R   0.018251 0.966079 0.419290 -0.037410
C27   C     C_R   0.525725 0.533234 0.419535 0.013022
C28   C     C_R   0.481756 0.466078 0.580710 -0.037411
C29   C     C_R   0.940248 0.095032 0.511472 -0.044540
C30   C     C_R   0.059211 0.905322 0.488525 -0.046750
C31   C     C_R   0.559741 0.595032 0.488528 -0.044539
C32   C     C_R   0.440794 0.405320 0.511476 -0.046752
C33   C     C_R   0.033635 0.937852 0.568123 -0.103477
C34   C     C_R   0.963927 0.062067 0.431799 -0.105665
C35   C     C_R   0.466361 0.437852 0.431877 -0.103474
C36   C     C_R   0.536075 0.562066 0.568202 -0.105664
H5    H     H_    0.857355 0.240398 0.473410 0.082794
H6    H     H_    0.156072 0.761974 0.526800 0.081702
H7    H     H_    0.642642 0.740398 0.526591 0.082796
H8    H     H_    0.343932 0.261973 0.473200 0.081699
H9    H     H_    0.814466 0.296896 0.607828 0.091669
H10   H     H_    0.200128 0.706618 0.391955 0.098549
H11   H     H_    0.685471 0.796905 0.392170 0.091670
H12   H     H_    0.299875 0.206618 0.608045 0.098554
C37   C     C_2   0.146246 0.943610 0.927763 -0.200489
C38   C     C_2   0.853881 0.056218 0.072408 -0.159555
C39   C     C_2   0.353753 0.443603 0.072232 -0.200535
C40   C     C_2   0.646119 0.556221 0.927594 -0.159550
C41   C     C_2   0.003218 0.956816 0.973529 0.239744
C42   C     C_2   0.996577 0.043194 0.026429 0.249066
C43   C     C_2   0.496793 0.456819 0.026475 0.239778
C44   C     C_2   0.503415 0.543190 0.973566 0.249073
H13   H     H_    0.736623 0.007363 0.067576 0.122729
H14   H     H_    0.263844 0.992256 0.932851 0.127648
H15   H     H_    0.763392 0.507375 0.932435 0.122741
H16   H     H_    0.236133 0.492236 0.067130 0.127664
O21   O     O_3   0.987773 0.014373 0.728930 -0.753412
H17   H     H_    0.962043 0.050947 0.777882 0.299875
O22   O     O_3   0.975109 0.974942 0.268415 -0.738418
H18   H     H_    0.839886 0.986872 0.269289 0.280940
O23   O     O_3   0.512131 0.514385 0.271066 -0.753414
H19   H     H_    0.537581 0.551004 0.222101 0.299860
O24   O     O_3   0.524905 0.474940 0.731586 -0.738417
H20   H     H_    0.660126 0.486871 0.730710 0.280945
N1    N     N_R   0.141591 0.113722 0.026676 0.077334
O25   O     O_R   0.311727 0.093919 0.058216 -0.335967
O26   O     O_R   0.100662 0.199624 0.000517 -0.326037
N2    N     N_R   0.857614 0.886563 0.972952 0.082783
O27   O     O_R   0.687696 0.906831 0.941417 -0.342626
O28   O     O_R   0.897682 0.800532 0.999003 -0.317767
N3    N     N_R   0.358373 0.613703 0.973306 0.077340
O29   O     O_R   0.188258 0.593884 0.941752 -0.335952
O30   O     O_R   0.399253 0.699605 0.999475 -0.326042
N4    N     N_R   0.642438 0.386587 0.027073 0.082795
O31   O     O_R   0.812330 0.406881 0.058624 -0.342605
O32   O     O_R   0.602438 0.300555 0.001010 -0.317780

loop_
_geom_bond_atom_site_label_1
_geom_bond_atom_site_label_2
_geom_bond_distance
_ccdc_geom_bond_type
O22   H18   0.991398 S    
O1    C5    1.320014 A    
N1    O25   1.301192 A    
C12   C32   1.419120 A    
C27   C31   1.425625 A    
O13   V1    1.997106 S    
O3    C7    1.320016 A    
C6    C40   1.477910 S    
O15   V3    1.997100 S    
C29   C34   1.421168 A    
C41   C42   1.496611 S    
C31   C36   1.421165 A    
C22   C26   1.434267 A    
C32   C35   1.421323 A    
O20   V1    1.729285 S    
O9    C4    1.331401 A    
C10   C14   1.387476 A    
O10   C3    1.330577 A    
O16   V4    1.997101 S    
O4    C8    1.319855 A    
O11   C2    1.331402 A    
C39   H16   1.083692 S    
C42   N1    1.439411 S    
C14   H10   1.082723 S    
H4    C19   1.083093 S    
C14   C18   1.383605 A    
O16   C8    1.337501 A    
C10   C30   1.419120 A    
C25   C33   1.427283 A    
C10   H6    1.081195 S    
N2    O28   1.301260 A    
C9    H5    1.081417 S    
O2    C6    1.319853 A    
C28   C36   1.424657 A    
C43   N4    1.439376 S    
O14   V2    1.997105 S    
C12   C16   1.387474 A    
O5    C1    1.330709 A    
O4    V1    2.068970 S    
O9    V1    1.991235 S    
C30   C33   1.421325 A    
O7    C3    1.330712 A    
O11   V3    1.991230 S    
O18   V3    1.729285 S    
N1    O26   1.301266 A    
O12   V4    1.991229 S    
O19   V2    1.729285 S    
H1    C18   1.083150 S    
C4    C34   1.478165 S    
C7    C37   1.478122 S    
H3    C20   1.083151 S    
C40   H15   1.083742 S    
O5    V1    2.042022 S    
O7    V3    2.042027 S    
O8    V4    2.042026 S    
C21   O21   1.380511 S    
O24   H20   0.991399 S    
C25   C29   1.425626 A    
C19   C23   1.407208 A    
C26   C34   1.424658 A    
O21   H17   0.992309 S    
O1    V4    2.068975 S    
O13   C5    1.337402 A    
C28   C32   1.424398 A    
C27   C35   1.427278 A    
O2    V3    2.068973 S    
O3    V2    2.068968 S    
O15   C7    1.337399 A    
O6    C2    1.329452 A    
O10   V2    1.991236 S    
N3    O29   1.301172 A    
C1    C35   1.478990 S    
C17   C21   1.407209 A    
C11   C31   1.417968 A    
N2    O27   1.301180 A    
C3    C33   1.478993 S    
H2    C17   1.083098 S    
N4    O32   1.301247 A    
C22   O22   1.371423 S    
C2    C36   1.478161 S    
N3    O30   1.301242 A    
C44   N3    1.439389 S    
C38   C42   1.364002 D    
C38   H13   1.083750 S    
C37   H14   1.083697 S    
C13   H9    1.082962 S    
C26   C30   1.424400 A    
C18   C22   1.395127 A    
C15   H11   1.082963 S    
O6    V2    2.042022 S    
O14   C6    1.337503 A    
C11   H7    1.081416 S    
C40   C44   1.364000 D    
C11   C15   1.385332 A    
C5    C39   1.478122 S    
C41   N2    1.439392 S    
C23   O23   1.380511 S    
C8    C38   1.477912 S    
C39   C43   1.364054 D    
O17   V4    1.729285 S    
C21   C25   1.433857 A    
C16   H12   1.082724 S    
C23   C27   1.433851 A    
C9    C13   1.385335 A    
N4    O31   1.301167 A    
C43   C44   1.496598 S    
C16   C20   1.383606 A    
C20   C24   1.395127 A    
O12   C1    1.330578 A    
C37   C41   1.364054 D    
O8    C4    1.329455 A    
C12   H8    1.081196 S    
C13   C17   1.382659 A    
C24   O24   1.371424 S    
O23   H19   0.992242 S    
C15   C19   1.382658 A    
C9    C29   1.417966 A    
C24   C28   1.434266 A    
