data_mof_unit_4092.cif
_audit_creation_date              2012-12-10T17:31:09-0500
_audit_creation_method            fapswitch 2.2
_symmetry_space_group_name_H-M    P1
_symmetry_Int_Tables_number       1
_space_group_crystal_system       triclinic
_cell_length_a                    11.9841
_cell_length_b                    12.89221
_cell_length_c                    15.170878
_cell_angle_alpha                 87.25256
_cell_angle_beta                  114.783459
_cell_angle_gamma                 93.324883
_cell_volume                      2123.74140376

loop_
_atom_site_label
_atom_site_type_symbol
_atom_type_description
_atom_site_fract_x
_atom_site_fract_y
_atom_site_fract_z
_atom_type_partial_charge
C1    C     C_R   0.477250 0.299472 0.498284 0.890929
C2    C     C_R   0.522783 0.700513 0.501787 0.890075
C3    C     C_R   0.662455 0.628849 0.111045 0.435966
C4    C     C_R   0.370912 0.641985 0.888010 0.431359
C5    C     C_R   0.747454 0.613702 0.072653 -0.229495
C6    C     C_R   0.283518 0.636804 0.926560 -0.228335
C7    C     C_R   0.536112 0.811788 0.502361 -0.058379
C8    C     C_R   0.464065 0.188155 0.497970 -0.057770
C9    C     C_R   0.358008 0.029331 0.514053 -0.213551
C10   C     C_R   0.642304 0.970593 0.486495 -0.216008
C11   C     C_R   0.364725 0.136847 0.509606 -0.203014
C12   C     C_R   0.635445 0.863084 0.490717 -0.198381
C13   C     C_R   0.555370 0.132748 0.489017 -0.278324
C14   C     C_R   0.444975 0.867173 0.511584 -0.276151
C15   C     C_R   0.549822 0.025980 0.493892 0.184747
C16   C     C_R   0.450548 0.973941 0.506751 0.183991
C17   C     C_R   0.004388 0.599062 0.409074 -0.307538
C18   C     C_R   0.995730 0.401179 0.591053 -0.322820
C19   C     C_R   0.125081 0.589569 0.418270 0.009603
C20   C     C_R   0.874973 0.410495 0.581755 0.016336
C21   C     C_R   0.160362 0.457510 0.540065 -0.024716
C22   C     C_R   0.839675 0.542674 0.460045 -0.033519
C23   C     C_R   0.575947 0.498021 0.681265 0.867718
C24   C     C_R   0.424907 0.508131 0.318807 0.870711
C25   C     C_R   0.039514 0.464218 0.533296 0.093424
C26   C     C_R   0.960542 0.536021 0.466805 0.092935
C27   C     C_R   0.623878 0.520185 0.784853 -0.076396
C28   C     C_R   0.383569 0.535746 0.215443 -0.073393
C29   C     C_R   0.791885 0.559029 0.940088 -0.178280
C30   C     C_R   0.226819 0.589619 0.059663 -0.178737
C31   C     C_R   0.750392 0.527022 0.844453 -0.182128
C32   C     C_R   0.260161 0.554696 0.155547 -0.187051
C33   C     C_R   0.540368 0.547553 0.821095 -0.243115
C34   C     C_R   0.472876 0.554708 0.179459 -0.246415
C35   C     C_R   0.580325 0.588083 0.913532 0.080268
C36   C     C_R   0.442859 0.597237 0.086332 0.082158
C37   C     C_R   0.707345 0.587459 0.975672 0.092754
C38   C     C_R   0.317111 0.608568 0.023968 0.089634
C39   C     C_R   0.495152 0.617903 0.948949 -0.112627
C40   C     C_R   0.533937 0.616957 0.050472 -0.103140
H1    H     H_    0.844943 0.619589 0.119694 0.158470
H2    H     H_    0.188511 0.651813 0.879307 0.167706
H3    H     H_    0.841759 0.361882 0.626560 0.130680
H4    H     H_    0.158300 0.638130 0.373433 0.130854
H5    H     H_    0.946059 0.655158 0.357287 0.191680
H6    H     H_    0.054241 0.345236 0.642969 0.145613
H7    H     H_    0.566302 0.533791 0.224184 0.199636
H8    H     H_    0.443062 0.535324 0.776930 0.201378
H9    H     H_    0.189761 0.542125 0.182535 0.149585
H10   H     H_    0.816819 0.507664 0.817327 0.152644
H11   H     H_    0.889650 0.560924 0.986307 0.126733
H12   H     H_    0.130618 0.600713 0.013214 0.127933
H13   H     H_    0.368655 0.827434 0.521650 0.168115
H14   H     H_    0.631737 0.172470 0.479012 0.162779
H15   H     H_    0.706219 0.820364 0.483424 0.164012
H16   H     H_    0.293819 0.179567 0.516697 0.160128
H17   H     H_    0.281456 0.989693 0.523694 0.145019
H18   H     H_    0.718846 0.010229 0.476840 0.142102
H19   H     H_    0.777944 0.597714 0.409480 0.152043
H20   H     H_    0.222102 0.402538 0.590728 0.119598
N1    N     N_R   0.799120 0.480200 0.517090 -0.102324
N2    N     N_R   0.200880 0.519800 0.482910 -0.095070
O1    O     O_R   0.580150 0.341050 0.504560 -0.623174
O2    O     O_R   0.419850 0.658950 0.495440 -0.621279
O3    O     O_R   0.388090 0.353760 0.493600 -0.622793
O4    O     O_R   0.611910 0.646240 0.506400 -0.622959
O5    O     O_R   0.650890 0.490020 0.640860 -0.614635
O6    O     O_R   0.349110 0.509980 0.359140 -0.615479
O7    O     O_R   0.458830 0.502730 0.629890 -0.612359
O8    O     O_R   0.541170 0.497270 0.370110 -0.615150
Zn1   Zn    Zn3+2 0.628240 0.491510 0.507320 0.942896
Zn2   Zn    Zn3+2 0.371760 0.508490 0.492680 0.947021
O9    O     O_3   0.708374 0.661847 0.205358 -0.816001
H21   H     H_    0.644649 0.701905 0.212538 0.332088
O10   O     O_3   0.333038 0.677265 0.793001 -0.776559
H22   H     H_    0.405353 0.710084 0.785197 0.335744

loop_
_geom_bond_atom_site_label_1
_geom_bond_atom_site_label_2
_ccdc_geom_bond_type
C8    C13   A    
C5    C37   A    
C1    C8    S    
O9    H21   S    
C23   O7    A    
C2    C7    S    
C24   O8    A    
C27   C33   A    
C17   C26   A    
C35   C37   A    
C9    C16   A    
C17   H5    S    
C10   C15   A    
O5    Zn1   S    
C19   N2    A    
C15   C16   A    
C18   H6    S    
C30   C38   A    
C23   O5    A    
C20   N1    A    
C4    O10   S    
C21   C25   A    
C17   C19   A    
C7    C14   A    
C1    O3    A    
C6    C38   A    
O8    Zn1   S    
C23   C27   S    
C34   C36   A    
N1    Zn1   S    
C28   C34   A    
C18   C25   A    
C1    O1    A    
C2    O2    A    
C7    C12   A    
C27   C31   A    
C28   C32   A    
C9    H17   S    
C4    C6    A    
C22   H19   S    
C3    C5    A    
C25   C26   A    
O7    Zn2   S    
C35   C39   A    
O10   H22   S    
O4    Zn1   S    
C4    C39   A    
C36   C40   A    
O6    Zn2   S    
N2    Zn2   S    
C9    C11   A    
C21   N2    A    
C10   C12   A    
C21   H20   S    
O1    Zn1   S    
C3    C40   A    
C13   C15   A    
C6    H2    S    
C14   C16   A    
C31   H10   S    
C39   C40   A    
C20   H3    S    
C19   H4    S    
C13   H14   S    
C29   H11   S    
C5    H1    S    
C10   H18   S    
C24   C28   S    
C2    O4    A    
O3    Zn2   S    
C36   C38   A    
C29   C31   A    
C22   N1    A    
C30   C32   A    
C30   H12   S    
C8    C11   A    
C33   C35   A    
C18   C20   A    
O2    Zn2   S    
C3    O9    S    
C32   H9    S    
C12   H15   S    
C24   O6    A    
C14   H13   S    
C22   C26   A    
C29   C37   A    
C33   H8    S    
C34   H7    S    
C11   H16   S    
