data_mof_unit_67.cif
_audit_creation_date              2012-10-26T17:12:27-0400
_audit_creation_method            fapswitch 2.2
_symmetry_space_group_name_H-M    P1
_symmetry_Int_Tables_number       1
_space_group_crystal_system       triclinic
_cell_length_a                    16.710901
_cell_length_b                    16.79107
_cell_length_c                    16.816195
_cell_angle_alpha                 68.151922
_cell_angle_beta                  68.129503
_cell_angle_gamma                 67.701435
_cell_volume                      3902.34612466

loop_
_atom_site_label
_atom_site_type_symbol
_atom_type_description
_atom_site_fract_x
_atom_site_fract_y
_atom_site_fract_z
_atom_type_partial_charge
C1    C     C_R   0.024399 0.828652 0.565793 0.557260
C2    C     C_R   0.023542 0.566088 0.829041 0.561836
C3    C     C_R   0.171387 0.975463 0.434168 0.558152
C4    C     C_R   0.827890 0.027806 0.564485 0.571840
C5    C     C_R   0.503115 0.938775 0.740414 -0.112655
C6    C     C_R   0.551193 0.923222 0.291805 -0.106405
C7    C     C_R   0.085401 0.701085 0.450884 -0.113651
C8    C     C_R   0.964809 0.290312 0.539146 -0.099475
C9    C     C_R   0.699972 0.453066 0.079417 -0.100633
C10   C     C_R   0.299965 0.544203 0.925681 -0.112180
C11   C     C_R   0.299699 0.911665 0.548092 -0.114538
C12   C     C_R   0.972737 0.171966 0.435247 0.573103
C13   C     C_R   0.709646 0.036653 0.459813 -0.099793
C14   C     C_R   0.488894 0.264890 0.059698 -0.105216
C15   C     C_R   0.508446 0.730819 0.948158 -0.110500
C16   C     C_R   0.069159 0.491175 0.256883 -0.106955
C17   C     C_R   0.076346 0.450243 0.707119 -0.102741
C18   C     C_R   0.563642 0.965888 0.557030 0.042980
C19   C     C_R   0.470587 0.936727 0.465174 0.043408
C20   C     C_R   0.062397 0.530259 0.533726 0.043991
C21   C     C_R   0.035738 0.435811 0.441506 0.042993
C22   C     C_R   0.549462 0.544825 0.011712 0.040420
C23   C     C_R   0.828102 0.563066 0.032393 0.576032
C24   C     C_R   0.448797 0.451377 0.996145 0.040821
C25   C     C_R   0.599223 0.972360 0.465102 0.012168
C26   C     C_R   0.435546 0.926679 0.557609 0.015853
C27   C     C_R   0.051700 0.443731 0.576827 0.012039
C28   C     C_R   0.065780 0.513439 0.393541 0.014948
C29   C     C_R   0.477685 0.592433 0.971321 0.015928
C30   C     C_R   0.520515 0.403482 0.036691 0.014745
C31   C     C_R   0.557285 0.948093 0.422037 0.011131
C32   C     C_R   0.485592 0.935986 0.604701 0.017887
C33   C     C_R   0.425670 0.545860 0.965471 0.014065
C34   C     C_R   0.171908 0.436452 0.968602 0.549456
C35   C     C_R   0.572779 0.450288 0.042352 0.012201
C36   C     C_R   0.028235 0.401274 0.533675 0.012373
C37   C     C_R   0.072879 0.564614 0.441052 0.014940
C38   C     C_R   0.459797 0.918419 0.697446 -0.132246
C39   C     C_R   0.599512 0.932876 0.337663 -0.136068
C40   C     C_R   0.089385 0.649021 0.400278 -0.130719
C41   C     C_R   0.990466 0.329670 0.581652 -0.131670
C42   C     C_R   0.649006 0.405931 0.075984 -0.126179
C43   C     C_R   0.350094 0.590713 0.930918 -0.134460
C44   C     C_R   0.351456 0.908449 0.598595 -0.131384
C45   C     C_R   0.568261 0.018208 0.829922 0.570305
C46   C     C_R   0.670928 0.010294 0.417220 -0.133866
C47   C     C_R   0.535153 0.310291 0.072959 -0.127548
C48   C     C_R   0.462754 0.685379 0.934901 -0.131393
C49   C     C_R   0.086973 0.536567 0.300200 -0.130210
C50   C     C_R   0.066986 0.401978 0.661204 -0.130876
C51   C     C_R   0.572359 0.981213 0.693671 -0.010246
C52   C     C_R   0.456700 0.940858 0.323429 -0.015516
C53   C     C_R   0.061523 0.672804 0.544954 -0.014021
C54   C     C_R   0.981412 0.316203 0.445867 -0.009331
C55   C     C_R   0.676891 0.546659 0.050445 -0.011717
C56   C     C_R   0.433990 0.976244 0.170881 0.560933
C57   C     C_R   0.322448 0.450821 0.954835 -0.011387
C58   C     C_R   0.327925 0.936693 0.454233 -0.014544
C59   C     C_R   0.683115 0.020511 0.553097 -0.009023
C60   C     C_R   0.426505 0.310140 0.008819 -0.014666
C61   C     C_R   0.571564 0.686691 0.997738 -0.013539
C62   C     C_R   0.023100 0.424902 0.304655 -0.012570
C63   C     C_R   0.058262 0.544273 0.675735 -0.014717
C64   C     C_R   0.608032 0.016525 0.734986 -0.006857
C65   C     C_R   0.399183 0.964684 0.268196 -0.016988
C66   C     C_R   0.035744 0.730408 0.601049 -0.019915
C67   C     C_R   0.431387 0.170036 0.980920 0.579499
C68   C     C_R   0.964720 0.270061 0.400060 -0.009371
C69   C     C_R   0.728580 0.596490 0.051383 -0.012778
C70   C     C_R   0.271166 0.402037 0.951793 -0.017827
C71   C     C_R   0.269827 0.963585 0.398489 -0.018124
C72   C     C_R   0.729303 0.036925 0.599158 -0.012659
C73   C     C_R   0.390340 0.265486 0.978712 -0.005883
C74   C     C_R   0.608695 0.732855 0.025020 -0.010816
C75   C     C_R   0.985983 0.390548 0.263995 -0.004113
C76   C     C_R   0.034820 0.601155 0.731350 -0.017884
C77   C     C_R   0.683606 0.049327 0.684391 0.060737
C78   C     C_R   0.568312 0.829428 0.020315 0.555829
C79   C     C_R   0.305582 0.989330 0.305453 0.043829
C80   C     C_R   0.010471 0.694433 0.694180 0.044679
C81   C     C_R   0.952258 0.315704 0.314833 0.063263
C82   C     C_R   0.685428 0.684557 0.057250 0.063697
C83   C     C_R   0.314333 0.314341 0.945367 0.064874
C84   C     C_R   0.606256 0.989492 0.601324 0.032028
C85   C     C_R   0.418246 0.938048 0.414318 0.032657
C86   C     C_R   0.060577 0.582708 0.584789 0.033380
C87   C     C_R   0.013061 0.392494 0.397309 0.031358
C88   C     C_R   0.598750 0.592549 0.020930 0.031158
C89   C     C_R   0.982677 0.431429 0.169676 0.568113
C90   C     C_R   0.399675 0.404222 0.986023 0.031079
Cu1   Cu    Cu3+1 0.995180 0.995180 0.424630 0.994768
Cu2   Cu    Cu3+1 0.004820 0.004820 0.575370 0.992445
Cu3   Cu    Cu3+1 0.995180 0.424630 0.995180 1.007860
Cu4   Cu    Cu3+1 0.004820 0.575370 0.004820 0.993228
Cu5   Cu    Cu3+1 0.424630 0.995180 0.995180 0.999491
Cu6   Cu    Cu3+1 0.575370 0.004820 0.004820 1.007788
H1    H     H_    0.479774 0.919490 0.811013 0.140015
H2    H     H_    0.495068 0.800715 0.916235 0.132354
H3    H     H_    0.093807 0.508757 0.185410 0.156580
H4    H     H_    0.096661 0.411649 0.767176 0.174284
H5    H     H_    0.406503 0.887832 0.739208 0.097095
H6    H     H_    0.670562 0.925822 0.307429 0.119960
H7    H     H_    0.102332 0.678172 0.329328 0.109735
H8    H     H_    0.974879 0.306808 0.653456 0.117337
H9    H     H_    0.672544 0.334260 0.098742 0.115364
H10   H     H_    0.326431 0.662343 0.908308 0.103189
H11   H     H_    0.322046 0.894634 0.669509 0.104896
H12   H     H_    0.590021 0.903333 0.231558 0.178584
H13   H     H_    0.694380 0.025339 0.345454 0.111938
H14   H     H_    0.581500 0.270183 0.112927 0.107979
H15   H     H_    0.416689 0.725602 0.894690 0.098007
H16   H     H_    0.119416 0.588469 0.258765 0.108242
H17   H     H_    0.074590 0.331192 0.691330 0.119999
H18   H     H_    0.101900 0.763182 0.413813 0.154297
H19   H     H_    0.927182 0.242815 0.581741 0.166034
H20   H     H_    0.755266 0.415173 0.109120 0.167555
H21   H     H_    0.245964 0.582507 0.894238 0.145644
H22   H     H_    0.237755 0.894119 0.584843 0.151528
H23   H     H_    0.757304 0.074234 0.417318 0.164851
H24   H     H_    0.501334 0.194209 0.092300 0.150290
I1    I     I_    0.718556 0.137237 0.724058 -0.299592
I2    I     I_    0.221347 0.092870 0.223800 -0.278896
I3    I     I_    0.907460 0.778348 0.776357 -0.270542
I4    I     I_    0.862728 0.281851 0.275878 -0.348934
I5    I     I_    0.726747 0.731621 0.134556 -0.321927
I6    I     I_    0.274648 0.269294 0.865068 -0.318044
O1    O     O_R   0.124540 0.978640 0.385460 -0.477224
O2    O     O_R   0.124540 0.385460 0.978640 -0.469419
O3    O     O_R   0.021360 0.875460 0.614540 -0.478895
O4    O     O_R   0.978640 0.124540 0.385460 -0.456511
O5    O     O_R   0.013780 0.867370 0.487190 -0.527235
O6    O     O_R   0.986220 0.132630 0.512810 -0.524930
O7    O     O_R   0.867370 0.487190 0.013780 -0.518145
O8    O     O_R   0.132630 0.512810 0.986220 -0.540570
O9    O     O_R   0.487190 0.013780 0.867370 -0.526248
O10   O     O_R   0.512810 0.986220 0.132630 -0.539674
O11   O     O_R   0.512810 0.132630 0.986220 -0.516088
O12   O     O_R   0.875460 0.021360 0.614540 -0.458801
O13   O     O_R   0.487190 0.867370 0.013780 -0.536567
O14   O     O_R   0.986220 0.512810 0.132630 -0.520939
O15   O     O_R   0.013780 0.487190 0.867370 -0.525579
O16   O     O_R   0.132630 0.986220 0.512810 -0.527095
O17   O     O_R   0.867370 0.013780 0.487190 -0.523705
O18   O     O_R   0.978640 0.385460 0.124540 -0.467535
O19   O     O_R   0.021360 0.614540 0.875460 -0.479032
O20   O     O_R   0.385460 0.124540 0.978640 -0.455720
O21   O     O_R   0.614540 0.875460 0.021360 -0.470513
O22   O     O_R   0.614540 0.021360 0.875460 -0.460566
O23   O     O_R   0.385460 0.978640 0.124540 -0.471849
O24   O     O_R   0.875460 0.614540 0.021360 -0.452694

loop_
_geom_bond_atom_site_label_1
_geom_bond_atom_site_label_2
_ccdc_geom_bond_type
C25   C31   A    
C21   C87   A    
C26   C32   A    
Cu3   Cu4   S    
C65   C79   A    
C22   C29   A    
C45   O22   A    
Cu4   O14   S    
C64   C77   A    
C23   C69   S    
Cu5   Cu6   S    
Cu3   O15   S    
Cu2   O12   S    
C78   O13   A    
C4    O17   A    
C71   C79   A    
C26   C44   A    
C66   C80   A    
Cu6   O10   S    
Cu1   O4    S    
C2    O19   A    
C22   C35   A    
C12   C68   S    
C9    C42   A    
Cu1   O1    S    
C30   C35   A    
C68   C81   A    
C7    H18   S    
C52   C85   A    
Cu2   O6    S    
C38   H5    S    
C1    O3    A    
C54   C87   A    
C3    O1    A    
C58   C71   A    
Cu1   O5    S    
C63   C76   A    
C34   O8    A    
C56   C65   S    
C29   C33   A    
C60   C73   A    
Cu5   O20   S    
C55   C88   A    
C35   C42   A    
C19   C26   A    
C69   C82   A    
C8    H19   S    
C56   O10   A    
C14   C47   A    
C20   C86   A    
C18   C84   A    
C7    C40   A    
C53   C86   A    
C9    C55   A    
C32   C38   A    
C57   C70   A    
C11   C58   A    
Cu2   O16   S    
C34   C70   S    
C27   C50   A    
C59   C72   A    
Cu4   O19   S    
C17   H4    S    
C19   C31   A    
C5    C38   A    
C36   C41   A    
C3    O16   A    
C16   C62   A    
C15   C48   A    
C74   C82   A    
C13   H23   S    
Cu1   O17   S    
Cu6   O22   S    
C79   I2    S    
C45   O9    A    
C57   C90   A    
C23   O7    A    
C81   I4    S    
C33   C43   A    
C30   C47   A    
C10   C57   A    
C16   C49   A    
C8    C54   A    
Cu1   Cu2   S    
C21   C36   A    
C75   C81   A    
C29   C48   A    
C1    O5    A    
C22   C88   A    
C43   H10   S    
C3    C71   S    
C82   I5    S    
C72   C77   A    
C70   C83   A    
C61   C88   A    
C28   C49   A    
C89   O14   A    
C67   O20   A    
Cu5   O9    S    
C1    C66   S    
C15   C61   A    
C11   C44   A    
C8    C41   A    
C53   C66   A    
C55   C69   A    
Cu3   O18   S    
C12   O4    A    
C78   O21   A    
C49   H16   S    
C67   C73   S    
Cu5   O13   S    
C21   C28   A    
C5    H1    S    
C14   H24   S    
C63   C86   A    
C61   C74   A    
C62   C75   A    
C18   C32   A    
C7    C53   A    
C83   I6    S    
C47   H14   S    
C58   C85   A    
C4    C72   S    
C2    C76   S    
C39   H6    S    
C44   H11   S    
C59   C84   A    
Cu6   O21   S    
C12   O6    A    
C10   C43   A    
C9    H20   S    
C23   O24   A    
Cu6   O11   S    
C51   C64   A    
C76   C80   A    
C19   C85   A    
C24   C90   A    
C17   C50   A    
C16   H3    S    
Cu5   O23   S    
C13   C59   A    
C20   C27   A    
C60   C90   A    
C27   C36   A    
C37   C40   A    
C89   O18   A    
C14   C60   A    
C62   C87   A    
C45   C64   S    
Cu3   O7    S    
C24   C33   A    
C41   H8    S    
C50   H17   S    
Cu2   O3    S    
Cu3   O2    S    
C10   H21   S    
C18   C25   A    
C17   C63   A    
C40   H7    S    
C20   C37   A    
C13   C46   A    
C28   C37   A    
C51   C84   A    
Cu4   O8    S    
C31   C39   A    
C67   O11   A    
C42   H9    S    
C24   C30   A    
C77   I1    S    
C75   C89   S    
C4    O12   A    
Cu4   O24   S    
C48   H15   S    
C54   C68   A    
C34   O2    A    
C74   C78   S    
C46   H13   S    
C2    O15   A    
C6    H12   S    
C6    C39   A    
C5    C51   A    
C15   H2    S    
C6    C52   A    
C56   O23   A    
C11   H22   S    
C25   C46   A    
C73   C83   A    
C52   C65   A    
C80   I3    S    
