data_mof_unit_4704.cif
_audit_creation_date              2013-03-05T16:25:44-0500
_audit_creation_method            fapswitch 2.2
_symmetry_space_group_name_H-M    P1
_symmetry_Int_Tables_number       1
_space_group_crystal_system       triclinic
_cell_length_a                    10.826373
_cell_length_b                    15.157176
_cell_length_c                    13.847271
_cell_angle_alpha                 90.598766
_cell_angle_beta                  90.301775
_cell_angle_gamma                 90.277523
_cell_volume                      2272.11610417

loop_
_atom_site_label
_atom_site_type_symbol
_atom_site_description
_atom_site_fract_x
_atom_site_fract_y
_atom_site_fract_z
_atom_type_partial_charge
O1    O     O_R   0.500010 0.371450 0.581430 -0.598023
O2    O     O_R   0.499990 0.628550 0.418570 -0.615191
O3    O     O_R   0.500010 0.371460 0.418560 -0.571247
O4    O     O_R   0.499990 0.628540 0.581440 -0.543509
C1    C     C_R   0.501480 0.329838 0.499355 0.807008
C2    C     C_R   0.501485 0.670227 0.500642 0.834511
O5    O     O_R   0.319640 0.500000 0.581430 -0.589576
O6    O     O_R   0.680360 0.500000 0.418570 -0.581644
O7    O     O_R   0.319640 0.500010 0.418560 -0.584188
O8    O     O_R   0.680360 0.499990 0.581440 -0.591759
C3    C     C_R   0.262183 0.501277 0.499544 0.823567
C4    C     C_R   0.737786 0.498169 0.500359 0.806683
Cu1   Cu    Cu3+1 0.500000 0.499990 0.596430 0.971177
Cu2   Cu    Cu3+1 0.500000 0.500010 0.403570 0.962477
H1    H     H_    0.272498 0.687254 0.112765 0.147854
H2    H     H_    0.709777 0.290243 0.865308 0.144858
C5    C     C_R   0.212326 0.710655 0.258622 -0.212404
C6    C     C_R   0.764745 0.280188 0.716532 -0.180112
H3    H     H_    0.241791 0.778965 0.257456 0.164291
H4    H     H_    0.722347 0.215748 0.707916 0.172425
C7    C     C_R   0.158441 0.674925 0.342093 0.355719
C8    C     C_R   0.827213 0.320022 0.639087 0.359406
C9    C     C_R   0.120781 0.584865 0.339953 0.003590
C10   C     C_R   0.878952 0.405775 0.653775 0.007821
C11   C     C_R   0.137603 0.534192 0.255482 -0.167546
C12   C     C_R   0.872544 0.446098 0.745421 -0.198374
H5    H     H_    0.108858 0.465628 0.252931 0.147832
H6    H     H_    0.912613 0.510923 0.757683 0.145750
C13   C     C_R   0.192370 0.570920 0.174254 -0.117702
C14   C     C_R   0.812931 0.404173 0.821358 -0.127530
H7    H     H_    0.205733 0.531052 0.109879 0.140072
H8    H     H_    0.808288 0.436001 0.891563 0.142166
C15   C     C_R   0.229891 0.658913 0.175897 -0.171395
C16   C     C_R   0.757541 0.322037 0.806558 -0.166464
C17   C     C_R   0.933005 0.538721 0.425299 -0.195373
C18   C     C_R   0.066938 0.460283 0.574332 -0.191751
H9    H     H_    0.881124 0.570147 0.368019 0.148217
H10   H     H_    0.118876 0.428445 0.631304 0.140086
C19   C     C_R   0.871595 0.497166 0.501027 -0.044742
C20   C     C_R   0.128352 0.501625 0.498465 -0.035263
C21   C     C_R   0.938913 0.456106 0.575581 0.073884
C22   C     C_R   0.060994 0.541296 0.422945 0.069572
C23   C     C_R   0.456110 0.096539 0.579222 -0.146599
C24   C     C_R   0.462176 0.903354 0.418249 -0.127760
H11   H     H_    0.420061 0.063245 0.641981 0.138658
H12   H     H_    0.430720 0.936308 0.353664 0.133932
C25   C     C_R   0.458616 0.188064 0.578670 -0.228826
C26   C     C_R   0.465196 0.811831 0.418866 -0.190384
H13   H     H_    0.424689 0.223618 0.641339 0.152600
H14   H     H_    0.437073 0.776079 0.354306 0.149831
C27   C     C_R   0.502350 0.233207 0.497734 -0.014955
C28   C     C_R   0.502450 0.766955 0.502074 -0.015632
C29   C     C_R   0.545677 0.185234 0.416571 0.207576
C30   C     C_R   0.539571 0.815469 0.585072 0.164372
C31   C     C_R   0.542952 0.093021 0.418272 -0.151299
C32   C     C_R   0.537200 0.907503 0.583423 -0.192840
H15   H     H_    0.578608 0.055866 0.357337 0.120355
H16   H     H_    0.568113 0.944336 0.646623 0.132619
C33   C     C_R   0.498258 0.048508 0.499121 0.091821
C34   C     C_R   0.498280 0.951746 0.500457 0.089947
C35   C     C_R   0.544911 0.572787 0.108821 -0.287228
C36   C     C_R   0.412503 0.450517 0.890970 -0.288064
H17   H     H_    0.578775 0.631467 0.073759 0.128213
H18   H     H_    0.341596 0.412204 0.926129 0.125994
C37   C     C_R   0.545654 0.570890 0.210268 0.091968
C38   C     C_R   0.415119 0.450720 0.789488 0.092870
H19   H     H_    0.582665 0.626869 0.249980 0.120396
H20   H     H_    0.348313 0.411648 0.749175 0.112843
N1    N     N_R   0.500000 0.500020 0.258690 -0.169446
N2    N     N_R   0.500000 0.499980 0.741310 -0.170425
C39   C     C_R   0.453809 0.429348 0.208282 0.103436
C40   C     C_R   0.583955 0.549921 0.791391 0.115933
H21   H     H_    0.416841 0.373416 0.246544 0.139681
H22   H     H_    0.651057 0.588777 0.752583 0.133796
C41   C     C_R   0.453697 0.427797 0.106737 -0.298290
C42   C     C_R   0.585700 0.550669 0.892913 -0.299234
H23   H     H_    0.419248 0.369336 0.069965 0.131215
H24   H     H_    0.656423 0.589114 0.929573 0.127230
C43   C     C_R   0.499168 0.500379 0.054542 0.125654
C44   C     C_R   0.499092 0.500541 0.945172 0.129749
N3    N     N_R   0.141859 0.731110 0.425920 0.104212
O9    O     O_R   0.125794 0.698450 0.511435 -0.377353
O10   O     O_R   0.149488 0.816452 0.417911 -0.360809
N4    N     N_R   0.839091 0.271587 0.549008 0.089688
O11   O     O_R   0.907431 0.300490 0.479040 -0.386419
O12   O     O_R   0.790573 0.193203 0.539803 -0.384220
N5    N     N_3   0.595844 0.229858 0.334320 -0.579686
H25   H     H_    0.680117 0.258054 0.355668 0.269798
H26   H     H_    0.615495 0.184967 0.278712 0.206808
N6    N     N_3   0.582748 0.772056 0.670186 -0.584802
H27   H     H_    0.526820 0.791377 0.727918 0.221146
H28   H     H_    0.672679 0.793992 0.684877 0.216756

loop_
_geom_bond_atom_site_label_1
_geom_bond_atom_site_label_2
_geom_bond_distance
_ccdc_geom_bond_type
C38   H20   1.081731 S    
N5    H25   1.045559 S    
C31   C33   1.400368 A    
C29   C31   1.398307 A    
C40   C42   1.405751 A    
N3    O9    1.300422 A    
C25   H13   1.083466 S    
O5    C3    1.290804 A    
C9    C22   1.481667 S    
O1    C1    1.294230 A    
C42   H24   1.081159 S    
C36   C44   1.410979 A    
C17   H9    1.085035 S    
C24   C34   1.400617 A    
C30   N6    1.433179 S    
Cu1   N2    2.006194 S    
C13   C15   1.392252 A    
N1    C39   1.363915 A    
O4    Cu1   1.961636 S    
C35   H17   1.081178 S    
C17   C22   1.386577 A    
C36   H18   1.081250 S    
H2    C16   1.082438 S    
C24   H12   1.083083 S    
C37   H19   1.080513 S    
C23   C33   1.400057 A    
C26   H14   1.082120 S    
C33   C34   1.466957 S    
Cu1   Cu2   2.670589 S    
C10   C21   1.481779 S    
C18   C21   1.387390 A    
O2    C2    1.294445 A    
C5    C15   1.395844 A    
N3    O10   1.301700 A    
C28   C30   1.413404 A    
C6    C16   1.395517 A    
C11   C13   1.394113 A    
C30   C32   1.395764 A    
C39   C41   1.406073 A    
C36   C38   1.405721 A    
C18   C20   1.398395 A    
N4    O11   1.300511 A    
C40   H22   1.081658 S    
C39   H21   1.080718 S    
C14   C16   1.392001 A    
C25   C27   1.402464 A    
C5    C7    1.409520 A    
C32   C34   1.400292 A    
C27   C29   1.415498 A    
C8    N4    1.447346 S    
C17   C19   1.398367 A    
O7    Cu2   1.964734 S    
O7    C3    1.285258 A    
N6    H28   1.045577 S    
O5    Cu1   1.962574 S    
O6    C4    1.289730 A    
C29   N5    1.438311 S    
C23   H11   1.083072 S    
O3    Cu2   1.961637 S    
O8    C4    1.286361 A    
O4    C2    1.290796 A    
C7    N3    1.444946 S    
C12   C14   1.393978 A    
C31   H15   1.083389 S    
Cu2   N1    2.006193 S    
C8    C10   1.425050 A    
O1    Cu1   1.957187 S    
O6    Cu2   1.962574 S    
C6    C8    1.410388 A    
C1    C27   1.464664 S    
C42   C44   1.411345 A    
C10   C12   1.404973 A    
C20   C22   1.412904 A    
O3    C1    1.290198 A    
O8    Cu1   1.964732 S    
C11   H5    1.083546 S    
C12   H6    1.083534 S    
C4    C19   1.448804 S    
C7    C9    1.422716 A    
C13   H7    1.082430 S    
C14   H8    1.082257 S    
N6    H27   1.045654 S    
C38   N2    1.362800 A    
C23   C25   1.387505 A    
C35   C43   1.410059 A    
C37   N1    1.364255 A    
C18   H10   1.085056 S    
C5    H3    1.082230 S    
C32   H16   1.083723 S    
C6    H4    1.082387 S    
C9    C11   1.405733 A    
C3    C20   1.448940 S    
O2    Cu2   1.957187 S    
C43   C44   1.514498 S    
C35   C37   1.405336 A    
C26   C28   1.402517 A    
C19   C21   1.412152 A    
C41   H23   1.081161 S    
N5    H26   1.045634 S    
N4    O12   1.301446 A    
N2    C40   1.362278 A    
C2    C28   1.466042 S    
C41   C43   1.410722 A    
H1    C15   1.082465 S    
C24   C26   1.387876 A    
