data_mof_unit_3646.cif
_audit_creation_date              2012-12-10T18:33:46-0500
_audit_creation_method            fapswitch 2.2
_symmetry_space_group_name_H-M    P1
_symmetry_Int_Tables_number       1
_space_group_crystal_system       triclinic
_cell_length_a                    10.504503
_cell_length_b                    14.931747
_cell_length_c                    15.459701
_cell_angle_alpha                 82.31771
_cell_angle_beta                  89.517085
_cell_angle_gamma                 103.692244
_cell_volume                      2332.78285788

loop_
_atom_site_label
_atom_site_type_symbol
_atom_type_description
_atom_site_fract_x
_atom_site_fract_y
_atom_site_fract_z
_atom_type_partial_charge
C1    C     C_R   0.479327 0.441844 0.662254 0.858038
C2    C     C_R   0.401358 0.494249 0.042271 0.017066
C3    C     C_R   0.329919 0.402129 0.072053 -0.254995
C4    C     C_R   0.467639 0.617777 0.920050 -0.261672
C5    C     C_R   0.299079 0.334751 0.015219 0.198318
C6    C     C_R   0.499067 0.685480 0.976286 0.191729
C7    C     C_R   0.723465 0.845984 0.618835 -0.316896
C8    C     C_R   0.315596 0.159664 0.357987 -0.315750
C9    C     C_R   0.675185 0.754107 0.606076 0.016800
C10   C     C_R   0.338353 0.246666 0.384996 0.018429
C11   C     C_R   0.515853 0.796124 0.511668 -0.073702
C12   C     C_R   0.515721 0.558211 0.337759 0.856551
C13   C     C_R   0.491216 0.207065 0.486210 -0.039440
C14   C     C_R   0.567979 0.891533 0.515592 -0.001839
C15   C     C_R   0.481129 0.120260 0.456687 0.005554
C16   C     C_R   0.742514 0.500419 0.499462 0.860653
C17   C     C_R   0.257634 0.499887 0.499877 0.858108
C18   C     C_R   0.670159 0.915121 0.573439 0.142632
C19   C     C_R   0.388405 0.096896 0.392264 0.121579
C20   C     C_R   0.519439 0.963143 0.466554 -0.053698
C21   C     C_R   0.554854 0.055075 0.490389 -0.017373
C22   C     C_R   0.664944 0.077778 0.544149 0.198905
C23   C     C_R   0.469515 0.472882 0.812595 -0.238595
C24   C     C_R   0.439724 0.947075 0.393261 0.206302
C25   C     C_R   0.720948 0.007469 0.583802 -0.255574
C26   C     C_R   0.372431 0.012937 0.359520 -0.229269
C27   C     C_3   0.932506 0.420317 0.474816 -0.136072
C28   C     C_3   0.068050 0.580748 0.523453 -0.133033
C29   C     C_3   0.016704 0.428036 0.556016 -0.180531
C30   C     C_3   0.983729 0.572944 0.442301 -0.174374
C31   C     C_3   0.122549 0.500375 0.499529 0.032608
C32   C     C_3   0.877908 0.500551 0.498872 0.029323
C33   C     C_3   0.041058 0.492810 0.418392 -0.188615
C34   C     C_R   0.459410 0.530441 0.188417 -0.250352
C35   C     C_3   0.959541 0.508216 0.579945 -0.188509
C36   C     C_R   0.445824 0.407842 0.754553 -0.058791
C37   C     C_R   0.509575 0.593651 0.245391 -0.061744
C38   C     C_R   0.328213 0.291756 0.869915 -0.198668
C39   C     C_R   0.540258 0.719788 0.125783 -0.199264
C40   C     C_R   0.375847 0.316565 0.783424 -0.206292
C41   C     C_R   0.547343 0.688784 0.214238 -0.197621
C42   C     C_3   0.750681 0.199602 0.633219 -0.840127
C43   C     C_3   0.326878 0.815185 0.318014 -0.817126
C44   C     C_3   0.219032 0.204881 0.135921 -0.822762
C45   C     C_R   0.412806 0.452204 0.896960 0.075693
C46   C     C_3   0.507538 0.816889 0.856920 -0.788344
C47   C     C_R   0.448321 0.559810 0.099691 0.077783
C48   C     C_R   0.345512 0.359015 0.927630 0.092259
C49   C     C_R   0.495712 0.655809 0.066881 0.095529
C50   C     C_R   0.427709 0.521747 0.952279 0.015340
H1    H     H_    0.034831 0.369086 0.602117 0.139064
H2    H     H_    0.127174 0.646310 0.543247 0.144034
H3    H     H_    0.079087 0.486442 0.352828 0.131967
H4    H     H_    0.921641 0.514540 0.645553 0.130631
H5    H     H_    0.434924 0.457287 0.213660 0.158581
H6    H     H_    0.533851 0.540175 0.790698 0.151359
H7    H     H_    0.584739 0.739000 0.257806 0.158330
H8    H     H_    0.356144 0.265014 0.739094 0.156605
H9    H     H_    0.276905 0.220089 0.890773 0.150624
H10   H     H_    0.572452 0.793790 0.103988 0.149794
H11   H     H_    0.291813 0.383369 0.138632 0.155357
H12   H     H_    0.965715 0.631884 0.396144 0.135885
H13   H     H_    0.472401 0.640936 0.850833 0.164390
H14   H     H_    0.805910 0.025299 0.623009 0.152915
H15   H     H_    0.311272 0.000168 0.304148 0.161441
H16   H     H_    0.820074 0.190413 0.509314 0.225423
H17   H     H_    0.779927 0.276708 0.626881 0.249609
H18   H     H_    0.828557 0.171473 0.667220 0.236353
H19   H     H_    0.657196 0.175317 0.673012 0.250700
H20   H     H_    0.531410 0.851751 0.341625 0.222200
H21   H     H_    0.321182 0.824573 0.245849 0.255527
H22   H     H_    0.326764 0.741377 0.340728 0.242889
H23   H     H_    0.547452 0.227999 0.540597 0.180195
H24   H     H_    0.238662 0.830120 0.347602 0.239425
H25   H     H_    0.135939 0.223751 0.013561 0.219865
H26   H     H_    0.178300 0.128414 0.143593 0.240395
H27   H     H_    0.154931 0.235708 0.174463 0.229532
H28   H     H_    0.319724 0.218281 0.160865 0.256978
H29   H     H_    0.638831 0.812024 0.957683 0.217463
H30   H     H_    0.528465 0.894034 0.849243 0.242619
H31   H     H_    0.400977 0.789701 0.848755 0.251026
H32   H     H_    0.565823 0.797010 0.805560 0.235811
H33   H     H_    0.429892 0.771349 0.476295 0.162007
H34   H     H_    0.287012 0.297419 0.356192 0.126319
H35   H     H_    0.719669 0.700492 0.637333 0.132056
H36   H     H_    0.803515 0.863068 0.662173 0.142574
H37   H     H_    0.243190 0.141883 0.309868 0.148704
H38   H     H_    0.873283 0.355434 0.454052 0.151778
N1    N     N_R   0.574200 0.731700 0.552740 -0.102274
N2    N     N_R   0.425800 0.268300 0.447260 -0.108773
N3    N     N_2   0.733981 0.171567 0.546977 -0.324494
N4    N     N_2   0.447065 0.875625 0.341931 -0.314211
N5    N     N_2   0.222791 0.242620 0.044585 -0.304652
N6    N     N_2   0.543994 0.782303 0.942871 -0.310645
O1    O     O_R   0.462600 0.383110 0.605620 -0.619917
O2    O     O_R   0.537400 0.616890 0.394380 -0.618232
O3    O     O_R   0.510210 0.531900 0.639510 -0.620621
O4    O     O_R   0.489790 0.468100 0.360490 -0.618533
O5    O     O_R   0.662240 0.425610 0.483080 -0.616680
O6    O     O_R   0.337760 0.574390 0.516920 -0.627260
O7    O     O_R   0.709860 0.574400 0.516970 -0.623332
O8    O     O_R   0.290140 0.425600 0.483030 -0.623503
Zn1   Zn    Zn3+2 0.468210 0.400660 0.477370 0.935377
Zn2   Zn    Zn3+2 0.531790 0.599340 0.522630 0.929159

loop_
_geom_bond_atom_site_label_1
_geom_bond_atom_site_label_2
_ccdc_geom_bond_type
O5    Zn1   S    
C43   H22   S    
C23   C45   A    
C13   N2    A    
C27   C29   S    
C34   C37   A    
C14   C18   A    
C23   H6    S    
C39   C41   A    
C27   C33   S    
C15   C19   A    
C4    H13   S    
C44   H27   S    
C24   C26   A    
C11   C14   A    
C7    H36   S    
O4    Zn1   S    
O6    Zn2   S    
C42   N3    S    
C10   H34   S    
C12   C37   S    
C44   H26   S    
C19   C26   A    
C44   N5    S    
C2    C50   A    
C9    H35   S    
C46   H32   S    
C20   C24   A    
C28   C35   S    
C6    N6    S    
C22   C25   A    
C22   N3    S    
C31   C33   S    
C30   C32   S    
C38   C48   A    
C43   H24   S    
C34   H5    S    
C21   C22   A    
C35   H4    S    
C42   H18   S    
C27   H38   S    
C18   C25   A    
C24   N4    S    
O1    Zn1   S    
C3    H11   S    
C33   H3    S    
C5    C48   A    
C8    C19   A    
C40   H8    S    
C32   C35   S    
C14   C20   A    
C36   C40   A    
H29   N6    S    
C4    C6    A    
C9    N1    A    
C11   H33   S    
C42   H19   S    
C4    C50   A    
C25   H14   S    
C17   O8    A    
C46   H31   S    
C11   N1    A    
C46   N6    S    
C1    O1    A    
C7    C18   A    
C39   C49   A    
C13   H23   S    
O7    Zn2   S    
C13   C15   A    
N1    Zn2   S    
C42   H17   S    
C17   C31   S    
C16   C32   S    
C1    O3    A    
H25   N5    S    
C29   H1    S    
C45   C48   A    
C7    C9    A    
O2    Zn2   S    
C43   H21   S    
C30   C33   S    
C27   C32   S    
C26   H15   S    
C12   O4    A    
C28   C31   S    
H20   N4    S    
C3    C5    A    
C5    N5    S    
C16   O5    A    
H16   N3    S    
C2    C47   A    
C47   C49   A    
C29   C35   S    
C43   N4    S    
C8    H37   S    
C30   H12   S    
C2    C3    A    
C41   H7    S    
C28   C30   S    
C29   C31   S    
C38   C40   A    
C28   H2    S    
C45   C50   A    
C39   H10   S    
C44   H28   S    
C6    C49   A    
C37   C41   A    
O8    Zn1   S    
C17   O6    A    
N2    Zn1   S    
O3    Zn2   S    
C38   H9    S    
C16   O7    A    
C15   C21   A    
C20   C21   A    
C10   N2    A    
C8    C10   A    
C23   C36   A    
C12   O2    A    
C34   C47   A    
C46   H30   S    
C1    C36   S    
