data_mof_unit_563.cif
_audit_creation_date              2013-03-05T15:46:25-0500
_audit_creation_method            fapswitch 2.2
_symmetry_space_group_name_H-M    P1
_symmetry_Int_Tables_number       1
_space_group_crystal_system       triclinic
_cell_length_a                    15.870336
_cell_length_b                    11.024315
_cell_length_c                    9.9014
_cell_angle_alpha                 110.902968
_cell_angle_beta                  98.7293
_cell_angle_gamma                 91.147014
_cell_volume                      1594.41791897

loop_
_atom_site_label
_atom_site_type_symbol
_atom_site_description
_atom_site_fract_x
_atom_site_fract_y
_atom_site_fract_z
_atom_type_partial_charge
O1    O     O_R   0.507820 0.332330 0.577400 -0.539735
O2    O     O_R   0.483070 0.295500 0.332660 -0.578377
C1    C     C_R   0.495333 0.254299 0.440821 0.878756
O3    O     O_R   0.391820 0.518430 0.622420 -0.527877
O4    O     O_R   0.367070 0.481600 0.377680 -0.556317
C2    C     C_R   0.340393 0.500519 0.500591 0.851124
Cu1   Cu    Cu3+1 0.514650 0.521810 0.644910 1.002858
Cu2   Cu    Cu3+1 0.485350 0.478190 0.355090 0.987940
O5    O     O_R   0.516930 0.704500 0.667340 -0.590649
O6    O     O_R   0.492180 0.667670 0.422600 -0.581218
O7    O     O_R   0.632930 0.518400 0.622320 -0.607074
O8    O     O_R   0.608180 0.481570 0.377580 -0.571855
C3    C     C_R   0.507720 0.745726 0.559000 0.842340
C4    C     C_R   0.659536 0.499709 0.499512 0.794212
C5    C     C_3   0.058693 0.460459 0.622134 -0.306040
C6    C     C_3   0.033214 0.417070 0.348267 0.158452
C7    C     C_3   0.935234 0.421643 0.347494 -0.432453
H1    H     H_    0.936054 0.349356 0.583785 0.213436
H2    H     H_    0.082820 0.364033 0.610587 0.234186
H3    H     H_    0.048640 0.456581 0.264928 0.102976
H4    H     H_    0.903882 0.321916 0.315582 0.217371
H5    H     H_    0.906284 0.459379 0.262392 0.140325
C8    C     C_1   0.749022 0.501081 0.499331 -0.185300
C9    C     C_3   0.083044 0.507512 0.501572 0.031189
C10   C     C_3   0.960561 0.452650 0.614546 -0.417177
C11   C     C_3   0.916857 0.508871 0.500965 0.181544
C12   C     C_3   0.957153 0.652244 0.545980 -0.134025
C13   C     C_3   0.053591 0.647815 0.527047 0.112396
C14   C     C_1   0.824615 0.504166 0.500271 -0.047163
C15   C     C_1   0.175409 0.505473 0.502151 0.039470
C16   C     C_1   0.250902 0.503130 0.501925 -0.047594
H6    H     H_    0.060206 0.667657 0.426175 0.104109
H7    H     H_    0.955119 0.702086 0.664958 0.205194
H8    H     H_    0.089919 0.526796 0.732732 0.225294
H9    H     H_    0.945113 0.507501 0.725131 0.176658
H10   H     H_    0.497246 0.864089 0.368102 0.177242
H11   H     H_    0.538838 0.134594 0.626653 0.209185
C17   C     C_2   0.494559 0.114787 0.407279 -0.320294
C18   C     C_2   0.517182 0.069139 0.514105 -0.107899
H12   H     H_    0.528482 0.951464 0.705247 0.164146
C19   C     C_2   0.516466 0.885102 0.591413 -0.310634
C20   C     C_2   0.510156 0.929998 0.482173 -0.153553
H13   H     H_    0.474317 0.048760 0.294427 0.157791
H14   H     H_    0.523472 0.618539 0.163408 0.138230
N1    N     N_2   0.463320 0.445430 0.137380 -0.261230
C21   C     C_2   0.493095 0.526516 0.084855 -0.152819
N2    N     N_2   0.536720 0.554500 0.862620 -0.216731
C22   C     C_2   0.486382 0.496469 0.920210 0.439759
H15   H     H_    0.435364 0.356730 0.063931 0.260189
C23   C     C_3   0.907533 0.733681 0.464021 -0.410126
C24   C     C_3   0.845373 0.819982 0.554075 -0.337261
C25   C     C_3   0.786264 0.879669 0.462383 -0.830143
H16   H     H_    0.824192 0.936797 0.416717 0.270383
H17   H     H_    0.744502 0.801801 0.371198 0.245497
H18   H     H_    0.744950 0.945539 0.532195 0.243949
H19   H     H_    0.805383 0.763193 0.596872 0.217023
H20   H     H_    0.882734 0.899678 0.649801 0.240288
H21   H     H_    0.952844 0.800017 0.442273 0.230090
H22   H     H_    0.872046 0.668857 0.355703 0.208551
N3    N     N_R   0.420075 0.400556 0.826013 0.147576
O9    O     O_R   0.340980 0.428746 0.828943 -0.339315
O10   O     O_R   0.435971 0.278575 0.781355 -0.386367
C26   C     C_3   0.598092 0.661042 0.967120 -0.254590
C27   C     C_3   0.674096 0.696680 0.905843 -0.274191
C28   C     C_3   0.734634 0.804655 0.024673 -0.928227
H23   H     H_    0.700159 0.892798 0.071265 0.264584
H24   H     H_    0.762453 0.771100 0.113873 0.260442
H25   H     H_    0.787746 0.830950 0.976443 0.261749
H26   H     H_    0.711277 0.610343 0.866432 0.230728
H27   H     H_    0.652770 0.733157 0.816955 0.249926
H28   H     H_    0.563244 0.749175 0.012746 0.170782
H29   H     H_    0.629320 0.632043 0.058140 0.147349
N4    N     N_R   0.058505 0.282668 0.304522 0.149666
O11   O     O_R   0.033520 0.203098 0.363747 -0.353126
O12   O     O_R   0.101506 0.239043 0.197300 -0.312253
N5    N     N_R   0.108050 0.749373 0.650843 0.141816
O13   O     O_R   0.108353 0.758442 0.785598 -0.344238
O14   O     O_R   0.154285 0.835672 0.626360 -0.310919

loop_
_geom_bond_atom_site_label_1
_geom_bond_atom_site_label_2
_geom_bond_distance
_ccdc_geom_bond_type
C19   C20   1.332683 D    
H10   C20   1.088028 S    
C3    C19   1.452320 S    
Cu1   Cu2   2.698804 S    
N1    C21   1.297027 D    
C12   H7    1.114052 S    
C5    H2    1.110217 S    
C11   C12   1.573594 S    
C23   H22   1.109856 S    
C8    C14   1.198017 T    
N5    O14   1.301123 A    
N2    C26   1.476457 S    
C17   C18   1.331440 D    
O7    C4    1.296095 A    
C5    C10   1.546945 S    
N3    O10   1.300266 A    
C24   H19   1.108761 S    
N4    O11   1.301650 A    
O5    C3    1.296770 A    
Cu2   N1    2.027334 S    
C1    C17   1.452404 S    
H14   C21   1.081714 S    
C6    C7    1.555751 S    
C28   H24   1.110461 S    
C24   H20   1.111836 S    
C27   H27   1.103841 S    
C5    H8    1.108560 S    
C25   H18   1.110620 S    
C6    H3    1.115401 S    
C2    C16   1.423091 S    
C6    C9    1.564525 S    
N4    O12   1.301097 A    
H1    C10   1.113368 S    
O3    Cu1   1.926231 S    
C25   H17   1.110804 S    
C22   N3    1.431463 S    
C18   C20   1.449732 S    
C21   C22   1.529454 S    
C6    N4    1.470622 S    
C23   H21   1.112021 S    
C13   H6    1.115002 S    
N5    O13   1.301201 A    
O3    C2    1.298064 A    
C10   C11   1.551711 S    
C7    H4    1.112939 S    
C24   C25   1.526338 S    
N3    O9    1.301292 A    
O1    C1    1.299913 A    
Cu1   N2    2.027496 S    
C4    C8    1.420231 S    
Cu1   O7    1.923377 S    
N2    C22   1.323168 D    
N1    H15   1.029160 S    
C15   C16   1.199214 T    
Cu2   O8    1.926229 S    
C28   H25   1.110742 S    
C23   C24   1.540343 S    
C27   H26   1.110739 S    
C10   H9    1.113383 S    
C5    C9    1.554767 S    
O8    C4    1.297837 A    
C7    C11   1.556262 S    
C13   N5    1.470853 S    
C25   H16   1.110878 S    
Cu1   O5    1.944847 S    
H12   C19   1.087544 S    
O1    Cu1   1.947971 S    
O2    Cu2   1.944845 S    
C9    C13   1.568714 S    
C26   H28   1.112700 S    
O6    C3    1.298615 A    
O4    Cu2   1.923378 S    
C12   C23   1.561697 S    
C7    H5    1.111066 S    
C27   C28   1.528413 S    
O2    C1    1.295568 A    
C17   H13   1.087617 S    
H11   C18   1.086601 S    
O4    C2    1.297158 A    
C9    C15   1.465657 S    
C26   C27   1.533186 S    
C26   H29   1.111935 S    
C11   C14   1.462676 S    
Cu2   O6    1.947972 S    
C28   H23   1.111049 S    
C12   C13   1.569559 S    
