data_mof_unit_912.cif
_audit_creation_date              2012-12-11T15:45:16-0500
_audit_creation_method            fapswitch 2.2
_symmetry_space_group_name_H-M    P1
_symmetry_Int_Tables_number       1
_space_group_crystal_system       triclinic
_cell_length_a                    8.265382
_cell_length_b                    19.050511
_cell_length_c                    22.853782
_cell_angle_alpha                 95.418769
_cell_angle_beta                  89.425623
_cell_angle_gamma                 94.347892
_cell_volume                      3572.14436727

loop_
_atom_site_label
_atom_site_type_symbol
_atom_type_description
_atom_site_fract_x
_atom_site_fract_y
_atom_site_fract_z
_atom_type_partial_charge
Ba1   Ba    Ba6+2 0.850680 0.532880 0.472010 1.678836
Ba2   Ba    Ba6+2 0.339140 0.467180 0.527990 1.661129
C1    C     C_3   0.832115 0.755263 0.271794 -0.303575
C2    C     C_3   0.753572 0.712615 0.319057 0.699899
C3    C     C_3   0.502332 0.358659 0.350646 0.295111
C4    C     C_3   0.499000 0.336842 0.284891 -0.364798
C5    C     C_3   0.009814 0.267267 0.686356 0.293258
C6    C     C_3   0.051095 0.247058 0.746858 -0.302099
C7    C     C_3   0.532019 0.281113 0.672475 0.421470
C8    C     C_3   0.498911 0.214735 0.704041 -0.354145
C9    C     C_R   0.346368 0.509721 0.330474 -0.318132
C10   C     C_R   0.076265 0.554157 0.941177 -0.028208
C11   C     C_R   0.032091 0.550749 0.880911 0.591978
C12   C     C_3   0.224750 0.693087 0.321938 0.266203
C13   C     C_R   0.006761 0.423994 0.875455 0.588785
C14   C     C_R   0.049104 0.425666 0.935496 -0.021126
C15   C     C_R   0.083823 0.491128 0.968553 -0.051558
C16   C     C_R   0.111818 0.619148 0.974976 -0.072261
C17   C     C_R   0.153656 0.621492 0.034464 -0.074626
C18   C     C_R   0.161470 0.558927 0.062361 -0.023581
C19   C     C_R   0.126283 0.493488 0.029216 -0.051585
C20   C     C_R   0.057294 0.363069 0.963280 -0.075764
C21   C     C_R   0.098398 0.365382 0.022717 -0.074067
C22   C     C_R   0.133290 0.430363 0.056500 -0.028086
C23   C     C_3   0.289100 0.727226 0.267996 -0.287514
C24   C     C_R   0.175840 0.433563 0.116755 0.588387
C25   C     C_R   0.203480 0.560359 0.122556 0.591248
C26   C     C_2   0.806889 0.444802 0.768592 -0.089058
C27   C     C_3   0.774480 0.426455 0.703622 -0.069458
C28   C     C_1   0.006468 0.510129 0.684750 0.048206
C29   C     C_2   0.051158 0.516087 0.741189 -0.080086
C30   C     C_2   0.946044 0.482530 0.786852 0.219641
C31   C     C_R   0.414028 0.528713 0.229587 -0.109292
C32   C     C_R   0.457914 0.531919 0.289264 0.003985
C33   C     C_R   0.193355 0.480783 0.313462 0.033839
C34   C     C_3   0.202650 0.684968 0.601455 0.313300
C35   C     C_R   0.148559 0.475121 0.253610 -0.080110
C36   C     C_R   0.257860 0.500538 0.210960 0.221151
C37   C     C_2   0.877413 0.470458 0.664166 -0.274037
C38   C     C_R   0.393804 0.704582 0.480478 -0.272113
C39   C     C_R   0.535961 0.727593 0.510400 0.098784
C40   C     C_R   0.581544 0.800878 0.521168 0.141824
C41   C     C_R   0.481822 0.850269 0.499804 0.001869
C42   C     C_R   0.335871 0.825278 0.470800 -0.098987
C43   C     C_R   0.290501 0.752560 0.463286 0.025700
C44   C     C_R   0.560077 0.963572 0.455827 -0.039020
C45   C     C_3   0.224646 0.763538 0.621549 -0.360185
C46   C     C_R   0.614902 0.035285 0.461187 -0.085605
C47   C     C_R   0.642565 0.072070 0.516889 0.056817
C48   C     C_R   0.609873 0.036387 0.567177 -0.056718
C49   C     C_R   0.551167 0.965061 0.561808 -0.051893
C50   C     C_R   0.529988 0.927469 0.506061 0.073506
C51   C     C_R   0.842988 0.174347 0.550866 -0.135977
C52   C     C_R   0.892879 0.246961 0.553571 -0.016902
C53   C     C_R   0.654728 0.267661 0.499152 0.048220
C54   C     C_R   0.605088 0.195640 0.495314 -0.119720
C55   C     C_R   0.696697 0.148454 0.522200 -0.008436
C56   C     C_3   0.994984 0.318900 0.408223 0.309057
C57   C     C_R   0.793574 0.293337 0.530515 -0.270818
C58   C     C_3   0.973868 0.239033 0.394287 -0.384379
C59   C     C_3   0.689478 0.615412 0.645049 0.301396
C60   C     C_3   0.703976 0.632094 0.711288 -0.343056
H1    H     H_    0.848239 0.687586 0.341711 0.080781
H2    H     H_    0.314008 0.772859 0.657950 0.129062
H3    H     H_    0.268865 0.793929 0.585013 0.050921
H4    H     H_    0.107070 0.783004 0.637208 0.162249
H5    H     H_    0.878207 0.338927 0.422844 0.003040
H6    H     H_    0.085699 0.331320 0.443762 0.076166
H7    H     H_    0.876182 0.225075 0.361276 0.133397
H8    H     H_    0.941476 0.212800 0.434397 0.065559
H9    H     H_    0.089025 0.219063 0.376495 0.127999
H10   H     H_    0.806734 0.599264 0.627058 0.003706
H11   H     H_    0.594855 0.571453 0.635927 0.081217
H12   H     H_    0.919860 0.797661 0.291594 0.136331
H13   H     H_    0.804990 0.673073 0.721742 0.141413
H14   H     H_    0.728078 0.583911 0.732341 0.066944
H15   H     H_    0.588976 0.651739 0.729526 0.133488
H16   H     H_    0.737999 0.780082 0.248085 0.125799
H17   H     H_    0.377153 0.368839 0.365278 0.024310
H18   H     H_    0.583785 0.407718 0.358748 0.044971
H19   H     H_    0.418810 0.287676 0.275481 0.139560
H20   H     H_    0.451970 0.379127 0.261118 0.076643
H21   H     H_    0.623465 0.327435 0.268788 0.127410
H22   H     H_    0.896396 0.719775 0.239636 0.082126
H23   H     H_    0.370855 0.691941 0.242773 0.155284
H24   H     H_    0.968927 0.321579 0.691071 0.021441
H25   H     H_    0.910565 0.228855 0.668529 -0.023079
H26   H     H_    0.150625 0.283890 0.766654 0.172850
H27   H     H_    0.942188 0.249429 0.775592 0.119176
H28   H     H_    0.089550 0.192226 0.743459 0.089571
H29   H     H_    0.666029 0.290359 0.668941 -0.138641
H30   H     H_    0.480418 0.271601 0.627448 0.074709
H31   H     H_    0.560088 0.170489 0.680337 0.057185
H32   H     H_    0.366961 0.199725 0.705468 0.142298
H33   H     H_    0.156567 0.641907 0.307563 0.037635
H34   H     H_    0.546625 0.223899 0.749600 0.113812
H35   H     H_    0.102853 0.315865 0.042154 0.123661
H36   H     H_    0.031423 0.311803 0.939111 0.119096
H37   H     H_    0.179901 0.672731 0.058625 0.120307
H38   H     H_    0.499372 0.549293 0.198047 0.099592
H39   H     H_    0.107211 0.668641 0.955520 0.124153
H40   H     H_    0.165828 0.544349 0.754510 0.114612
H41   H     H_    0.727903 0.419768 0.800046 0.100778
H42   H     H_    0.029803 0.451461 0.240336 0.103956
H43   H     H_    0.380164 0.514178 0.376392 0.079718
H44   H     H_    0.331454 0.682958 0.348444 0.045381
H45   H     H_    0.857903 0.459195 0.617238 0.077530
H46   H     H_    0.497056 0.176246 0.470583 0.081284
H47   H     H_    0.637869 0.061968 0.421792 0.071482
H48   H     H_    0.543554 0.935884 0.412432 0.115071
H49   H     H_    0.627375 0.064021 0.610522 0.064101
H50   H     H_    0.525054 0.938716 0.601179 0.089484
H51   H     H_    0.919747 0.138196 0.568935 0.080601
H52   H     H_    0.257466 0.862187 0.454659 0.091268
H53   H     H_    0.832238 0.349051 0.532253 0.054592
H54   H     H_    0.187591 0.736879 0.239161 0.124048
H55   H     H_    0.358883 0.648534 0.472984 0.053222
H56   H     H_    0.358267 0.778333 0.281596 0.144802
H57   H     H_    0.322680 0.665495 0.590233 -0.008198
H58   H     H_    0.121506 0.676879 0.562572 0.046254
N1    N     N_R   0.996498 0.486059 0.848607 -0.423752
N2    N     N_R   0.210920 0.498108 0.149232 -0.424734
O1    O     O_2   0.896730 0.461690 0.361000 -0.464771
O2    O     O_3   0.648014 0.676103 0.620515 -0.619109
O3    O     O_3   0.120109 0.738367 0.352992 -0.618335
O4    O     O_2   0.292960 0.538340 0.639040 -0.461027
O5    O     O_3   0.052540 0.537650 0.567960 -0.497968
O6    O     O_3   0.532200 0.411510 0.604930 -0.476270
O7    O     O_3   0.133987 0.650436 0.647809 -0.626684
O8    O     O_3   0.629030 0.416090 0.471500 -0.479683
O9    O     O_3   0.120120 0.375640 0.576470 -0.467872
O10   O     O_2   0.226808 0.250250 0.540054 -0.484757
O11   O     O_3   0.148027 0.264639 0.650340 -0.577496
O12   O     O_3   0.137170 0.462400 0.432040 -0.493199
O13   O     O_3   0.560670 0.583970 0.528500 -0.499622
O14   O     O_2   0.373560 0.329680 0.473470 -0.459674
O15   O     O_3   0.559535 0.303797 0.379590 -0.640867
O16   O     O_2   0.457277 0.476453 0.709888 -0.484700
O17   O     O_3   0.460224 0.338233 0.703808 -0.567066
O18   O     O_2   0.023210 0.605433 0.857571 -0.592159
O19   O     O_2   0.979897 0.366905 0.846918 -0.623819
O20   O     O_2   0.183302 0.378777 0.140104 -0.592384
O21   O     O_2   0.232187 0.617198 0.151310 -0.617559
O22   O     O_3   0.657500 0.588540 0.395070 -0.466403
O23   O     O_2   0.801142 0.550250 0.290372 -0.513277
O24   O     O_3   0.046441 0.348837 0.357138 -0.629039
O25   O     O_3   0.637071 0.663346 0.292062 -0.642591
O26   O     O_2   0.816140 0.670340 0.526560 -0.439529
O27   O     O_3   0.069580 0.624410 0.423530 -0.497105
O28   O     O_2   0.951500 0.750929 0.450275 -0.410982
P1    P     P_3+3 0.067040 0.441110 0.370020 0.994075
P2    P     P_3+3 0.640420 0.660110 0.543790 1.028646
P3    P     P_3+3 0.104636 0.716606 0.425476 0.983780
P4    P     P_3+3 0.122660 0.558950 0.629980 0.995886
P5    P     P_3+3 0.095267 0.283511 0.579918 0.959735
P6    P     P_3+3 0.644816 0.579816 0.317627 0.948447
P7    P     P_3+3 0.556498 0.327638 0.455408 0.949599
P8    P     P_3+3 0.555827 0.416258 0.681301 0.969876
Cl1   Cl    Cl    0.654931 0.771010 0.370662 -0.740461
I1    I     I_    0.800115 0.836769 0.568169 -0.445895

loop_
_geom_bond_atom_site_label_1
_geom_bond_atom_site_label_2
_ccdc_geom_bond_type
C53   C54   A    
C49   H50   S    
C4    H20   S    
C53   C57   A    
C39   C40   A    
C60   H15   S    
C17   C18   A    
C23   H56   S    
C7    H29   S    
C53   P7    S    
O6    P8    S    
C5    C6    S    
C39   P2    S    
C51   C52   A    
C37   H45   S    
C2    H1    S    
Ba2   O12   S    
C12   O3    S    
C34   C45   S    
C59   O2    S    
C20   H36   S    
C26   C27   S    
C33   C35   A    
C22   C24   A    
C29   H40   S    
C5    O11   S    
C28   C29   D    
C41   C50   S    
C5    H24   S    
C8    H32   S    
C56   C58   S    
C13   C14   A    
C44   C50   A    
O10   P5    D    
C47   C55   S    
C54   C55   A    
O5    P4    S    
Ba1   P2    S    
C16   C17   A    
C34   H57   S    
C1    H12   S    
O27   P3    S    
C54   H46   S    
C13   O19   D    
O23   P6    D    
C5    H25   S    
O17   P8    S    
C51   H51   S    
C14   C15   A    
O28   P3    D    
C10   C15   A    
C9    H43   S    
C25   O21   D    
C21   C22   A    
Ba1   O27   S    
C58   H8    S    
C3    H17   S    
C7    C8    S    
C45   H4    S    
Ba2   O5    S    
C38   H55   S    
O2    P2    S    
C42   H52   S    
Ba2   P4    S    
C4    H19   S    
C60   H14   S    
C33   P1    S    
C7    H30   S    
C25   N2    Am   
O3    P3    S    
C31   C32   A    
C44   C46   A    
C52   C57   A    
C38   C43   A    
O1    P1    D    
C49   C50   A    
C11   O18   D    
O26   P2    D    
C26   C30   D    
Ba1   O8    S    
C23   H54   S    
C52   P5    S    
C51   C55   A    
C8    H31   S    
C59   H11   S    
C2    O25   S    
Ba2   O14   S    
C1    C2    S    
C6    H26   S    
C16   H39   S    
O22   P6    S    
C41   C42   A    
Ba1   O1    S    
C35   C36   A    
C11   N1    Am   
O16   P8    D    
C29   C30   S    
C8    H34   S    
C27   C37   S    
C23   H23   S    
Ba2   O9    S    
C48   C49   A    
Ba1   P1    S    
C10   C11   A    
C3    H18   S    
O25   P6    S    
C36   N2    S    
O14   P7    D    
Ba2   O4    S    
C59   H10   S    
C56   H6    S    
C38   C39   A    
C21   H35   S    
O8    P7    S    
C60   H13   S    
C43   P3    S    
C40   C41   A    
Ba1   O12   S    
O4    P4    D    
C12   H33   S    
C45   H2    S    
C42   C43   A    
C12   H44   S    
C46   C47   A    
C14   C20   A    
C4    H21   S    
C13   N1    Am   
O11   P5    S    
C30   N1    S    
C9    C32   A    
C40   I1    S    
Ba1   O5    S    
Ba1   O26   S    
C35   H42   S    
C56   O24   S    
C3    O15   S    
C27   P8    S    
C18   C25   A    
C32   P6    S    
Ba2   O13   S    
C58   H9    S    
O15   P7    S    
C17   H37   S    
C31   H38   S    
O9    P5    S    
Ba1   O22   S    
C24   O20   D    
C34   O7    S    
C7    O17   S    
C26   H41   S    
C3    C4    S    
C58   H7    S    
O12   P1    S    
Ba1   Ba2   S    
C9    C33   A    
C48   H49   S    
Ba2   O8    S    
C28   C37   D    
C46   H47   S    
C12   C23   S    
C59   C60   S    
C34   H58   S    
C15   C19   A    
O24   P1    S    
C2    Cl1   S    
C56   H5    S    
C28   P4    S    
C6    H28   S    
C18   C19   A    
C57   H53   S    
C47   C48   A    
C19   C22   A    
C10   C16   A    
C1    H22   S    
C20   C21   A    
C31   C36   A    
C44   H48   S    
C6    H27   S    
C24   N2    Am   
Ba1   O13   S    
C1    H16   S    
C45   H3    S    
O7    P4    S    
O13   P2    S    
Ba2   O6    S    
