data_mof_unit_2412.cif
_audit_creation_date              2012-10-26T18:50:27-0400
_audit_creation_method            fapswitch 2.2
_symmetry_space_group_name_H-M    P1
_symmetry_Int_Tables_number       1
_space_group_crystal_system       triclinic
_cell_length_a                    9.609162
_cell_length_b                    10.848492
_cell_length_c                    15.485012
_cell_angle_alpha                 86.804814
_cell_angle_beta                  74.146994
_cell_angle_gamma                 92.487638
_cell_volume                      1547.53225848

loop_
_atom_site_label
_atom_site_type_symbol
_atom_type_description
_atom_site_fract_x
_atom_site_fract_y
_atom_site_fract_z
_atom_type_partial_charge
C1    C     C_R   0.999358 0.263134 0.495337 0.547641
C2    C     C_R   0.222697 0.497901 0.042053 0.049467
C3    C     C_R   0.322022 0.472048 0.092642 0.037776
C4    C     C_R   0.917848 0.496818 0.672118 0.552855
C5    C     C_R   0.076391 0.511993 0.085599 -0.145406
C6    C     C_R   0.027744 0.504135 0.179022 -0.151675
C7    C     C_R   0.271600 0.470925 0.186895 -0.140078
C8    C     C_R   0.253966 0.141607 0.397995 -0.116820
C9    C     C_R   0.390202 0.098998 0.390171 -0.100332
C10   C     C_R   0.404421 0.986670 0.435383 0.024304
C11   C     C_R   0.279173 0.909119 0.475086 -0.125625
C12   C     C_R   0.667692 0.465776 0.907345 0.034816
C13   C     C_R   0.139600 0.948656 0.477453 -0.001456
C14   C     C_R   0.129829 0.073844 0.452625 0.015341
C15   C     C_R   0.998673 0.129858 0.487941 -0.005274
C16   C     C_R   0.002149 0.737909 0.503540 0.528929
C17   C     C_R   0.872512 0.056983 0.530149 -0.169385
C18   C     C_R   0.876100 0.929253 0.535844 -0.164373
C19   C     C_R   0.008303 0.872926 0.508279 -0.009072
C20   C     C_R   0.708471 0.651191 0.369472 -0.128978
C21   C     C_R   0.672790 0.716859 0.298672 0.001557
C22   C     C_R   0.526699 0.720581 0.299667 0.258529
C23   C     C_R   0.762547 0.421851 0.956342 0.049931
C24   C     C_R   0.421062 0.656010 0.372028 -0.125011
C25   C     C_R   0.457394 0.576134 0.436700 0.045645
C26   C     C_R   0.606282 0.574893 0.436061 0.095917
C27   C     C_R   0.544223 0.427429 0.560192 -0.002041
C28   C     C_R   0.081655 0.496597 0.328155 0.514399
C29   C     C_R   0.395234 0.424665 0.559366 0.388677
C30   C     C_R   0.870441 0.480344 0.770740 -0.005437
C31   C     C_R   0.126414 0.489202 0.230053 -0.017490
C32   C     C_R   0.908072 0.405127 0.912031 -0.149330
C33   C     C_R   0.961688 0.433796 0.819701 -0.139467
C34   C     C_R   0.518092 0.474587 0.952006 0.032770
C35   C     C_R   0.726199 0.499324 0.815070 -0.134990
C36   C     C_3   0.547782 0.952568 0.449686 -0.270614
C37   C     C_3   0.680144 0.019964 0.382962 -0.433226
C38   C     C_3   0.788463 0.783701 0.219916 -0.244155
C39   C     C_3   0.937758 0.811706 0.234768 -0.483421
C40   C     C_3   0.348410 0.804863 0.237367 -0.126581
C41   C     C_3   0.329786 0.228377 0.628341 -0.135084
C42   C     C_R   0.469137 0.453203 0.047343 0.039549
C43   C     C_R   0.567797 0.410639 0.093863 -0.130031
C44   C     C_R   0.711073 0.393810 0.048785 -0.138317
C45   C     C_R   0.415138 0.500135 0.904199 -0.138456
C46   C     C_R   0.270271 0.510348 0.948582 -0.138180
Cu1   Cu    Cu3+1 0.140660 0.499990 0.500010 0.962690
Cu2   Cu    Cu3+1 0.859340 0.500010 0.499990 0.904600
H1    H     H_    0.782329 0.359055 0.086811 0.107590
H2    H     H_    0.344931 0.461794 0.228118 0.126281
H3    H     H_    0.311204 0.671094 0.377910 0.180685
H4    H     H_    0.914396 0.515969 0.211057 0.135065
H5    H     H_    0.195276 0.529885 0.909235 0.112122
H6    H     H_    0.979778 0.367494 0.948570 0.110286
H7    H     H_    0.073124 0.416693 0.786428 0.161959
H8    H     H_    0.661912 0.541333 0.775759 0.120025
H9    H     H_    0.536286 0.384408 0.164989 0.099964
H10   H     H_    0.441754 0.508589 0.831816 0.109105
H11   H     H_    0.673588 0.014201 0.312901 0.164859
H12   H     H_    0.999952 0.531730 0.047436 0.112915
H13   H     H_    0.689309 0.118442 0.397961 0.147979
H14   H     H_    0.779166 0.976814 0.389017 0.152842
H15   H     H_    0.548228 0.973204 0.519070 0.125495
H16   H     H_    0.557848 0.851820 0.445398 0.151723
H17   H     H_    0.929091 0.863321 0.295426 0.144097
H18   H     H_    0.992889 0.726070 0.241844 0.147441
H19   H     H_    0.007265 0.868876 0.175747 0.142868
H20   H     H_    0.802288 0.727631 0.160569 0.162183
H21   H     H_    0.749781 0.873918 0.201825 0.189644
H22   H     H_    0.339088 0.863690 0.178540 0.146447
H23   H     H_    0.770859 0.098642 0.557966 0.127603
H24   H     H_    0.297661 0.853424 0.298274 0.126099
H25   H     H_    0.289853 0.714878 0.236401 0.123009
H26   H     H_    0.230071 0.167085 0.655581 0.152892
H27   H     H_    0.397189 0.218020 0.675921 0.093940
H28   H     H_    0.386954 0.195915 0.561612 0.117877
H29   H     H_    0.247126 0.231196 0.365413 0.134425
H30   H     H_    0.482879 0.159341 0.354430 0.113192
H31   H     H_    0.292762 0.823856 0.510197 0.142713
H32   H     H_    0.775059 0.874376 0.563309 0.138114
H33   H     H_    0.576600 0.370662 0.610091 0.112675
H34   H     H_    0.817027 0.663095 0.371138 0.204690
N1    N     N_R   0.648320 0.501210 0.499140 -0.263818
N2    N     N_R   0.352470 0.501290 0.499110 -0.226040
O1    O     O_R   0.118810 0.319640 0.500010 -0.462365
O2    O     O_3   0.289223 0.351469 0.622536 -0.543468
O3    O     O_R   0.881240 0.319660 0.500000 -0.508456
O4    O     O_R   0.055570 0.499980 0.629840 -0.447752
O5    O     O_R   0.818000 0.500010 0.629830 -0.510586
O6    O     O_R   0.118760 0.680340 0.500000 -0.537730
O7    O     O_R   0.881190 0.680360 0.499990 -0.520301
O8    O     O_R   0.182000 0.499990 0.370170 -0.538833
O9    O     O_R   0.944430 0.500020 0.370160 -0.520228
O10   O     O_3   0.496594 0.790210 0.228569 -0.574315

loop_
_geom_bond_atom_site_label_1
_geom_bond_atom_site_label_2
_ccdc_geom_bond_type
C44   H1    S    
C1    O3    A    
C3    C42   A    
C33   H7    S    
C26   N1    A    
C20   H34   S    
C27   C29   A    
C39   H17   S    
Cu1   O8    S    
C34   C42   A    
C37   H14   S    
C45   C46   A    
C2    C46   A    
C16   O6    A    
C41   O2    S    
C12   C23   A    
C40   H22   S    
C30   C35   A    
Cu1   O1    S    
C36   C37   S    
C3    C7    A    
C38   C39   S    
C40   H25   S    
C18   C19   A    
C41   H26   S    
C21   C38   S    
C8    C9    A    
Cu2   O7    S    
C25   N2    A    
C1    C15   S    
C36   H15   S    
C9    C10   A    
C5    H12   S    
C24   H3    S    
C6    C31   A    
C38   H21   S    
C21   C22   A    
C23   C32   A    
C22   O10   S    
C32   H6    S    
C1    O1    A    
C45   H10   S    
C7    C31   A    
Cu2   O9    S    
C13   C19   A    
C27   H33   S    
C24   C25   A    
C29   N2    A    
C25   C26   A    
C23   C44   A    
C28   O9    A    
C43   C44   A    
C41   H27   S    
Cu1   Cu2   S    
C17   C18   A    
Cu2   O3    S    
C28   O8    A    
C34   C45   A    
Cu1   N2    S    
C12   C35   A    
C29   O2    S    
C37   H11   S    
C11   H31   S    
C38   H20   S    
C17   H23   S    
Cu2   O5    S    
C8    H29   S    
C39   H18   S    
C22   C24   A    
C2    C5    A    
C42   C43   A    
C12   C34   A    
C4    O5    A    
C15   C17   A    
C8    C14   A    
C40   H24   S    
C30   C33   A    
C35   H8    S    
C39   H19   S    
C28   C31   S    
C7    H2    S    
C40   O10   S    
C37   H13   S    
C4    O4    A    
Cu2   N1    S    
C32   C33   A    
C27   N1    A    
C2    C3    A    
C36   H16   S    
Cu1   O4    S    
C41   H28   S    
C11   C13   A    
C5    C6    A    
C20   C26   A    
C16   C19   S    
C46   H5    S    
Cu1   O6    S    
C9    H30   S    
C10   C11   A    
C43   H9    S    
C20   C21   A    
C16   O7    A    
C18   H32   S    
C14   C15   A    
C10   C36   S    
C6    H4    S    
C13   C14   A    
C4    C30   S    
