data_mof_unit_4281.cif
_audit_creation_date              2012-12-11T20:21:47-0500
_audit_creation_method            fapswitch 2.2
_symmetry_space_group_name_H-M    P1
_symmetry_Int_Tables_number       1
_space_group_crystal_system       triclinic
_cell_length_a                    8.239063
_cell_length_b                    17.414578
_cell_length_c                    26.938239
_cell_angle_alpha                 99.601644
_cell_angle_beta                  92.804705
_cell_angle_gamma                 81.503793
_cell_volume                      3767.95619014

loop_
_atom_site_label
_atom_site_type_symbol
_atom_type_description
_atom_site_fract_x
_atom_site_fract_y
_atom_site_fract_z
_atom_type_partial_charge
Ba1   Ba    Ba6+2 0.860160 0.462360 0.521850 1.662428
Ba2   Ba    Ba6+2 0.329680 0.537570 0.478140 1.682850
C1    C     C_3   0.688622 0.188250 0.650964 -0.360071
C2    C     C_3   0.674735 0.266476 0.631946 0.358933
C3    C     C_3   0.492487 0.665293 0.634701 0.303522
C4    C     C_3   0.484783 0.694736 0.691117 -0.375893
C5    C     C_3   0.976615 0.742713 0.349320 0.299641
C6    C     C_3   0.005910 0.770674 0.300247 0.211654
C7    C     C_3   0.474137 0.746529 0.372174 0.394752
C8    C     C_3   0.439296 0.824661 0.352500 -0.335966
C9    C     C_R   0.047130 0.446371 0.178601 0.610203
C10   C     C_R   0.883977 0.572385 0.177932 0.613523
C11   C     C_2   0.753951 0.547510 0.274320 -0.042810
C12   C     C_3   0.183844 0.267511 0.649786 0.309287
C13   C     C_3   0.733798 0.577847 0.329861 -0.053388
C14   C     C_1   0.987770 0.491044 0.343712 0.033819
C15   C     C_2   0.030866 0.488855 0.296128 -0.086564
C16   C     C_2   0.905211 0.515046 0.257181 0.188534
C17   C     C_R   0.024227 0.505630 0.101444 -0.082340
C18   C     C_R   0.089783 0.443815 0.127709 -0.040336
C19   C     C_R   0.196525 0.380455 0.102452 -0.042686
C20   C     C_R   0.919188 0.569745 0.126820 -0.038800
C21   C     C_2   0.849545 0.531646 0.362505 -0.305163
C22   C     C_2   0.358057 0.485099 0.640073 -0.285623
C23   C     C_3   0.121910 0.256587 0.700040 -0.356649
C24   C     C_R   0.215642 0.438285 0.973721 0.020340
C25   C     C_R   0.032411 0.564260 0.972538 0.020665
C26   C     C_R   0.144521 0.500702 0.947793 0.049702
C27   C     C_R   0.326807 0.376770 0.947157 -0.097770
C28   C     C_R   0.364857 0.376085 0.897173 -0.060515
C29   C     C_R   0.295328 0.436891 0.871161 -0.034059
C30   C     C_R   0.185678 0.499541 0.896475 -0.078262
C31   C     C_R   0.117086 0.561009 0.870436 -0.031236
C32   C     C_R   0.161368 0.559822 0.820117 0.588323
C33   C     C_R   0.332859 0.436058 0.820216 0.584291
C34   C     C_3   0.185937 0.286137 0.401117 0.642420
C35   C     C_2   0.466351 0.486296 0.728508 -0.072432
C36   C     C_3   0.507153 0.491520 0.674835 -0.057923
C37   C     C_1   0.211949 0.516295 0.657271 0.042840
C38   C     C_2   0.174842 0.513687 0.704308 -0.096715
C39   C     C_2   0.307731 0.497569 0.743008 0.203971
C40   C     C_R   0.173887 0.439385 0.024962 0.018913
C41   C     C_R   0.063968 0.503661 0.049889 0.052867
C42   C     C_R   0.993611 0.566259 0.023952 0.020529
C43   C     C_R   0.238247 0.378322 0.052558 -0.099151
C44   C     C_R   0.851617 0.631104 0.100877 -0.044931
C45   C     C_3   0.106239 0.211246 0.388517 -0.302578
C46   C     C_R   0.962555 0.623918 0.944672 -0.098312
C47   C     C_R   0.005000 0.622474 0.895130 -0.060252
C48   C     C_R   0.887157 0.629433 0.050790 -0.100316
C49   C     C_2   0.443117 0.278215 0.512793 -0.189094
C50   C     C_3   0.370802 0.225807 0.542540 -0.065454
C51   C     C_2   0.412062 0.140171 0.521961 -0.101744
C52   C     C_2   0.547135 0.114752 0.493932 0.010542
C53   C     C_2   0.635468 0.174206 0.476648 -0.113565
C54   C     C_1   0.573172 0.249779 0.484778 0.134640
C55   C     C_R   0.786346 0.862179 0.470920 -0.126592
C56   C     C_3   0.974312 0.701659 0.587658 0.307274
C57   C     C_R   0.845774 0.781910 0.465283 0.007956
C58   C     C_R   0.615752 0.759246 0.510335 0.042506
C59   C     C_R   0.555720 0.839395 0.516653 -0.120250
C60   C     C_R   0.638934 0.891334 0.496285 0.013123
C61   C     C_2   0.609580 0.029655 0.480090 -0.074595
C62   C     C_2   0.578212 0.976163 0.507754 -0.076807
C63   C     C_R   0.756395 0.730298 0.482832 -0.274912
C64   C     C_3   0.942759 0.790582 0.603225 -0.378841
C65   C     C_3   0.694198 0.366213 0.369409 0.349722
C66   C     C_3   0.702989 0.347174 0.312139 0.219778
H1    H     H_    0.774986 0.262616 0.605031 0.097114
H2    H     H_    0.148317 0.178058 0.351380 0.111796
H3    H     H_    0.140860 0.173329 0.417690 0.099502
H4    H     H_    0.970764 0.225619 0.386428 0.102502
H5    H     H_    0.857883 0.679752 0.574891 0.005921
H6    H     H_    0.061303 0.687562 0.556270 0.077756
H7    H     H_    0.849598 0.806477 0.633036 0.135403
H8    H     H_    0.897186 0.819380 0.570562 0.063335
H9    H     H_    0.058539 0.812718 0.617870 0.124523
H10   H     H_    0.812812 0.383177 0.384878 -0.109429
H11   H     H_    0.595343 0.416220 0.379639 0.078945
H12   H     H_    0.685359 0.139898 0.618467 0.069613
H13   H     H_    0.793829 0.294070 0.301024 0.080417
H14   H     H_    0.741751 0.396793 0.297106 -0.011416
H15   H     H_    0.554309 0.277314 0.612721 -0.068571
H16   H     H_    0.585117 0.188390 0.675985 0.120899
H17   H     H_    0.368176 0.653125 0.620892 0.029766
H18   H     H_    0.581654 0.610434 0.627931 0.033181
H19   H     H_    0.403681 0.752114 0.698498 0.137283
H20   H     H_    0.434300 0.652221 0.710323 0.073684
H21   H     H_    0.609753 0.702138 0.706812 0.127440
H22   H     H_    0.806112 0.177763 0.672511 0.133512
H23   H     H_    0.204437 0.279635 0.730838 0.114205
H24   H     H_    0.983099 0.677316 0.342272 0.031104
H25   H     H_    0.852503 0.771185 0.362233 -0.055923
H26   H     H_    0.124772 0.739296 0.284681 0.121783
H27   H     H_    0.013509 0.835202 0.307442 0.028338
H28   H     H_    0.608223 0.735334 0.380646 -0.099542
H29   H     H_    0.408574 0.752047 0.407799 0.095693
H30   H     H_    0.535305 0.827740 0.325199 0.092545
H31   H     H_    0.442498 0.874365 0.384625 0.072713
H32   H     H_    0.180388 0.331804 0.650199 0.035425
H33   H     H_    0.315893 0.830987 0.333149 0.133068
H34   H     H_    0.156804 0.469637 0.285734 0.175952
H35   H     H_    0.249887 0.331897 0.121428 0.139994
H36   H     H_    0.565901 0.478712 0.755954 0.104543
H37   H     H_    0.450613 0.327283 0.878930 0.121875
H38   H     H_    0.387770 0.327722 0.963826 0.071164
H39   H     H_    0.321575 0.327254 0.036737 0.073630
H40   H     H_    0.653222 0.562791 0.248609 0.125809
H41   H     H_    0.769594 0.681348 0.119295 0.132359
H42   H     H_    0.873066 0.672980 0.959746 0.070638
H43   H     H_    0.312402 0.237610 0.645981 -0.018142
H44   H     H_    0.947842 0.670070 0.875977 0.121427
H45   H     H_    0.047278 0.526391 0.715940 0.133146
H46   H     H_    0.829546 0.679654 0.034572 0.071372
H47   H     H_    0.834958 0.546804 0.402950 0.085670
H48   H     H_    0.372390 0.457954 0.600967 0.074417
H49   H     H_    0.504730 0.994599 0.541052 0.069295
H50   H     H_    0.747842 0.154718 0.455872 0.074548
H51   H     H_    0.860055 0.901451 0.458377 0.069488
H52   H     H_    0.686281 0.011689 0.447385 0.073792
H53   H     H_    0.338702 0.099882 0.533658 0.070661
H54   H     H_    0.996395 0.289206 0.706339 0.159288
H55   H     H_    0.447829 0.861586 0.539004 0.081218
H56   H     H_    0.404167 0.341000 0.521524 0.058621
H57   H     H_    0.804551 0.668412 0.479367 0.059225
H58   H     H_    0.119340 0.193119 0.700649 0.112779
H59   H     H_    0.148690 0.315728 0.439463 0.050349
N1    N     N_R   0.945464 0.510659 0.203816 -0.428889
N2    N     N_R   0.266904 0.497611 0.795239 -0.424585
O1    O     O_2   0.906370 0.542040 0.619810 -0.465993
O2    O     O_3   0.663935 0.299363 0.388019 -0.607266
O3    O     O_3   0.084651 0.234164 0.610463 -0.594958
O4    O     O_2   0.283330 0.457940 0.380160 -0.425243
O5    O     O_3   0.051340 0.457960 0.440360 -0.508464
O6    O     O_3   0.503130 0.601610 0.416130 -0.487390
O7    O     O_3   0.138343 0.333046 0.363750 -0.630675
O8    O     O_3   0.616890 0.595000 0.528820 -0.483076
O9    O     O_3   0.087820 0.642040 0.442240 -0.481521
O10   O     O_2   0.178579 0.781188 0.480244 -0.487565
O11   O     O_3   0.098708 0.765423 0.384864 -0.620464
O12   O     O_3   0.138370 0.541980 0.559630 -0.494343
O13   O     O_3   0.572820 0.404940 0.471170 -0.484941
O14   O     O_2   0.345130 0.693150 0.532000 -0.461919
O15   O     O_3   0.543638 0.723232 0.611152 -0.641200
O16   O     O_2   0.412626 0.533948 0.324068 -0.460229
O17   O     O_3   0.419574 0.686087 0.336470 -0.584797
O18   O     O_2   0.099155 0.390662 0.199966 -0.556061
O19   O     O_2   0.423082 0.380026 0.797997 -0.594097
O20   O     O_2   0.799321 0.630867 0.199471 -0.546291
O21   O     O_2   0.107755 0.614773 0.798677 -0.603006
O22   O     O_3   0.686580 0.398330 0.583860 -0.499397
O23   O     O_2   0.849002 0.440308 0.669258 -0.485520
O24   O     O_3   0.039035 0.668124 0.629337 -0.627873
O25   O     O_3   0.685065 0.327122 0.672810 -0.588966
O26   O     O_2   0.844570 0.306830 0.467970 -0.488339
O27   O     O_3   0.101900 0.357890 0.557750 -0.477376
O28   O     O_2   0.039198 0.216752 0.512411 -0.491491
P1    P     P_3+3 0.071770 0.565500 0.613330 0.997270
P2    P     P_3+3 0.664870 0.318630 0.453960 1.034069
P3    P     P_3+3 0.148381 0.256668 0.554295 0.950593
P4    P     P_3+3 0.117940 0.434440 0.386660 1.041492
P5    P     P_3+3 0.052543 0.743623 0.443064 0.943488
P6    P     P_3+3 0.681318 0.416004 0.649936 0.974671
P7    P     P_3+3 0.531979 0.694110 0.545873 0.948137
P8    P     P_3+3 0.517289 0.596051 0.351116 0.977027
Cl1   Cl    Cl    0.507417 0.330752 0.284624 -0.624864
O29   O     O_3   0.879526 0.754547 0.264908 -0.681253
H60   H     H_    0.783720 0.795520 0.274260 0.304021
O30   O     O_3   0.355565 0.264222 0.400837 -0.774626
H61   H     H_    0.388641 0.254901 0.364751 0.359253

loop_
_geom_bond_atom_site_label_1
_geom_bond_atom_site_label_2
_ccdc_geom_bond_type
C25   C46   A    
C50   P3    S    
C46   H42   S    
C53   C54   D    
C38   C39   S    
Ba2   O14   S    
O30   H61   S    
C2    O25   S    
C17   C18   A    
O13   P2    S    
C23   H58   S    
C32   O21   D    
C5    C6    S    
C12   O3    S    
C51   C52   D    
C65   H10   S    
C24   C40   A    
C34   O30   S    
Ba2   O5    S    
C11   C16   D    
C1    H22   S    
C66   H13   S    
Ba1   P1    S    
C6    O29   S    
C35   C36   S    
C49   C54   D    
C54   P2    S    
C3    C4    S    
C55   C57   A    
C52   C61   S    
C5    H24   S    
O11   P5    S    
C10   C20   A    
C7    O17   S    
C22   C37   D    
C4    H20   S    
C34   C45   S    
C8    H30   S    
Ba1   Ba2   S    
O24   P1    S    
Ba1   O26   S    
C60   C62   S    
Ba1   O13   S    
C16   N1    S    
C25   C42   A    
C56   C64   S    
C26   C30   A    
C29   C30   A    
C32   N2    Am   
C14   C15   D    
C22   C36   S    
C7    C8    S    
C33   N2    Am   
C55   H51   S    
C3    H17   S    
C13   C21   S    
O15   P7    S    
C49   H56   S    
C59   C60   A    
C6    H27   S    
C11   H40   S    
C1    H12   S    
C34   O7    S    
Ba2   P4    S    
C2    H1    S    
C17   C41   A    
C31   C32   A    
C19   C43   A    
O7    P4    S    
C8    H33   S    
C12   H43   S    
C5    H25   S    
C9    C18   A    
C23   H23   S    
Ba2   O4    S    
O26   P2    D    
C65   C66   S    
Ba2   O9    S    
O25   P6    S    
O27   P3    S    
C17   C20   A    
C65   H11   S    
Ba1   O1    S    
O29   H60   S    
C3    O15   S    
O16   P8    D    
C55   C60   A    
C62   H49   S    
C49   C50   S    
C58   C59   A    
C48   H46   S    
C40   C43   A    
C63   H57   S    
Ba1   O27   S    
C15   H34   S    
C45   H2    S    
C27   C28   A    
C56   O24   S    
C35   H36   S    
C38   H45   S    
Ba1   P2    S    
C28   C29   A    
C64   H8    S    
C15   C16   S    
O6    P8    S    
C6    H26   S    
O9    P5    S    
O3    P3    S    
O2    P2    S    
C7    H28   S    
C45   H3    S    
C47   H44   S    
C3    H18   S    
C36   P6    S    
C20   C44   A    
O17   P8    S    
C58   C63   A    
C22   H48   S    
O28   P3    D    
O22   P6    S    
Ba1   O5    S    
C11   C13   S    
C41   C42   A    
Ba2   O13   S    
C29   C33   A    
C27   H38   S    
C34   H59   S    
C40   C41   A    
C1    C2    S    
O14   P7    D    
C37   C38   D    
Ba1   O8    S    
C50   C51   S    
C56   H6    S    
C23   H54   S    
C42   C48   A    
C64   H9    S    
C52   C53   S    
C46   C47   A    
C7    H29   S    
Ba2   O8    S    
C10   O20   D    
O10   P5    D    
C65   O2    S    
C37   P1    S    
O4    P4    D    
O8    P7    S    
C12   H32   S    
C10   N1    Am   
C14   P4    S    
C14   C21   D    
C4    H21   S    
C44   C48   A    
C24   C26   A    
Ba2   O6    S    
O5    P4    S    
O1    P1    D    
C59   H55   S    
C66   H14   S    
C30   C31   A    
C9    N1    Am   
C28   H37   S    
C57   P5    S    
C51   H53   S    
C57   C63   A    
C39   N2    S    
C61   H52   S    
C9    O18   D    
C5    O11   S    
C2    H15   S    
C64   H7    S    
C58   P7    S    
Ba1   O22   S    
C33   O19   D    
C12   C23   S    
C35   C39   D    
C8    H31   S    
C45   H4    S    
O23   P6    D    
Ba1   O12   S    
C4    H19   S    
C21   H47   S    
C61   C62   D    
C19   H35   S    
O12   P1    S    
C18   C19   A    
C24   C27   A    
C44   H41   S    
C1    H16   S    
Ba2   O12   S    
C13   P8    S    
C31   C47   A    
C43   H39   S    
C56   H5    S    
C25   C26   A    
C53   H50   S    
C66   Cl1   S    
