data_mof_unit_838.cif
_audit_creation_date              2012-12-10T21:26:04-0500
_audit_creation_method            fapswitch 2.2
_symmetry_space_group_name_H-M    P1
_symmetry_Int_Tables_number       1
_space_group_crystal_system       triclinic
_cell_length_a                    8.636695
_cell_length_b                    16.269455
_cell_length_c                    16.721773
_cell_angle_alpha                 88.368238
_cell_angle_beta                  92.222864
_cell_angle_gamma                 100.752946
_cell_volume                      2306.11370734

loop_
_atom_site_label
_atom_site_type_symbol
_atom_type_description
_atom_site_fract_x
_atom_site_fract_y
_atom_site_fract_z
_atom_type_partial_charge
C1    C     C_R   0.494200 0.489176 0.653765 0.934781
C2    C     C_R   0.505268 0.510956 0.346290 0.918269
C3    C     C_R   0.406654 0.755641 0.469016 0.283131
C4    C     C_R   0.595797 0.244855 0.529025 0.288146
C5    C     C_R   0.415082 0.843710 0.471797 -0.321879
C6    C     C_R   0.586375 0.156635 0.527470 -0.322334
C7    C     C_R   0.538119 0.895044 0.513847 0.219046
C8    C     C_R   0.459718 0.104772 0.488445 0.220839
C9    C     C_R   0.651394 0.856590 0.553989 0.038509
C10   C     C_R   0.342450 0.142671 0.451322 0.049557
C11   C     C_R   0.639638 0.768485 0.552169 0.018647
C12   C     C_R   0.357016 0.231035 0.450323 0.008215
C13   C     C_R   0.800063 0.520995 0.503709 0.891967
C14   C     C_R   0.199632 0.479183 0.496295 0.972791
C15   C     C_2   0.964091 0.527095 0.518815 -0.070901
C16   C     C_2   0.036508 0.475007 0.478758 -0.028598
C17   C     C_R   0.461579 0.479933 0.740435 -0.221178
C18   C     C_R   0.505433 0.516553 0.257737 -0.200459
C19   C     C_R   0.376230 0.534469 0.777996 -0.133037
C20   C     C_R   0.560451 0.455238 0.213021 -0.099604
C21   C     C_R   0.317753 0.513106 0.854796 0.160226
C22   C     C_R   0.539923 0.455447 0.129187 0.153022
C23   C     C_R   0.361539 0.445072 0.897571 0.180254
C24   C     C_R   0.456126 0.512658 0.091352 0.195276
C25   C     C_R   0.442096 0.390236 0.861067 0.122298
C26   C     C_R   0.412419 0.576806 0.133750 0.113457
C27   C     C_R   0.496814 0.408825 0.783224 0.132496
C28   C     C_R   0.444627 0.581824 0.216600 0.127764
H1    H     H_    0.675507 0.127650 0.557873 0.185704
H2    H     H_    0.327576 0.873016 0.440360 0.186698
N1    N     N_2   0.363427 0.443795 0.981971 -0.119291
N2    N     N_2   0.431942 0.512654 0.007900 -0.138212
N3    N     N_R   0.519180 0.718290 0.509780 -0.159617
N4    N     N_R   0.480820 0.281710 0.490220 -0.157776
N5    N     N_2   0.553461 0.984634 0.517915 -0.176511
N6    N     N_2   0.443938 0.015128 0.484896 -0.174561
O1    O     O_R   0.493140 0.422050 0.612640 -0.623830
O2    O     O_R   0.506860 0.577950 0.387360 -0.623591
O3    O     O_R   0.505450 0.562230 0.618920 -0.586763
O4    O     O_R   0.494550 0.437770 0.381080 -0.583562
O5    O     O_R   0.723530 0.446300 0.497600 -0.628953
O6    O     O_R   0.276470 0.553700 0.502400 -0.630983
O7    O     O_R   0.735850 0.586490 0.503880 -0.600961
O8    O     O_R   0.264150 0.413510 0.496120 -0.610059
Zn1   Zn    Zn3+2 0.491780 0.406400 0.495810 0.959412
Zn2   Zn    Zn3+2 0.508220 0.593600 0.504190 0.958598
N7    N     N_2   0.031487 0.565503 0.591123 -0.304206
H3    H     H_    0.961954 0.548548 0.639867 0.234788
C29   C     C_3   0.088632 0.654866 0.585132 -0.542495
H4    H     H_    0.219060 0.667806 0.586448 0.260199
H5    H     H_    0.052608 0.686033 0.637538 0.248279
H6    H     H_    0.043361 0.682614 0.529711 0.213219
N8    N     N_2   0.974581 0.440379 0.403870 -0.301940
H7    H     H_    0.907197 0.474949 0.369430 0.232706
C30   C     C_3   0.917085 0.351174 0.403386 -0.578404
H8    H     H_    0.786620 0.337481 0.404572 0.233782
H9    H     H_    0.965045 0.319734 0.455627 0.218685
H10   H     H_    0.952249 0.325573 0.347577 0.261474
C31   C     C_2   0.648542 0.394066 0.251698 0.361335
H11   H     H_    0.593140 0.347838 0.294673 0.124461
O9    O     O_2   0.783683 0.393388 0.233370 -0.597615
C32   C     C_2   0.356614 0.616302 0.741210 0.409065
H12   H     H_    0.454206 0.656679 0.712959 0.135760
O10   O     O_2   0.232649 0.641308 0.744943 -0.614558
N9    N     N_2   0.600449 0.397586 0.081878 -0.257571
H13   H     H_    0.601456 0.339526 0.107999 0.249015
C33   C     C_3   0.744512 0.432332 0.041768 -0.700496
H14   H     H_    0.841155 0.454419 0.086207 0.264076
H15   H     H_    0.726942 0.485377 0.001340 0.234074
H16   H     H_    0.779953 0.383609 0.005025 0.217892
N10   N     N_2   0.227565 0.563745 0.894468 -0.258438
H17   H     H_    0.263160 0.627618 0.888618 0.270545
C34   C     C_3   0.058938 0.534743 0.887950 -0.728432
H18   H     H_    0.017265 0.535884 0.824359 0.270761
H19   H     H_    0.998023 0.576052 0.922088 0.228968
H20   H     H_    0.027868 0.470100 0.913176 0.223856
N11   N     N_2   0.481878 0.321523 0.907198 -0.282340
H21   H     H_    0.586510 0.303642 0.894887 0.231100
C35   C     C_3   0.352943 0.251629 0.916679 -0.780852
H22   H     H_    0.391589 0.203500 0.957175 0.239477
H23   H     H_    0.315596 0.223319 0.857681 0.227100
H24   H     H_    0.251233 0.272182 0.943575 0.254943
N12   N     N_2   0.333913 0.635530 0.091833 -0.295080
H25   H     H_    0.369551 0.696845 0.108396 0.227553
C36   C     C_3   0.164172 0.610218 0.086378 -0.764231
H26   H     H_    0.113209 0.655539 0.047479 0.236180
H27   H     H_    0.113495 0.608588 0.146577 0.228003
H28   H     H_    0.130949 0.547178 0.060088 0.271993
N13   N     N_2   0.599284 0.360488 0.750340 -0.291850
H29   H     H_    0.569509 0.296867 0.760978 0.231018
C37   C     C_3   0.764592 0.394142 0.766069 -0.842217
H30   H     H_    0.838104 0.352060 0.742496 0.247126
H31   H     H_    0.790497 0.399774 0.831458 0.236825
H32   H     H_    0.796987 0.456601 0.736453 0.249147
N14   N     N_2   0.414632 0.651883 0.258448 -0.294568
H33   H     H_    0.310937 0.671289 0.241761 0.231661
C38   C     C_3   0.548049 0.720425 0.263860 -0.765671
H34   H     H_    0.518307 0.770360 0.301039 0.238850
H35   H     H_    0.578742 0.747189 0.203436 0.219466
H36   H     H_    0.652243 0.698796 0.292255 0.255997
N15   N     N_2   0.724941 0.296172 0.570276 -0.269895
H37   H     H_    0.693815 0.341121 0.604700 0.297107
C39   C     C_3   0.855083 0.260699 0.604836 -0.885033
H38   H     H_    0.816055 0.220480 0.657803 0.246223
H39   H     H_    0.951912 0.312034 0.623958 0.250108
H40   H     H_    0.903304 0.224003 0.560101 0.239107
N16   N     N_2   0.280244 0.705108 0.424858 -0.278592
H41   H     H_    0.308795 0.654807 0.397771 0.302232
C40   C     C_3   0.164925 0.742547 0.378547 -0.895152
H42   H     H_    0.075481 0.692414 0.350905 0.246435
H43   H     H_    0.223017 0.783716 0.330030 0.248305
H44   H     H_    0.101955 0.778410 0.417700 0.247624
N17   N     N_2   0.778560 0.906507 0.597644 -0.328358
H45   H     H_    0.823704 0.962971 0.570133 0.241442
C41   C     C_3   0.748681 0.915372 0.681173 -0.768076
H46   H     H_    0.650700 0.950220 0.686994 0.246774
H47   H     H_    0.856337 0.950616 0.711576 0.236346
H48   H     H_    0.717949 0.852996 0.711276 0.254269
N18   N     N_2   0.210667 0.092079 0.411643 -0.313230
H49   H     H_    0.240219 0.046479 0.376684 0.243401
C42   C     C_3   0.082015 0.059334 0.463396 -0.821835
H50   H     H_    0.118535 0.014195 0.508134 0.254609
H51   H     H_    0.980123 0.026459 0.426969 0.244019
H52   H     H_    0.043741 0.110838 0.495084 0.232320
C43   C     C_2   0.766864 0.734671 0.594449 0.484249
H53   H     H_    0.886746 0.767815 0.587947 0.036418
O11   O     O_2   0.740284 0.676937 0.642795 -0.585792
C44   C     C_2   0.234938 0.265127 0.403379 0.488213
H54   H     H_    0.113451 0.233480 0.406524 0.042766
O12   O     O_2   0.268250 0.321544 0.354228 -0.560857

loop_
_geom_bond_atom_site_label_1
_geom_bond_atom_site_label_2
_ccdc_geom_bond_type
C30   H8    S    
N15   H37   S    
C2    C18   S    
N16   C40   S    
C34   H18   S    
N14   H33   S    
C15   N7    S    
C44   H54   S    
C13   O5    A    
C38   H34   S    
N7    C29   S    
N8    H7    S    
C26   N12   S    
C21   N10   S    
C28   N14   S    
C25   N11   S    
C22   C24   A    
C11   C43   S    
C24   C26   A    
C5    H2    S    
C40   H43   S    
C8    N6    S    
C3    N3    A    
C19   C32   S    
C41   H46   S    
O6    Zn2   S    
C16   N8    S    
C42   H52   S    
C32   O10   D    
C10   N18   S    
N7    H3    S    
N9    C33   S    
N16   H41   S    
N13   C37   S    
C1    O1    A    
C14   O6    A    
C41   H48   S    
N11   C35   S    
C31   H11   S    
N15   C39   S    
N3    Zn2   S    
C34   H19   S    
C38   H35   S    
N8    C30   S    
O4    Zn1   S    
C4    N4    A    
C31   O9    D    
O2    Zn2   S    
C36   H27   S    
C33   H14   S    
C17   C27   A    
C11   N3    A    
C18   C28   A    
C4    C6    A    
C40   H44   S    
C37   H30   S    
C5    C7    A    
C6    C8    A    
C29   H5    S    
N11   H21   S    
C44   O12   D    
C33   H15   S    
N5    N6    D    
C23   N1    S    
C24   N2    S    
C22   N9    S    
C32   H12   S    
C37   H31   S    
C2    O2    A    
N12   H25   S    
C13   C15   S    
C29   H6    S    
C4    N15   S    
N14   C38   S    
C39   H39   S    
N4    Zn1   S    
C20   C31   S    
C9    C11   A    
C42   H50   S    
N18   C42   S    
C10   C12   A    
O3    Zn2   S    
N12   C36   S    
C20   C22   A    
C29   H4    S    
C21   C23   A    
C43   H53   S    
C34   H20   S    
C14   C16   S    
C12   N4    A    
C13   O7    A    
C38   H36   S    
O8    Zn1   S    
C14   O8    A    
N17   H45   S    
C36   H28   S    
C7    C9    A    
C41   H47   S    
C19   C21   A    
C7    N5    S    
N1    N2    D    
C3    C5    A    
C36   H26   S    
C35   H24   S    
N18   H49   S    
C35   H23   S    
C12   C44   S    
C25   C27   A    
C26   C28   A    
C33   H16   S    
C3    N16   S    
C30   H9    S    
C9    N17   S    
N10   H17   S    
C40   H42   S    
C37   H32   S    
C17   C19   A    
C27   N13   S    
C39   H40   S    
C18   C20   A    
C23   C25   A    
O7    Zn2   S    
C42   H51   S    
C1    O3    A    
C35   H22   S    
C2    O4    A    
C6    H1    S    
C1    C17   S    
C8    C10   A    
N9    H13   S    
C30   H10   S    
N10   C34   S    
C39   H38   S    
C43   O11   D    
O5    Zn1   S    
N13   H29   S    
O1    Zn1   S    
C15   C16   D    
N17   C41   S    
