data_mof_unit_2161.cif
_audit_creation_date              2012-12-11T18:37:19-0500
_audit_creation_method            fapswitch 2.2
_symmetry_space_group_name_H-M    P1
_symmetry_Int_Tables_number       1
_space_group_crystal_system       triclinic
_cell_length_a                    8.209772
_cell_length_b                    14.324439
_cell_length_c                    27.001722
_cell_angle_alpha                 93.507626
_cell_angle_beta                  92.605922
_cell_angle_gamma                 88.289668
_cell_volume                      3165.01988103

loop_
_atom_site_label
_atom_site_type_symbol
_atom_type_description
_atom_site_fract_x
_atom_site_fract_y
_atom_site_fract_z
_atom_type_partial_charge
Ba1   Ba    Ba6+2 0.849670 0.455410 0.524690 1.639576
Ba2   Ba    Ba6+2 0.340150 0.544510 0.475310 1.649175
C1    C     C_3   0.604280 0.124457 0.665730 -0.362816
C2    C     C_3   0.620070 0.218743 0.643678 0.343626
C3    C     C_3   0.522585 0.692861 0.623573 0.281949
C4    C     C_3   0.519561 0.725804 0.678655 -0.107262
C5    C     C_3   0.014392 0.779384 0.335317 0.339942
C6    C     C_3   0.004222 0.828433 0.286849 -0.324826
C7    C     C_3   0.531993 0.781658 0.315447 0.458230
C8    C     C_3   0.452446 0.848196 0.278968 -0.299467
C9    C     C_R   0.002709 0.432640 0.180083 0.593578
C10   C     C_R   0.961572 0.598788 0.179313 0.585895
C11   C     C_2   0.780322 0.570821 0.271167 -0.092465
C12   C     C_3   0.126863 0.247168 0.666349 0.284786
C13   C     C_3   0.758472 0.598351 0.325519 -0.104740
C14   C     C_1   0.982376 0.486165 0.343971 0.034694
C15   C     C_2   0.023113 0.478668 0.296536 -0.087608
C16   C     C_2   0.915794 0.521748 0.256800 0.216832
C17   C     C_R   0.037932 0.510878 0.103111 -0.081301
C18   C     C_R   0.043717 0.428656 0.129361 -0.035008
C19   C     C_R   0.088239 0.343967 0.104111 -0.061597
C20   C     C_R   0.995841 0.596304 0.128411 -0.026815
C21   C     C_2   0.857684 0.538242 0.360090 -0.258509
C22   C     C_2   0.349390 0.478042 0.642151 -0.280314
C23   C     C_3   0.085813 0.227776 0.718973 -0.328285
C24   C     C_R   0.171184 0.420842 0.976284 0.001889
C25   C     C_R   0.087472 0.586777 0.973152 0.026820
C26   C     C_R   0.147875 0.502450 0.949174 0.047653
C27   C     C_R   0.241131 0.340568 0.951728 -0.128431
C28   C     C_R   0.283160 0.338687 0.901909 0.165980
C29   C     C_R   0.254927 0.418533 0.873930 -0.022317
C30   C     C_R   0.185642 0.500059 0.897686 -0.113173
C31   C     C_R   0.154827 0.579806 0.870087 -0.029821
C32   C     C_R   0.191726 0.577534 0.819330 0.589296
C33   C     C_R   0.294874 0.419739 0.823071 0.595036
C34   C     C_3   0.163603 0.258055 0.423138 0.310435
C35   C     C_2   0.456749 0.479286 0.730096 -0.075473
C36   C     C_3   0.499997 0.485473 0.676296 -0.060320
C37   C     C_1   0.213202 0.519503 0.656726 0.036379
C38   C     C_2   0.174214 0.521173 0.704178 -0.100600
C39   C     C_2   0.301614 0.498077 0.743975 0.202962
C40   C     C_R   0.125856 0.422235 0.027026 0.026962
C41   C     C_R   0.074720 0.507908 0.051588 0.050366
C42   C     C_R   0.060156 0.590822 0.025177 0.019233
C43   C     C_R   0.128881 0.340711 0.054330 -0.100675
C44   C     C_R   0.989914 0.678212 0.102471 -0.063964
C45   C     C_3   0.165408 0.152514 0.412426 -0.384042
C46   C     C_R   0.055000 0.664411 0.943951 -0.101399
C47   C     C_R   0.087535 0.660782 0.893739 -0.056051
C48   C     C_R   0.020538 0.675651 0.052120 -0.103551
C49   C     C_R   0.690885 0.064757 0.473030 -0.031741
C50   C     C_R   0.510154 0.198279 0.501459 0.047725
C51   C     C_R   0.372869 0.229597 0.526914 -0.289504
C52   C     C_R   0.274236 0.166889 0.548100 0.015764
C53   C     C_R   0.319475 0.072432 0.547810 -0.145160
C54   C     C_R   0.460836 0.039556 0.524139 -0.005668
C55   C     C_R   0.555410 0.101612 0.499174 -0.025764
C56   C     C_3   0.030508 0.741410 0.575215 0.295698
C57   C     C_R   0.641054 0.908310 0.498718 -0.014640
C58   C     C_R   0.736422 0.969483 0.473570 0.013506
C59   C     C_R   0.685112 0.812224 0.497659 0.041217
C60   C     C_R   0.820929 0.778546 0.472515 -0.288389
C61   C     C_R   0.922421 0.839330 0.451304 0.004686
C62   C     C_R   0.878952 0.934651 0.450583 -0.123159
C63   C     C_R   0.505135 0.944693 0.524180 -0.043721
C64   C     C_3   0.027260 0.847103 0.585667 -0.385388
C65   C     C_3   0.660968 0.340303 0.380320 0.299826
C66   C     C_3   0.668573 0.316676 0.324774 -0.355849
H1    H     H_    0.728614 0.214826 0.620451 0.103247
H2    H     H_    0.251985 0.132277 0.382952 0.129804
H3    H     H_    0.203497 0.116288 0.446317 0.065008
H4    H     H_    0.041386 0.129768 0.399839 0.117071
H5    H     H_    0.907225 0.718300 0.563572 0.010460
H6    H     H_    0.115256 0.723362 0.545094 0.072478
H7    H     H_    0.938205 0.867385 0.614433 0.139354
H8    H     H_    0.991826 0.883121 0.551543 0.065245
H9    H     H_    0.150236 0.870466 0.598965 0.105009
H10   H     H_    0.782829 0.361148 0.395196 0.006452
H11   H     H_    0.572484 0.399397 0.386345 0.091910
H12   H     H_    0.590330 0.068896 0.635419 0.070989
H13   H     H_    0.762573 0.260705 0.317595 0.130804
H14   H     H_    0.700206 0.379416 0.305529 0.076532
H15   H     H_    0.548141 0.292413 0.309534 0.134187
H16   H     H_    0.508687 0.232631 0.620275 -0.039515
H17   H     H_    0.495700 0.125589 0.688861 0.128986
H18   H     H_    0.395994 0.680356 0.609229 0.023695
H19   H     H_    0.596100 0.626600 0.620079 0.015302
H20   H     H_    0.464763 0.671642 0.699783 0.069547
H21   H     H_    0.646498 0.735691 0.693769 0.120289
H22   H     H_    0.715121 0.108139 0.689080 0.136658
H23   H     H_    0.136968 0.282680 0.745300 0.130478
H24   H     H_    0.036371 0.703271 0.327121 0.057595
H25   H     H_    0.895124 0.791478 0.352725 -0.068656
H26   H     H_    0.106721 0.804427 0.263461 0.145341
H27   H     H_    0.888009 0.812171 0.266051 0.120056
H28   H     H_    0.008401 0.905427 0.294485 0.103415
H29   H     H_    0.648904 0.758036 0.299238 -0.025393
H30   H     H_    0.539845 0.902557 0.271055 0.077298
H31   H     H_    0.342909 0.883684 0.294762 0.130490
H32   H     H_    0.085082 0.319908 0.659717 0.079493
H33   H     H_    0.416951 0.809011 0.243539 0.097741
H34   H     H_    0.136865 0.443517 0.286445 0.121680
H35   H     H_    0.092208 0.279172 0.122891 0.120452
H36   H     H_    0.553229 0.466296 0.757876 0.102150
H37   H     H_    0.269395 0.277664 0.970656 0.066320
H38   H     H_    0.158486 0.272218 0.037953 0.068129
H39   H     H_    0.698200 0.601971 0.243757 0.095238
H40   H     H_    0.960344 0.745370 0.121062 0.117717
H41   H     H_    0.000313 0.729015 0.958545 0.068213
H42   H     H_    0.261044 0.240650 0.663023 -0.011144
H43   H     H_    0.060036 0.722651 0.873401 0.123133
H44   H     H_    0.050624 0.539430 0.714470 0.122639
H45   H     H_    0.016200 0.742330 0.035646 0.068423
H46   H     H_    0.842051 0.552168 0.399571 0.079055
H47   H     H_    0.351928 0.437834 0.606737 0.072361
H48   H     H_    0.337204 0.302986 0.527761 0.067311
H49   H     H_    0.242800 0.024635 0.565082 0.072399
H50   H     H_    0.957037 0.981197 0.433049 0.063602
H51   H     H_    0.853876 0.704805 0.472338 0.057145
H52   H     H_    0.763289 0.109033 0.452309 0.098668
H53   H     H_    0.951438 0.228533 0.722289 0.144785
H54   H     H_    0.430950 0.899926 0.544117 0.092624
H55   H     H_    0.137630 0.158427 0.728704 0.123764
H56   H     H_    0.288961 0.280499 0.432864 0.002355
H57   H     H_    0.083877 0.275788 0.454659 0.066976
N1    N     N_R   0.960932 0.517267 0.204667 -0.421414
N2    N     N_R   0.260881 0.498116 0.796223 -0.432289
O1    O     O_2   0.918080 0.549800 0.616640 -0.462253
O2    O     O_3   0.612310 0.261266 0.403222 -0.639768
O3    O     O_3   0.047367 0.182301 0.633241 -0.601568
O4    O     O_2   0.271610 0.450170 0.383330 -0.452009
O5    O     O_3   0.039630 0.450200 0.443530 -0.500479
O6    O     O_3   0.531440 0.620360 0.408460 -0.457776
O7    O     O_3   0.105511 0.300643 0.380387 -0.627504
O8    O     O_3   0.643350 0.612530 0.521650 -0.470565
O9    O     O_3   0.127390 0.668260 0.431510 -0.472805
O10   O     O_2   0.261945 0.833067 0.456551 -0.487768
O11   O     O_3   0.144187 0.815401 0.365585 -0.582878
O12   O     O_3   0.150070 0.549720 0.556460 -0.492158
O13   O     O_3   0.546340 0.387390 0.478340 -0.488331
O14   O     O_2   0.398940 0.728800 0.517420 -0.467783
O15   O     O_3   0.594086 0.761462 0.597619 -0.656640
O16   O     O_2   0.446565 0.523509 0.324441 -0.486732
O17   O     O_3   0.427944 0.706077 0.320484 -0.561287
O18   O     O_2   0.002296 0.360545 0.202020 -0.598056
O19   O     O_2   0.359786 0.350921 0.802592 -0.567759
O20   O     O_2   0.933404 0.674225 0.201202 -0.631062
O21   O     O_2   0.164908 0.647164 0.795913 -0.590488
O22   O     O_3   0.658250 0.379560 0.591530 -0.487102
O23   O     O_2   0.831081 0.426169 0.674116 -0.497556
O24   O     O_3   0.080877 0.699430 0.618837 -0.635609
O25   O     O_3   0.636654 0.288810 0.682128 -0.591071
O26   O     O_2   0.790750 0.271170 0.482550 -0.468533
O27   O     O_3   0.062300 0.331660 0.568480 -0.488949
O28   O     O_2   0.936681 0.166296 0.541475 -0.488302
P1    P     P_3+3 0.090020 0.577590 0.608380 0.991747
P2    P     P_3+3 0.614340 0.285150 0.467650 0.972555
P3    P     P_3+3 0.080262 0.210615 0.572497 0.936370
P4    P     P_3+3 0.099670 0.422330 0.391610 0.991380
P5    P     P_3+3 0.114270 0.790007 0.426962 0.966992
P6    P     P_3+3 0.657478 0.396897 0.656156 0.971535
P7    P     P_3+3 0.583777 0.729472 0.534042 0.939787
P8    P     P_3+3 0.541363 0.611009 0.343667 0.966059
N3    N     N_3   0.425262 0.813308 0.686354 -0.469104
H58   H     H_    0.477493 0.865649 0.667409 0.205515
H59   H     H_    0.306725 0.803909 0.671480 0.206967
N4    N     N_3   0.564179 0.833075 0.363246 -0.508644
H60   H     H_    0.630529 0.789427 0.386719 0.138836
H61   H     H_    0.453653 0.849661 0.379773 0.234411
N5    N     N_3   0.354352 0.254108 0.880120 -0.431508
H62   H     H_    0.461107 0.237907 0.900819 0.175404
H63   H     H_    0.272907 0.200114 0.882912 0.172928

loop_
_geom_bond_atom_site_label_1
_geom_bond_atom_site_label_2
_ccdc_geom_bond_type
C25   C46   A    
C53   C54   A    
C38   C39   S    
C1    H17   S    
C39   N2    S    
C17   C18   A    
C6    H28   S    
Ba1   O1    S    
C11   H39   S    
Ba1   O5    S    
O2    P2    S    
C4    H20   S    
C5    C6    S    
N4    H61   S    
C51   C52   A    
C56   O24   S    
C65   H10   S    
C24   C40   A    
C27   C28   A    
C11   C16   D    
C1    H22   S    
Ba2   O12   S    
C10   O20   D    
C13   P8    S    
N3    H58   S    
C34   H56   S    
C35   C36   S    
O27   P3    S    
C12   O3    S    
C28   C29   A    
C10   N1    Am   
N5    H62   S    
C5    H24   S    
C31   C47   A    
C54   C63   A    
C10   C20   A    
C22   C37   D    
C62   H50   S    
C54   C55   A    
C34   C45   S    
C8    H30   S    
Ba1   Ba2   S    
O23   P6    D    
C28   N5    S    
C32   O21   D    
C25   C42   A    
C56   C64   S    
C36   P6    S    
C34   H57   S    
Ba2   P4    S    
C44   H40   S    
Ba2   O5    S    
Ba1   O22   S    
C49   C55   A    
C22   C36   S    
C7    C8    S    
O25   P6    S    
Ba1   O12   S    
C51   H48   S    
C47   H43   S    
C59   C60   A    
C13   C21   S    
O7    P4    S    
C57   C58   A    
O28   P3    D    
O26   P2    D    
C27   H37   S    
C65   O2    S    
C6    H27   S    
C61   P5    S    
C2    O25   S    
C1    H12   S    
O6    P8    S    
C19   H35   S    
O16   P8    D    
C2    H1    S    
C7    O17   S    
C17   C41   A    
Ba2   O4    S    
C19   C43   A    
C5    H25   S    
C9    C18   A    
C23   H23   S    
O5    P4    S    
C57   C59   A    
C65   C66   S    
Ba2   O6    S    
C7    N4    S    
C9    N1    Am   
C65   H11   S    
C38   H44   S    
C37   C38   D    
C32   N2    Am   
O24   P1    S    
Ba2   O9    S    
C59   P7    S    
C33   O19   D    
C3    H19   S    
Ba1   P1    S    
C33   N2    Am   
C41   C42   A    
C45   H2    S    
C8    H31   S    
C60   C61   A    
O13   P2    S    
C35   H36   S    
C49   H52   S    
C29   C30   A    
C2    H16   S    
C26   C30   A    
C64   H8    S    
C17   C20   A    
C15   C16   S    
C6    H26   S    
C63   H54   S    
Ba1   O26   S    
C23   H55   S    
C45   H3    S    
C60   H51   S    
Ba1   O13   S    
C24   C27   A    
C3    H18   S    
C46   C47   A    
C20   C44   A    
C4    N3    S    
C14   C21   D    
C11   C13   S    
O17   P8    S    
O8    P7    S    
C29   C33   A    
O22   P6    S    
C40   C41   A    
C66   H13   S    
C1    C2    S    
C15   H34   S    
N4    H60   S    
C43   H38   S    
C56   H6    S    
C53   H49   S    
C42   C48   A    
C50   P2    S    
C12   H42   S    
C64   H9    S    
C52   C53   A    
O4    P4    D    
C7    H29   S    
O10   P5    D    
C66   H15   S    
C8    H33   S    
C9    O18   D    
C34   O7    S    
O15   P7    S    
C5    O11   S    
C12   H32   S    
C4    H21   S    
C44   C48   A    
C24   C26   A    
Ba2   O8    S    
C58   C62   A    
C37   P1    S    
O3    P3    S    
C48   H45   S    
C66   H14   S    
C30   C31   A    
Ba1   P2    S    
Ba2   O13   S    
C57   C63   A    
C21   H46   S    
C3    O15   S    
C3    C4    S    
N5    H63   S    
O12   P1    S    
C64   H7    S    
N3    H59   S    
C31   C32   A    
C46   H41   S    
C52   P3    S    
C12   C23   S    
C35   C39   D    
Ba1   O27   S    
C45   H4    S    
C50   C55   A    
O1    P1    D    
C61   C62   A    
O9    P5    S    
O11   P5    S    
O14   P7    D    
C18   C19   A    
C56   H5    S    
C22   H47   S    
C25   C26   A    
Ba2   O14   S    
C49   C58   A    
Ba1   O8    S    
C23   H53   S    
C40   C43   A    
C16   N1    S    
C14   C15   D    
C50   C51   A    
C14   P4    S    
