data_mof_unit_73.cif
_audit_creation_date              2012-12-10T16:50:03-0500
_audit_creation_method            fapswitch 2.2
_symmetry_space_group_name_H-M    P1
_symmetry_Int_Tables_number       1
_space_group_crystal_system       triclinic
_cell_length_a                    7.818344
_cell_length_b                    8.5501
_cell_length_c                    10.638466
_cell_angle_alpha                 91.215926
_cell_angle_beta                  87.093119
_cell_angle_gamma                 92.810491
_cell_volume                      709.261693315

loop_
_atom_site_label
_atom_site_type_symbol
_atom_type_description
_atom_site_fract_x
_atom_site_fract_y
_atom_site_fract_z
_atom_type_partial_charge
C1    C     C_R   0.545064 0.794300 0.497987 0.893420
C2    C     C_R   0.455407 0.205882 0.505992 0.981158
C3    C     C_R   0.496390 0.512548 0.260794 0.831254
C4    C     C_R   0.413673 0.783705 0.866601 -0.131314
C5    C     C_R   0.334239 0.908034 0.926844 0.506386
C6    C     C_R   0.280928 0.896635 0.052554 -0.262365
C7    C     C_R   0.308478 0.761643 0.120209 -0.223424
C8    C     C_R   0.410763 0.641227 0.063638 0.066356
C9    C     C_2   0.184186 0.735895 0.227728 1.015182
C10   C     C_R   0.448076 0.648077 0.933150 -0.015137
C11   C     C_R   0.517710 0.517392 0.870571 -0.141707
C12   C     C_R   0.583411 0.395016 0.934594 0.411865
C13   C     C_R   0.568290 0.396961 0.062928 -0.188363
C14   C     C_R   0.483330 0.516303 0.127706 -0.121006
C15   C     C_2   0.569405 0.957500 0.497398 -0.319499
C16   C     C_2   0.432704 0.043140 0.515513 -0.323066
C17   C     C_R   0.504625 0.501046 0.739006 0.916212
Cl1   Cl    Cl    0.685672 0.237063 0.857804 -0.506455
Cl2   Cl    Cl    0.962246 0.674604 0.639969 -0.412855
Cl3   Cl    Cl    0.280446 0.069813 0.840585 -0.543608
Cl4   Cl    Cl    0.035856 0.316469 0.367119 -0.430275
H1    H     H_    0.449224 0.794540 0.767479 0.154655
H2    H     H_    0.203216 0.987797 0.094037 0.197947
H3    H     H_    0.622244 0.303122 0.112958 0.192997
H4    H     H_    0.699059 0.006581 0.478847 0.228971
H5    H     H_    0.303512 0.994071 0.535905 0.244356
H6    H     H_    0.248508 0.941512 0.313049 0.298424
N1    N     N_2   0.950330 0.457950 0.466250 0.164738
N2    N     N_2   0.049670 0.542050 0.533750 0.159528
O1    O     O_R   0.389250 0.738570 0.508280 -0.605355
O2    O     O_R   0.164761 0.848137 0.324030 -0.750992
O3    O     O_R   0.678390 0.711630 0.486650 -0.572964
O4    O     O_R   0.355400 0.513470 0.694050 -0.591798
O5    O     O_R   0.644540 0.486530 0.672420 -0.562556
O6    O     O_R   0.321610 0.288370 0.513350 -0.568631
O7    O     O_R   0.610750 0.261430 0.491720 -0.600364
O8    O     O_R   0.355460 0.513470 0.327580 -0.587928
O9    O     O_R   0.644600 0.486530 0.305950 -0.580719
O10   O     O_2   0.084416 0.621758 0.225908 -0.511190
Zn1   Zn    Zn3+2 0.306930 0.517990 0.514440 1.139731
Zn2   Zn    Zn3+2 0.693070 0.482010 0.485560 1.148392

loop_
_geom_bond_atom_site_label_1
_geom_bond_atom_site_label_2
_ccdc_geom_bond_type
C2    O6    A    
O3    Zn2   S    
C3    O9    A    
C6    C7    A    
C1    C15   S    
C2    C16   S    
C11   C12   A    
C12   Cl1   S    
O6    Zn1   S    
O1    Zn1   S    
C7    C8    A    
C5    Cl3   S    
C13   C14   A    
C3    C14   S    
O7    Zn2   S    
O5    Zn2   S    
C17   O4    A    
C6    H2    S    
N2    Zn1   S    
N1    N2    D    
Cl4   N1    S    
O8    Zn1   S    
C16   H5    S    
C5    C6    A    
C15   H4    S    
O4    Zn1   S    
C10   C11   A    
C9    O2    S    
C4    C10   A    
C15   C16   D    
Cl2   N2    S    
N1    Zn2   S    
C9    O10   D    
C4    H1    S    
C12   C13   A    
C3    O8    A    
O9    Zn2   S    
C8    C10   A    
C17   O5    A    
C2    O7    A    
C7    C9    S    
C1    O1    A    
C8    C14   A    
H6    O2    S    
C1    O3    A    
C11   C17   S    
C13   H3    S    
C4    C5    A    
