data_mof_unit_3863.cif
_audit_creation_date              2012-10-26T19:59:14-0400
_audit_creation_method            fapswitch 2.2
_symmetry_space_group_name_H-M    P1
_symmetry_Int_Tables_number       1
_space_group_crystal_system       triclinic
_cell_length_a                    7.413104
_cell_length_b                    8.724081
_cell_length_c                    15.803101
_cell_angle_alpha                 93.961416
_cell_angle_beta                  75.127163
_cell_angle_gamma                 102.17139
_cell_volume                      965.460955956

loop_
_atom_site_label
_atom_site_type_symbol
_atom_type_description
_atom_site_fract_x
_atom_site_fract_y
_atom_site_fract_z
_atom_type_partial_charge
C1    C     C_R   0.539507 0.798813 0.505922 0.558695
C2    C     C_R   0.616006 0.511878 0.333750 0.537041
C3    C     C_R   0.313721 0.476274 0.761787 -0.012653
C4    C     C_R   0.686291 0.534745 0.239036 -0.010380
C5    C     C_R   0.068208 0.382615 0.890719 -0.132807
C6    C     C_R   0.918564 0.663848 0.115049 -0.138095
C7    C     C_R   0.124060 0.409953 0.801059 -0.143848
C8    C     C_R   0.868480 0.620991 0.202578 -0.150758
C9    C     C_R   0.444023 0.522803 0.813512 -0.147531
C10   C     C_R   0.558194 0.485988 0.186579 -0.142753
C11   C     C_R   0.390820 0.499335 0.904353 0.024732
C12   C     C_R   0.458868 0.201061 0.495409 0.550024
C13   C     C_R   0.601394 0.533827 0.099297 0.021968
C14   C     C_R   0.200713 0.423444 0.942104 0.046791
C15   C     C_R   0.786247 0.622560 0.063558 0.041038
C16   C     C_R   0.522695 0.543368 0.957833 0.025849
C17   C     C_R   0.465868 0.498299 0.047258 0.026255
C18   C     C_3   0.595669 0.026511 0.610139 -0.260171
C19   C     C_3   0.500061 0.918718 0.689030 -0.311525
C20   C     C_3   0.541394 0.995560 0.773702 -0.462702
C21   C     C_3   0.393017 0.973054 0.395144 -0.255014
C22   C     C_3   0.562082 0.948359 0.319287 -0.299367
C23   C     C_R   0.274323 0.422695 0.082094 -0.146258
C24   C     C_3   0.497072 0.893165 0.236123 -0.444859
C25   C     C_R   0.708279 0.632981 0.925271 -0.145990
C26   C     C_R   0.144900 0.387073 0.030468 -0.132519
C27   C     C_R   0.836597 0.671763 0.977334 -0.134067
C28   C     C_2   0.535444 0.960631 0.526478 -0.024335
C29   C     C_2   0.456673 0.038090 0.477982 -0.028421
C30   C     C_R   0.383971 0.488222 0.666308 0.527443
Cu1   Cu    Cu3+1 0.322120 0.483240 0.490330 0.921057
Cu2   Cu    Cu3+1 0.677880 0.516760 0.509670 0.916173
H1    H     H_    0.999560 0.329757 0.060102 0.118296
H2    H     H_    0.758277 0.679597 0.860207 0.101529
H3    H     H_    0.004215 0.615076 0.568270 0.238628
H4    H     H_    0.995808 0.384971 0.431708 0.239657
H5    H     H_    0.697471 0.025847 0.767484 0.152071
H6    H     H_    0.481505 0.103660 0.789146 0.163062
H7    H     H_    0.474792 0.912763 0.828575 0.148086
H8    H     H_    0.343259 0.889943 0.696826 0.158599
H9    H     H_    0.554641 0.808225 0.678353 0.187126
H10   H     H_    0.752959 0.041790 0.597488 0.158533
H11   H     H_    0.557745 0.141779 0.630843 0.179181
H12   H     H_    0.976917 0.741004 0.949666 0.114173
H13   H     H_    0.394228 0.779330 0.247175 0.166681
H14   H     H_    0.428710 0.981360 0.215807 0.142239
H15   H     H_    0.622070 0.877524 0.182383 0.159969
H16   H     H_    0.667473 0.060707 0.305930 0.153339
H17   H     H_    0.634187 0.859856 0.336217 0.176827
H18   H     H_    0.281212 0.865055 0.408113 0.180681
H19   H     H_    0.322793 0.057370 0.372274 0.147935
H20   H     H_    0.423853 0.412783 0.216667 0.114241
H21   H     H_    0.588786 0.571391 0.780406 0.119603
H22   H     H_    0.969258 0.660094 0.242343 0.125322
H23   H     H_    0.021122 0.373651 0.762127 0.129667
H24   H     H_    0.921973 0.326849 0.919729 0.116857
H25   H     H_    0.059693 0.732145 0.087990 0.115929
H26   H     H_    0.216875 0.392253 0.149892 0.102902
N1    N     N_2   0.945180 0.542040 0.524240 -0.260321
N2    N     N_2   0.054820 0.457960 0.475760 -0.260079
O1    O     O_R   0.384450 0.714270 0.493720 -0.513869
O2    O     O_R   0.615550 0.285730 0.506280 -0.513569
O3    O     O_R   0.684880 0.742590 0.510050 -0.503774
O4    O     O_R   0.315120 0.257410 0.489950 -0.502127
O5    O     O_R   0.265540 0.477900 0.617090 -0.502554
O6    O     O_R   0.734460 0.522100 0.382910 -0.506019
O7    O     O_R   0.565970 0.506210 0.633420 -0.515925
O8    O     O_R   0.434030 0.493790 0.366580 -0.505912

loop_
_geom_bond_atom_site_label_1
_geom_bond_atom_site_label_2
_ccdc_geom_bond_type
Cu1   N2    S    
C1    C28   S    
C2    C4    S    
C21   C29   S    
C3    C9    A    
C7    H23   S    
C12   C29   S    
C3    C30   S    
C20   H6    S    
C11   C16   A    
Cu1   O1    S    
C5    H24   S    
C22   H16   S    
Cu1   Cu2   S    
C13   C17   A    
C25   H2    S    
C4    C8    A    
C10   H20   S    
C24   H15   S    
C19   C20   S    
C13   C15   A    
C24   H14   S    
N1    N2    D    
C21   C22   S    
C14   C26   A    
C20   H5    S    
C9    C11   A    
C6    H25   S    
C5    C14   A    
C17   C23   A    
C8    H22   S    
Cu2   O7    S    
C24   H13   S    
C1    O3    A    
H3    N1    S    
C28   C29   D    
C23   H26   S    
C3    C7    A    
C18   H10   S    
C25   C27   A    
C12   O4    A    
C11   C14   A    
C22   C24   S    
C27   H12   S    
C30   O5    A    
C9    H21   S    
C12   O2    A    
C4    C10   A    
C19   H9    S    
C21   H19   S    
C18   C28   S    
Cu1   O8    S    
Cu2   O3    S    
Cu2   O6    S    
C18   C19   S    
C19   H8    S    
C23   C26   A    
C22   H17   S    
C16   C25   A    
C5    C7    A    
C20   H7    S    
Cu1   O5    S    
C21   H18   S    
C6    C8    A    
Cu2   O2    S    
Cu2   N1    S    
H4    N2    S    
C6    C15   A    
C18   H11   S    
C2    O8    A    
C15   C27   A    
Cu1   O4    S    
C30   O7    A    
C26   H1    S    
C16   C17   A    
C2    O6    A    
C10   C13   A    
C1    O1    A    
