data_mof_unit_2715.cif
_audit_creation_date              2012-12-11T14:56:35-0500
_audit_creation_method            fapswitch 2.2
_symmetry_space_group_name_H-M    P1
_symmetry_Int_Tables_number       1
_space_group_crystal_system       triclinic
_cell_length_a                    10.551742
_cell_length_b                    10.642796
_cell_length_c                    17.02202
_cell_angle_alpha                 80.261285
_cell_angle_beta                  90.159136
_cell_angle_gamma                 119.448703
_cell_volume                      1633.39089397

loop_
_atom_site_label
_atom_site_type_symbol
_atom_type_description
_atom_site_fract_x
_atom_site_fract_y
_atom_site_fract_z
_atom_type_partial_charge
C1    C     C_R   0.221514 0.853332 0.128532 0.542516
C2    C     C_R   0.827074 0.460983 0.253149 -0.159798
C3    C     C_R   0.806749 0.424225 0.178213 -0.180518
C4    C     C_R   0.666708 0.363632 0.150909 0.031722
C5    C     C_1   0.634425 0.872623 0.211325 -0.027128
C6    C     C_1   0.661017 0.856540 0.279205 -0.024890
C7    C     C_1   0.180485 0.825128 0.211269 -0.027581
C8    C     C_1   0.152015 0.820022 0.279979 -0.024513
C9    C     C_1   0.661474 0.357907 0.780477 -0.022912
C10   C     C_1   0.684624 0.402122 0.709878 -0.008581
C11   C     C_R   0.493183 0.778514 0.773074 0.215783
C12   C     C_R   0.638397 0.282474 0.085847 0.557432
C13   C     C_R   0.509463 0.768015 0.694221 -0.174015
C14   C     C_R   0.642625 0.861027 0.648000 0.033816
C15   C     C_R   0.750302 0.986697 0.674458 0.233448
C16   C     C_R   0.730187 0.003534 0.752633 -0.172687
C17   C     C_R   0.607515 0.894190 0.803598 0.010500
C18   C     C_R   0.249571 0.966988 0.759171 -0.138582
C19   C     C_R   0.237320 0.952663 0.680540 -0.158999
C20   C     C_R   0.162179 0.812809 0.662086 0.012430
C21   C     C_R   0.111692 0.685484 0.723556 0.212363
C22   C     C_R   0.117265 0.701396 0.802693 -0.042935
C23   C     C_R   0.600896 0.882471 0.130899 0.557036
C24   C     C_R   0.186300 0.841497 0.820308 0.007232
C25   C     C_R   0.683002 0.813669 0.358746 0.543057
C26   C     C_R   0.727623 0.460851 0.383262 0.567449
C27   C     C_R   0.104820 0.810785 0.359441 0.543422
C28   C     C_R   0.674085 0.806996 0.581495 0.566202
C29   C     C_R   0.717571 0.446346 0.625951 0.583617
C30   C     C_R   0.101579 0.801751 0.585744 0.542088
C31   C     C_R   0.221315 0.862449 0.899998 0.537049
C32   C     C_R   0.640097 0.290582 0.861922 0.536439
C33   C     C_R   0.598329 0.895361 0.889060 0.593697
C34   C     C_R   0.551971 0.360213 0.194640 0.374628
C35   C     C_R   0.573515 0.399624 0.269304 -0.080878
C36   C     C_R   0.708628 0.440695 0.300818 -0.040321
Cr1   Cr    Cr6+3 0.402240 0.783890 0.019450 1.081100
Cr2   Cr    Cr6+3 0.382360 0.097900 0.991800 1.083990
Cr3   Cr    Cr6+3 0.715380 0.118170 0.988700 1.041240
Cr4   Cr    Cr6+3 0.936650 0.882420 0.465510 1.080107
Cr5   Cr    Cr6+3 0.605770 0.565620 0.493360 1.022541
Cr6   Cr    Cr6+3 0.921340 0.550490 0.496380 1.042649
H1    H     H_    0.279308 0.050905 0.634376 0.154383
H2    H     H_    0.075834 0.605112 0.850177 0.161054
H3    H     H_    0.481939 0.389285 0.304073 0.168312
H4    H     H_    0.933614 0.498593 0.275390 0.149825
H5    H     H_    0.898500 0.432898 0.144434 0.160565
H6    H     H_    0.422746 0.676364 0.672147 0.129215
H7    H     H_    0.814534 0.096239 0.775073 0.148082
H8    H     H_    0.309929 0.076877 0.772059 0.150858
O1    O     O_R   0.521780 0.757110 0.108900 -0.477788
O2    O     O_R   0.513330 0.228330 0.898660 -0.505266
O3    O     O_R   0.739230 0.266130 0.888050 -0.509152
O4    O     O_R   0.712580 0.991850 0.918770 -0.507490
O5    O     O_3   0.499990 0.999980 0.999980 -0.324806
O6    O     O_R   0.083770 0.911170 0.376030 -0.485156
O7    O     O_R   0.808770 0.880340 0.383890 -0.488146
O8    O     O_R   0.584340 0.689460 0.394160 -0.520466
O9    O     O_R   0.614320 0.443940 0.423590 -0.497437
O10   O     O_R   0.805020 0.410040 0.421340 -0.487154
O11   O     O_R   0.049240 0.685450 0.403290 -0.528376
O12   O     O_R   0.275160 0.783810 0.101120 -0.522367
O13   O     O_R   0.077520 0.903010 0.551800 -0.496559
O14   O     O_R   0.802980 0.872780 0.546830 -0.432365
O15   O     O_R   0.578090 0.681300 0.569920 -0.547798
O16   O     O_R   0.608530 0.436370 0.586530 -0.500003
O17   O     O_R   0.798770 0.401880 0.597100 -0.463793
O18   O     O_R   0.043450 0.677890 0.566230 -0.509000
O19   O     O_3   0.821250 0.666180 0.485090 -0.309431
O20   O     O_R   0.237900 0.972600 0.090980 -0.463315
O21   O     O_R   0.511190 0.220540 0.061620 -0.427048
O22   O     O_R   0.736920 0.257720 0.063840 -0.539990
O23   O     O_R   0.710450 0.984050 0.081720 -0.477487
O24   O     O_R   0.524090 0.765520 0.933110 -0.425105
O25   O     O_R   0.277300 0.791600 0.938160 -0.483848
O26   O     O_R   0.240210 0.981010 0.915190 -0.518153
F1    F     F_    0.416691 0.308449 0.168611 -0.604852
O27   O     O_3   0.053615 0.545045 0.708981 -0.698852
H9    H     H_    0.116085 0.549684 0.663960 0.331308
O28   O     O_3   0.371258 0.670554 0.822605 -0.668745
H10   H     H_    0.311321 0.589207 0.794255 0.327923
O29   O     O_3   0.875853 0.086659 0.625177 -0.659188
H11   H     H_    0.938925 0.167237 0.653316 0.328394

loop_
_geom_bond_atom_site_label_1
_geom_bond_atom_site_label_2
_ccdc_geom_bond_type
Cr1   O24   S    
Cr2   O20   S    
C19   C20   A    
C1    O12   A    
Cr1   O12   S    
C7    C8    T    
C20   C30   S    
C2    H4    S    
Cr4   O13   S    
C25   O7    A    
C18   C24   A    
C21   C22   A    
Cr3   O4    S    
Cr5   O8    S    
C34   C35   A    
C34   F1    S    
C5    C6    T    
Cr1   O1    S    
C6    C25   S    
Cr2   O2    S    
C15   C16   A    
C18   C19   A    
C32   O2    A    
C27   O11   A    
C9    C32   S    
C29   O17   A    
C23   O1    A    
C22   H2    S    
Cr2   O5    S    
C35   C36   A    
C16   C17   A    
Cr4   O6    S    
C21   O27   S    
Cr3   O22   S    
C4    C12   S    
C26   O9    A    
Cr3   O5    S    
C12   O22   A    
C1    C7    S    
C13   C14   A    
Cr2   O26   S    
Cr6   O18   S    
C17   C33   S    
C23   O23   A    
C19   H1    S    
C15   O29   S    
C4    C34   A    
Cr4   O19   S    
C16   H7    S    
Cr5   O9    S    
Cr6   O10   S    
O27   H9    S    
Cr5   O15   S    
Cr6   O19   S    
C31   O25   A    
C5    C23   S    
Cr6   O11   S    
C28   O14   A    
C26   C36   S    
C12   O21   A    
Cr6   O17   S    
C22   C24   A    
C25   O8    A    
C3    C4    A    
C35   H3    S    
C32   O3    A    
C18   H8    S    
Cr5   O19   S    
C9    C10   T    
C2    C36   A    
C33   O4    A    
Cr2   O21   S    
C11   C17   A    
Cr4   O7    S    
C27   O6    A    
O28   H10   S    
C13   H6    S    
Cr5   O16   S    
C1    O20   A    
Cr4   O14   S    
C2    C3    A    
C24   C31   S    
C11   C13   A    
C10   C29   S    
C31   O26   A    
Cr3   O3    S    
C3    H5    S    
C28   O15   A    
Cr3   O23   S    
Cr1   O25   S    
C11   O28   S    
C29   O16   A    
Cr1   O5    S    
C33   O24   A    
C20   C21   A    
O29   H11   S    
C8    C27   S    
C14   C15   A    
C14   C28   S    
C30   O13   A    
C26   O10   A    
C30   O18   A    
