data_mof_unit_1091.cif
_audit_creation_date              2012-10-26T19:25:21-0400
_audit_creation_method            fapswitch 2.2
_symmetry_space_group_name_H-M    P1
_symmetry_Int_Tables_number       1
_space_group_crystal_system       triclinic
_cell_length_a                    12.477508
_cell_length_b                    13.287974
_cell_length_c                    19.32883
_cell_angle_alpha                 74.970311
_cell_angle_beta                  101.637816
_cell_angle_gamma                 117.91734
_cell_volume                      2722.77275671

loop_
_atom_site_label
_atom_site_type_symbol
_atom_type_description
_atom_site_fract_x
_atom_site_fract_y
_atom_site_fract_z
_atom_type_partial_charge
C1    C     C_R   0.854611 0.285418 0.509225 0.588168
C2    C     C_R   0.011696 0.528915 0.142212 0.007555
C3    C     C_R   0.315857 0.007412 0.378439 0.247365
C4    C     C_R   0.005053 0.506297 0.631798 0.577794
C5    C     C_R   0.233394 0.836089 0.471018 -0.010612
C6    C     C_R   0.788121 0.109635 0.602170 -0.074325
C7    C     C_R   0.689516 0.024007 0.638347 0.134186
C8    C     C_R   0.572209 0.989414 0.602468 0.139133
C9    C     C_R   0.559364 0.019261 0.525714 0.021216
C10   C     C_R   0.663180 0.103181 0.489028 0.000579
C11   C     C_R   0.446136 0.975312 0.484377 -0.030869
C12   C     C_R   0.014875 0.520122 0.706841 -0.014164
C13   C     C_R   0.434434 0.027751 0.411561 0.015513
C14   C     C_R   0.539105 0.081443 0.373422 0.264400
C15   C     C_R   0.655146 0.123710 0.412878 0.083448
C16   C     C_R   0.145820 0.713806 0.488276 0.560606
C17   C     C_R   0.347671 0.871882 0.510011 -0.100689
C18   C     C_R   0.215854 0.909662 0.408158 -0.078158
C19   C     C_R   0.773070 0.160165 0.530211 0.030753
C20   C     C_R   0.382392 0.396198 0.639216 0.098931
C21   C     C_R   0.739192 0.621528 0.391350 0.402258
C22   C     C_R   0.620412 0.594636 0.357212 0.117833
C23   C     C_R   0.017347 0.528975 0.067050 0.384314
C24   C     C_R   0.522729 0.533203 0.398581 -0.117439
C25   C     C_R   0.543340 0.512715 0.473331 -0.050349
C26   C     C_R   0.656792 0.509580 0.502319 0.131298
C27   C     C_R   0.451819 0.483251 0.519654 -0.026404
C28   C     C_R   0.998113 0.498859 0.367445 0.567461
C29   C     C_R   0.477524 0.451094 0.594124 -0.021645
C30   C     C_R   0.595687 0.463963 0.620411 -0.079022
C31   C     C_R   0.662730 0.454273 0.575305 0.226772
C32   C     C_R   0.341835 0.495869 0.497362 0.205359
C33   C     C_R   0.264052 0.379375 0.608647 0.242873
C34   C     C_R   0.021001 0.534039 0.926659 0.373637
C35   C     C_R   0.122526 0.540744 0.754285 0.094648
C36   C     C_R   0.122699 0.546300 0.825492 -0.109477
C37   C     C_R   0.020216 0.538420 0.849804 -0.002377
C38   C     C_R   0.918188 0.532456 0.800427 0.251357
C39   C     C_R   0.915210 0.519376 0.730600 -0.087755
C40   C     C_R   0.107816 0.525108 0.192650 -0.128999
C41   C     C_R   0.101675 0.514419 0.265314 -0.116940
C42   C     C_R   0.997255 0.502611 0.289934 -0.006249
C43   C     C_R   0.896084 0.499263 0.239468 0.127918
C44   C     C_R   0.907927 0.523519 0.165005 0.252388
Cu1   Cu    Cu3+1 0.098280 0.475420 0.516260 1.059398
Cu2   Cu    Cu3+1 0.901720 0.524580 0.483740 1.144985
H1    H     H_    0.362394 0.812878 0.556915 0.168555
H2    H     H_    0.487811 0.168920 0.190831 0.408595
H3    H     H_    0.104882 0.073382 0.325712 0.358238
H4    H     H_    0.885052 0.912646 0.280606 0.380587
H5    H     H_    0.496138 0.248425 0.507115 0.354122
H6    H     H_    0.662486 0.607054 0.761690 0.389603
H7    H     H_    0.798726 0.666357 0.996754 0.405766
H8    H     H_    0.872044 0.148682 0.633943 0.171294
H9    H     H_    0.617129 0.440026 0.677291 0.201510
H10   H     H_    0.203749 0.557086 0.862193 0.182853
H11   H     H_    0.431552 0.507786 0.372037 0.165839
H12   H     H_    0.834951 0.510831 0.694136 0.173421
H13   H     H_    0.187768 0.529305 0.175771 0.177048
H14   H     H_    0.178563 0.513084 0.302392 0.180366
H15   H     H_    0.127471 0.887712 0.379003 0.208057
I1    I     I_    0.294065 0.578431 0.724105 -0.242123
I2    I     I_    0.426386 0.931664 0.668241 -0.146724
I3    I     I_    0.724791 0.968533 0.750417 -0.096194
I4    I     I_    0.819163 0.191585 0.361325 -0.160534
I5    I     I_    0.116627 0.260364 0.670179 -0.173134
I6    I     I_    0.413866 0.329188 0.751649 -0.071974
I7    I     I_    0.353308 0.643505 0.414052 -0.264523
I8    I     I_    0.575805 0.645164 0.245536 -0.005995
I9    I     I_    0.717919 0.433572 0.273555 -0.033878
N1    N     N_R   0.922204 0.456204 0.962072 -0.106970
N2    N     N_R   0.920378 0.453725 0.030990 -0.111574
N3    N     N_R   0.118295 0.603931 0.032544 -0.167538
N4    N     N_R   0.120101 0.606372 0.963424 -0.178179
N5    N     N_R   0.246290 0.438200 0.540910 -0.244856
N6    N     N_R   0.754310 0.561190 0.459520 -0.266539
O1    O     O_R   0.972510 0.318130 0.520450 -0.495312
O2    O     O_2   0.398261 0.968658 0.264880 -0.231866
O3    O     O_3   0.562124 0.179744 0.224357 -0.426127
O4    O     O_2   0.401939 0.221958 0.295839 -0.217103
O5    O     O_2   0.236831 0.064109 0.240420 -0.207550
O6    O     O_3   0.184537 0.140227 0.333411 -0.484336
O7    O     O_2   0.925233 0.817839 0.418444 -0.299670
O8    O     O_2   0.946160 0.733046 0.325467 -0.284502
O9    O     O_3   0.810538 0.840803 0.294094 -0.451258
O10   O     O_2   0.749054 0.296037 0.627449 -0.277717
O11   O     O_2   0.540332 0.234385 0.647336 -0.244773
O12   O     O_R   0.806530 0.359650 0.492990 -0.414255
O13   O     O_3   0.579739 0.254389 0.517826 -0.522333
O14   O     O_2   0.703279 0.435042 0.854559 -0.200794
O15   O     O_2   0.844553 0.632294 0.873520 -0.212901
O16   O     O_3   0.733608 0.607021 0.746388 -0.544876
O17   O     O_2   0.695220 0.445999 0.083064 -0.185569
O18   O     O_2   0.750228 0.618824 0.131721 -0.211941
O19   O     O_3   0.861917 0.643649 0.025552 -0.455806
O20   O     O_R   0.083010 0.479220 0.613590 -0.469101
O21   O     O_R   0.917030 0.520740 0.586130 -0.499248
O22   O     O_R   0.193470 0.640350 0.507010 -0.491291
O23   O     O_R   0.027490 0.681870 0.479550 -0.435778
O24   O     O_R   0.082970 0.479260 0.413870 -0.491109
O25   O     O_R   0.916990 0.520780 0.386410 -0.467259
O26   O     O_2   0.609700 0.004773 0.282515 -0.180244
S1    S     S_3+6 0.525225 0.055082 0.285045 0.120468
S2    S     S_3+6 0.287429 0.111078 0.308837 0.071876
S3    S     S_3+6 0.860127 0.754430 0.357265 0.061046
S4    S     S_3+6 0.634458 0.306642 0.594421 0.022758
S5    S     S_3+6 0.797460 0.550896 0.821506 0.064052
S6    S     S_3+6 0.798622 0.556745 0.101114 0.110727

loop_
_geom_bond_atom_site_label_1
_geom_bond_atom_site_label_2
_ccdc_geom_bond_type
C3    S2    S    
Cu2   O23   S    
H7    O19   S    
C34   C37   S    
C1    O1    A    
C41   C42   A    
C20   I6    S    
C35   C36   A    
C32   N5    A    
Cu2   N6    S    
C7    C8    A    
Cu1   Cu2   S    
C6    C19   A    
C21   N6    A    
O18   S6    D    
C29   C30   A    
O4    S2    D    
H2    O3    S    
C36   C37   A    
C23   N3    A    
O14   S5    D    
C10   C15   A    
O17   S6    D    
C30   C31   A    
C5    C17   A    
C15   I4    S    
C27   C29   A    
C3    C18   A    
N3    N4    A    
C38   S5    S    
C5    C16   S    
H4    O9    S    
C4    O20   A    
C28   O25   A    
C33   N5    A    
C2    C44   A    
C24   H11   S    
O13   S4    S    
C26   N6    A    
C4    C12   S    
C9    C10   A    
C22   I8    S    
C3    C13   A    
C32   I7    S    
C28   O24   A    
C1    O12   A    
O2    S1    D    
C26   C31   A    
C40   H13   S    
C13   C14   A    
O3    S1    S    
O10   S4    D    
C6    H8    S    
O9    S3    S    
C33   I5    S    
Cu2   O12   S    
C20   C29   A    
C44   S6    S    
Cu2   O25   S    
C1    C19   S    
O15   S5    D    
C24   C25   A    
C8    C9    A    
C5    C18   A    
C25   C26   A    
C39   H12   S    
O7    S3    D    
H3    O6    S    
C43   C44   A    
C37   C38   A    
C36   H10   S    
C4    O21   A    
O16   S5    S    
C10   C19   A    
O8    S3    D    
C16   O23   A    
C12   C35   A    
C9    C11   A    
C34   N4    A    
C20   C33   A    
C40   C41   A    
Cu2   O21   S    
C43   I9    S    
C31   S4    S    
C22   C24   A    
H6    O16   S    
C42   C43   A    
C11   C17   A    
C27   C32   A    
C23   N2    A    
C17   H1    S    
C41   H14   S    
Cu1   O24   S    
C18   H15   S    
C6    C7    A    
C25   C27   A    
C30   H9    S    
Cu1   N5    S    
C12   C39   A    
Cu1   O22   S    
N1    N2    A    
H5    O13   S    
C11   C13   A    
C16   O22   A    
C14   S1    S    
C38   C39   A    
O11   S4    D    
C28   C42   S    
C35   I1    S    
O26   S1    D    
C7    I3    S    
O19   S6    S    
C8    I2    S    
C2    C40   A    
C2    C23   S    
O6    S2    S    
C14   C15   A    
Cu1   O1    S    
C21   C22   A    
Cu1   O20   S    
C34   N1    A    
C21   S3    S    
O5    S2    D    
