data_mof_unit_3174.cif
_audit_creation_date              2012-10-26T18:40:23-0400
_audit_creation_method            fapswitch 2.2
_symmetry_space_group_name_H-M    P1
_symmetry_Int_Tables_number       1
_space_group_crystal_system       triclinic
_cell_length_a                    8.720824
_cell_length_b                    15.148475
_cell_length_c                    13.961293
_cell_angle_alpha                 89.945121
_cell_angle_beta                  98.199221
_cell_angle_gamma                 92.453145
_cell_volume                      1823.83640071

loop_
_atom_site_label
_atom_site_type_symbol
_atom_type_description
_atom_site_fract_x
_atom_site_fract_y
_atom_site_fract_z
_atom_type_partial_charge
C1    C     C_R   0.514877 0.330385 0.501264 0.557550
C2    C     C_R   0.561505 0.575582 0.897067 -0.003459
C3    C     C_R   0.487384 0.504249 0.053280 -0.075423
C4    C     C_R   0.488956 0.505698 0.944050 -0.085529
C5    C     C_R   0.203831 0.499137 0.475126 0.556319
C6    C     C_R   0.796200 0.500050 0.524946 0.547247
C7    C     C_2   0.037675 0.497318 0.461739 -0.105171
C8    C     C_2   0.962421 0.500424 0.538588 -0.123492
C9    C     C_R   0.556802 0.095758 0.590520 -0.025306
C10   C     C_R   0.478784 0.906100 0.410647 -0.091608
C11   C     C_R   0.561639 0.187391 0.592066 0.257474
C12   C     C_R   0.489059 0.670031 0.498738 0.548540
C13   C     C_R   0.472536 0.814702 0.408677 0.236791
C14   C     C_R   0.547553 0.234517 0.503711 -0.033609
C15   C     C_R   0.466401 0.766944 0.495506 -0.021903
C16   C     C_R   0.574570 0.188121 0.419041 -0.020208
C17   C     C_R   0.430660 0.813716 0.577515 -0.050723
C18   C     C_R   0.590554 0.095383 0.423628 0.009248
C19   C     C_R   0.429572 0.907349 0.575265 0.023934
C20   C     C_R   0.541082 0.049149 0.502938 -0.039214
C21   C     C_R   0.486498 0.953014 0.497600 -0.010908
C22   C     C_2   0.596014 0.235600 0.328590 0.324488
C23   C     C_R   0.617092 0.537399 0.116336 -0.091276
C24   C     C_2   0.378328 0.765135 0.660394 0.234598
C25   C     C_2   0.695012 0.051012 0.364063 0.269355
C26   C     C_2   0.338444 0.953844 0.640838 0.258462
C27   C     C_2   0.259022 0.404905 0.241466 0.369435
C28   C     C_2   0.721137 0.611129 0.765362 0.355637
C29   C     C_2   0.211718 0.444779 0.034139 0.276289
C30   C     C_2   0.591317 0.664142 0.945209 0.300143
C31   C     C_R   0.420935 0.435021 0.885151 -0.083891
C32   C     C_R   0.615718 0.542090 0.216536 0.402950
C33   C     C_R   0.412316 0.438528 0.784169 0.403612
C34   C     C_R   0.376660 0.459282 0.199149 0.136851
C35   C     C_R   0.587112 0.563161 0.799247 0.150143
C36   C     C_R   0.361171 0.468134 0.096256 -0.004719
Cl1   Cl    Cl    0.591485 0.237165 0.707806 -0.445848
Cl2   Cl    Cl    0.472017 0.766585 0.293334 -0.467705
Cl3   Cl    Cl    0.761858 0.609679 0.282690 -0.490994
Cl4   Cl    Cl    0.282765 0.362615 0.716191 -0.461138
Cu1   Cu    Cu3+1 0.500000 0.499990 0.596430 1.060647
Cu2   Cu    Cu3+1 0.500000 0.500010 0.403570 1.073130
H1    H     H_    0.977175 0.493051 0.388234 0.201120
H2    H     H_    0.339075 0.933685 0.715286 0.189852
H3    H     H_    0.292671 0.348141 0.285282 0.142692
H4    H     H_    0.717603 0.636173 0.693160 0.151902
H5    H     H_    0.168731 0.488524 0.975697 0.138378
H6    H     H_    0.548912 0.676889 0.012924 0.143790
H7    H     H_    0.023081 0.503887 0.612222 0.168496
H8    H     H_    0.564749 0.061440 0.658789 0.174311
H9    H     H_    0.479079 0.939881 0.342600 0.182405
H10   H     H_    0.718045 0.564248 0.087565 0.165326
H11   H     H_    0.368053 0.378099 0.916268 0.187708
H12   H     H_    0.676670 0.292386 0.330557 0.130257
H13   H     H_    0.294833 0.709713 0.647345 0.135899
H14   H     H_    0.746494 0.989703 0.389301 0.129162
N1    N     N_R   0.500000 0.500020 0.258690 -0.261495
N2    N     N_R   0.500000 0.499980 0.741310 -0.267876
O1    O     O_R   0.500010 0.371450 0.581430 -0.386700
O2    O     O_2   0.431370 0.785006 0.743580 -0.464077
O3    O     O_2   0.727950 0.081767 0.288440 -0.395818
O4    O     O_2   0.256512 0.014134 0.610579 -0.452830
O5    O     O_2   0.122776 0.423630 0.228354 -0.456267
O6    O     O_2   0.843296 0.621465 0.819800 -0.466445
O7    O     O_2   0.140279 0.375008 0.043776 -0.407261
O8    O     O_2   0.655812 0.725672 0.908205 -0.381887
O9    O     O_R   0.499990 0.628550 0.418570 -0.395331
O10   O     O_R   0.500010 0.371460 0.418560 -0.578468
O11   O     O_R   0.499990 0.628540 0.581440 -0.572789
O12   O     O_R   0.274840 0.499990 0.562640 -0.483376
O13   O     O_R   0.725160 0.500010 0.437360 -0.469506
O14   O     O_R   0.274840 0.500000 0.399770 -0.488429
O15   O     O_R   0.725160 0.500000 0.600230 -0.517848
O16   O     O_2   0.521560 0.212133 0.251387 -0.415616

loop_
_geom_bond_atom_site_label_1
_geom_bond_atom_site_label_2
_ccdc_geom_bond_type
C2    C35   A    
C28   C35   S    
C34   N1    A    
C2    C4    A    
C12   O11   A    
C31   C33   A    
C11   Cl1   S    
C5    O12   A    
C7    H1    S    
C5    C7    S    
Cu1   Cu2   S    
C9    C20   A    
C3    C23   A    
C25   H14   S    
C2    C30   S    
C24   O2    D    
C23   C32   A    
C27   H3    S    
Cu2   O14   S    
C12   C15   S    
C26   O4    D    
C26   H2    S    
C7    C8    D    
C22   H12   S    
C25   O3    D    
C31   H11   S    
C24   H13   S    
Cu2   O10   S    
C9    C11   A    
C29   C36   S    
C28   H4    S    
C23   H10   S    
C33   N2    A    
C18   C25   S    
C27   O5    D    
C32   N1    A    
C29   H5    S    
C35   N2    A    
C29   O7    D    
C10   H9    S    
C3    C36   A    
Cu2   N1    S    
C30   H6    S    
Cu2   O13   S    
C17   C19   A    
C34   C36   A    
C13   Cl2   S    
Cu1   N2    S    
C5    O14   A    
C18   C20   A    
C1    O1    A    
C13   C15   A    
C6    O13   A    
C12   O9    A    
C14   C16   A    
C4    C31   A    
Cu2   O9    S    
C22   O16   D    
Cu1   O15   S    
C3    C4    S    
C17   C24   S    
C28   O6    D    
C1    O10   A    
C20   C21   S    
Cu1   O1    S    
C6    O15   A    
C16   C18   A    
C32   Cl3   S    
C27   C34   S    
C11   C14   A    
C15   C17   A    
C19   C26   S    
C33   Cl4   S    
C6    C8    S    
C1    C14   S    
C19   C21   A    
Cu1   O11   S    
C10   C21   A    
C8    H7    S    
C9    H8    S    
C30   O8    D    
C16   C22   S    
Cu1   O12   S    
C10   C13   A    
