data_mof_unit_2206.cif
_audit_creation_date              2012-12-10T19:42:13-0500
_audit_creation_method            fapswitch 2.2
_symmetry_space_group_name_H-M    P1
_symmetry_Int_Tables_number       1
_space_group_crystal_system       triclinic
_cell_length_a                    11.054281
_cell_length_b                    10.999069
_cell_length_c                    9.886373
_cell_angle_alpha                 89.265712
_cell_angle_beta                  90.397281
_cell_angle_gamma                 88.184452
_cell_volume                      1201.31795878

loop_
_atom_site_label
_atom_site_type_symbol
_atom_type_description
_atom_site_fract_x
_atom_site_fract_y
_atom_site_fract_z
_atom_type_partial_charge
C1    C     C_R   0.508100 0.264842 0.501019 0.729201
C2    C     C_R   0.199855 0.577642 0.981892 -0.266749
C3    C     C_R   0.932527 0.535206 0.383828 -0.256037
C4    C     C_R   0.871548 0.508136 0.503400 -0.101691
C5    C     C_R   0.940756 0.486171 0.622640 0.048553
C6    C     C_R   0.066930 0.488163 0.618680 -0.279882
C7    C     C_R   0.128126 0.506849 0.497338 -0.104748
C8    C     C_R   0.058898 0.526922 0.377531 0.118573
C9    C     C_R   0.870499 0.537080 0.857925 0.118163
C10   C     C_R   0.811438 0.499059 0.976167 -0.348827
C11   C     C_R   0.773443 0.379285 0.991075 0.420392
C12   C     C_R   0.262572 0.502335 0.499132 0.774113
C13   C     C_R   0.791724 0.295790 0.887203 0.461317
C14   C     C_R   0.842725 0.334549 0.765622 -0.347011
C15   C     C_R   0.885002 0.452691 0.751969 0.035496
C16   C     C_2   0.567065 0.922470 0.431451 -0.128705
C17   C     C_2   0.480411 0.863005 0.493872 -0.312621
C18   C     C_2   0.562202 0.055335 0.409312 0.054419
C19   C     C_2   0.521391 0.129965 0.510541 0.256182
C20   C     C_2   0.465225 0.409444 0.928161 0.328958
C21   C     C_2   0.440690 0.426144 0.078129 0.061350
C22   C     C_R   0.491475 0.732725 0.499042 0.805217
C23   C     C_R   0.737310 0.502750 0.500856 0.758624
C24   C     C_R   0.195532 0.674234 0.071808 0.506690
C25   C     C_R   0.148846 0.655632 0.201574 -0.341155
C26   C     C_R   0.114344 0.539817 0.243438 -0.072630
C27   C     C_R   0.129673 0.439015 0.156425 0.408911
C28   C     C_R   0.166790 0.460576 0.020965 0.343074
Cu1   Cu    Cu3+1 0.500020 0.500020 0.638630 0.978253
Cu2   Cu    Cu3+1 0.499980 0.499980 0.361370 0.937802
H1    H     H_    0.231727 0.593286 0.880048 0.214939
H2    H     H_    0.851313 0.272440 0.681829 0.143573
H3    H     H_    0.644694 0.870563 0.393471 0.151638
H4    H     H_    0.400505 0.908155 0.535309 0.186915
H5    H     H_    0.378764 0.368022 0.128436 0.138018
H6    H     H_    0.569495 0.541533 0.108992 0.236765
H7    H     H_    0.136200 0.731781 0.268942 0.160171
H8    H     H_    0.881481 0.559945 0.293159 0.150011
H9    H     H_    0.117550 0.470866 0.710989 0.209281
H10   H     H_    0.794777 0.560504 0.058762 0.172696
N1    N     N_2   0.498640 0.498660 0.846910 -0.037972
N2    N     N_2   0.498610 0.498630 0.153040 -0.289528
O1    O     O_R   0.500020 0.321960 0.617040 -0.588229
O2    O     O_R   0.499980 0.321920 0.382900 -0.610676
O3    O     O_R   0.319660 0.500030 0.617070 -0.567474
O4    O     O_R   0.319620 0.499990 0.382930 -0.586412
O5    O     O_R   0.500020 0.678080 0.617100 -0.559549
O6    O     O_R   0.499980 0.678040 0.382960 -0.583531
O7    O     O_R   0.680380 0.500010 0.617070 -0.590616
O8    O     O_R   0.680340 0.499970 0.382930 -0.569294
O9    O     O_3   0.721272 0.342680 0.110336 -0.580870
C29   C     C_3   0.815214 0.307718 0.200790 -0.257636
H11   H     H_    0.779084 0.303018 0.304624 0.172558
H12   H     H_    0.886449 0.375049 0.203101 0.198325
H13   H     H_    0.855023 0.217310 0.174315 0.187659
O10   O     O_3   0.754675 0.178230 0.905367 -0.605418
C30   C     C_3   0.854410 0.095253 0.897973 -0.452368
H14   H     H_    0.920679 0.110076 0.980504 0.185409
H15   H     H_    0.899171 0.097385 0.797795 0.168401
H16   H     H_    0.820368 0.002395 0.911728 0.198954
C31   C     C_3   0.632888 0.098652 0.288353 -0.419810
C32   C     C_3   0.635837 0.008827 0.170517 -0.859862
H17   H     H_    0.703046 0.933244 0.189102 0.237932
H18   H     H_    0.545126 0.971582 0.152788 0.246388
H19   H     H_    0.663252 0.055766 0.077351 0.305205
H20   H     H_    0.596264 0.185594 0.247806 0.271298
H21   H     H_    0.727151 0.109396 0.323645 0.188909
O11   O     O_3   0.496706 0.080349 0.637224 -0.589700
C33   C     C_3   0.606977 0.046325 0.703268 -0.289238
H22   H     H_    0.679128 0.112510 0.683811 0.183584
H23   H     H_    0.640085 0.954368 0.674047 0.157114
H24   H     H_    0.591171 0.040386 0.813411 0.215626
C34   C     C_3   0.449552 0.282447 0.874849 -0.286334
C35   C     C_3   0.419080 0.183049 0.977508 -0.917981
H25   H     H_    0.488468 0.178507 0.057538 0.274192
H26   H     H_    0.329995 0.199378 0.024476 0.273451
H27   H     H_    0.416483 0.093962 0.926657 0.266776
H28   H     H_    0.375668 0.284936 0.798334 0.272424
H29   H     H_    0.537697 0.253400 0.832520 0.253865
O12   O     O_3   0.472073 0.609839 0.897788 -0.508748
C36   C     C_3   0.572988 0.683898 0.882108 -0.138289
H30   H     H_    0.541552 0.774319 0.842289 0.169573
H31   H     H_    0.643857 0.646425 0.813933 0.190255
H32   H     H_    0.613875 0.700486 0.982343 0.088975
O13   O     O_3   0.225791 0.788425 0.025241 -0.570019
C37   C     C_3   0.318649 0.834278 0.106799 -0.260606
H33   H     H_    0.394463 0.766367 0.123292 0.193003
H34   H     H_    0.282771 0.866754 0.205067 0.145876
H35   H     H_    0.356196 0.913728 0.053684 0.172211
O14   O     O_3   0.093759 0.323790 0.194878 -0.629423
C38   C     C_3   0.171457 0.268630 0.292969 -0.343828
H36   H     H_    0.132539 0.280288 0.395124 0.180437
H37   H     H_    0.265239 0.300444 0.290601 0.183399
H38   H     H_    0.176817 0.169464 0.273832 0.175109
O15   O     O_3   0.190358 0.369095 0.928122 -0.611090
C39   C     C_3   0.101150 0.280759 0.924481 -0.258601
H39   H     H_    0.012852 0.315201 0.961343 0.175059
H40   H     H_    0.130148 0.199258 0.984799 0.197422
H41   H     H_    0.089547 0.251581 0.818360 0.167128
C40   C     C_3   0.914381 0.666130 0.839110 -0.363587
C41   C     C_3   0.903420 0.748389 0.962284 -0.874414
H42   H     H_    0.807592 0.775259 0.980621 0.225870
H43   H     H_    0.942086 0.702605 0.053845 0.260975
H44   H     H_    0.954805 0.831934 0.943671 0.262307
H45   H     H_    0.011310 0.661365 0.810950 0.217104
H46   H     H_    0.863749 0.710595 0.753437 0.189091

loop_
_geom_bond_atom_site_label_1
_geom_bond_atom_site_label_2
_ccdc_geom_bond_type
C22   O6    A    
C41   H42   S    
C8    C26   S    
C34   C35   S    
H6    N2    S    
O15   C39   S    
N1    O12   S    
C36   H30   S    
C30   H14   S    
C7    C8    A    
Cu1   O7    S    
O13   C37   S    
C26   C27   A    
C32   H17   S    
C35   H26   S    
Cu1   O5    S    
C28   O15   S    
Cu2   O6    S    
C5    C6    A    
O12   C36   S    
C37   H34   S    
C23   O7    A    
C39   H41   S    
O10   C30   S    
C27   O14   S    
C10   H10   S    
C18   C19   D    
C33   H23   S    
C32   H18   S    
C25   H7    S    
C31   H20   S    
C1    O1    A    
C3    H8    S    
C16   C17   D    
C35   H27   S    
C39   H40   S    
C34   H28   S    
C9    C10   A    
C29   H13   S    
C13   O10   S    
C22   O5    A    
Cu2   O8    S    
C41   H43   S    
C13   C14   A    
Cu1   O1    S    
Cu2   O2    S    
C31   C32   S    
C36   H31   S    
C29   H12   S    
C20   N1    D    
C34   H29   S    
C7    C12   S    
C1    C19   S    
C35   H25   S    
O9    C29   S    
C24   C25   A    
C12   O4    A    
C3    C8    A    
C38   H36   S    
C4    C23   S    
C37   H33   S    
O11   C33   S    
C23   O8    A    
C25   C26   A    
Cu1   O3    S    
C2    H1    S    
C33   H24   S    
Cu1   Cu2   S    
C16   H3    S    
C38   H37   S    
C31   H21   S    
C1    O2    A    
C39   H39   S    
C40   H45   S    
C19   O11   S    
C41   H44   S    
C2    C24   A    
C30   H15   S    
C17   H4    S    
C3    C4    A    
C36   H32   S    
C29   H11   S    
C24   O13   S    
C32   H19   S    
Cu1   N1    S    
C14   C15   A    
Cu2   O4    S    
C14   H2    S    
C12   O3    A    
C30   H16   S    
C37   H35   S    
C18   C31   S    
C6    C7    A    
C21   H5    S    
C9    C40   S    
C40   H46   S    
C17   C22   S    
C9    C15   A    
C38   H38   S    
C11   C13   A    
O14   C38   S    
C40   C41   S    
C20   C34   S    
C33   H22   S    
C5    C15   S    
C11   O9    S    
C10   C11   A    
C21   N2    D    
C4    C5    A    
C20   C21   S    
C16   C18   S    
C27   C28   A    
C6    H9    S    
Cu2   N2    S    
C2    C28   A    
