data_mof_unit_15.cif
_audit_creation_date              2012-12-10T20:38:23-0500
_audit_creation_method            fapswitch 2.2
_symmetry_space_group_name_H-M    P1
_symmetry_Int_Tables_number       1
_space_group_crystal_system       triclinic
_cell_length_a                    9.858469
_cell_length_b                    10.672478
_cell_length_c                    16.8966
_cell_angle_alpha                 90.35894
_cell_angle_beta                  84.651637
_cell_angle_gamma                 90.271403
_cell_volume                      1769.97398201

loop_
_atom_site_label
_atom_site_type_symbol
_atom_type_description
_atom_site_fract_x
_atom_site_fract_y
_atom_site_fract_z
_atom_type_partial_charge
C1    C     C_R   0.500089 0.739841 0.499326 0.912282
C2    C     C_R   0.532363 0.457443 0.264111 -0.089839
C3    C     C_R   0.392551 0.936728 0.535920 -0.076295
C4    C     C_R   0.480286 0.499866 0.653478 1.051878
C5    C     C_R   0.498391 0.871668 0.494084 0.016341
C6    C     C_R   0.594940 0.934467 0.442564 -0.216698
C7    C     C_R   0.595520 0.064509 0.442121 -0.249279
C8    C     C_R   0.497892 0.128607 0.492229 0.013357
C9    C     C_R   0.392839 0.064625 0.535081 -0.062245
C10   C     C_3   0.345887 0.075268 0.621509 0.326576
C11   C     C_3   0.344069 0.932533 0.622575 0.314077
C12   C     C_R   0.339449 0.476799 0.785266 0.278845
C13   C     C_R   0.920423 0.563649 0.557541 0.191910
C14   C     C_R   0.935958 0.428514 0.447456 -0.130220
C15   C     C_R   0.080039 0.428696 0.447347 -0.100345
C16   C     C_R   0.500041 0.260342 0.497805 0.898582
C17   C     C_R   0.062795 0.561738 0.558230 0.097193
C18   C     C_3   0.071036 0.697275 0.577515 -0.662287
C19   C     C_3   0.917192 0.701645 0.575111 1.008421
C20   C     C_R   0.519464 0.493347 0.347359 0.869625
C21   C     C_R   0.467225 0.497568 0.740823 -0.483219
C22   C     C_R   0.585251 0.515856 0.780507 0.536122
C23   C     C_R   0.435373 0.354601 0.155215 -0.140261
C24   C     C_R   0.579437 0.506113 0.861987 0.438399
C25   C     C_R   0.456979 0.474342 0.905491 -0.355922
C26   C     C_R   0.336739 0.459550 0.868232 0.398702
C27   C     C_3   0.801054 0.591255 0.075289 -0.149380
C28   C     C_3   0.393732 0.161027 0.741231 -0.252802
C29   C     C_3   0.381875 0.806426 0.728686 -0.255833
C30   C     C_3   0.878759 0.902031 0.531461 -0.212876
C31   C     C_3   0.198003 0.298993 0.912802 -0.252425
C32   C     C_3   0.116238 0.537784 0.775795 -0.090642
C33   C     C_R   0.424048 0.393642 0.233581 -0.187296
C34   C     C_R   0.655602 0.474807 0.216945 -0.329014
C35   C     C_R   0.665684 0.440138 0.136643 0.557747
C36   C     C_R   0.553205 0.382815 0.105922 0.080418
C37   C     C_2   0.454065 0.456267 0.990698 0.750334
C38   C     C_2   0.545382 0.381853 0.020684 -0.318724
F1    F     F_    0.707802 0.543530 0.740883 -0.573700
F2    F     F_    0.845692 0.728055 0.647959 -0.625172
F3    F     F_    0.359222 0.520039 0.038931 -0.631586
F4    F     F_    0.694381 0.527635 0.898614 -0.633956
H1    H     H_    0.671857 0.883471 0.405533 0.173063
H2    H     H_    0.742043 0.518021 0.241650 0.172562
H3    H     H_    0.623994 0.334417 0.982416 0.184161
H4    H     H_    0.348554 0.310585 0.131275 0.173756
H5    H     H_    0.708163 0.634470 0.054417 0.179275
H6    H     H_    0.885696 0.605894 0.028181 0.225928
H7    H     H_    0.829469 0.639489 0.129882 0.126429
H8    H     H_    0.357487 0.076924 0.775398 0.160998
H9    H     H_    0.309338 0.228753 0.739050 0.177301
H10   H     H_    0.474271 0.206529 0.773178 0.176498
H11   H     H_    0.331905 0.724157 0.703079 0.156063
H12   H     H_    0.673446 0.114472 0.405228 0.149026
H13   H     H_    0.306149 0.860118 0.768150 0.132146
H14   H     H_    0.461131 0.772044 0.765538 0.207683
H15   H     H_    0.973542 0.930915 0.557833 0.130853
H16   H     H_    0.788006 0.925840 0.572782 0.243732
H17   H     H_    0.874360 0.957639 0.476578 0.162574
H18   H     H_    0.115754 0.274424 0.959504 0.209881
H19   H     H_    0.291003 0.247167 0.926163 0.118404
H20   H     H_    0.164229 0.267867 0.854965 0.167038
H21   H     H_    0.048045 0.552916 0.728356 0.193126
H22   H     H_    0.152289 0.631321 0.794896 0.116355
H23   H     H_    0.243511 0.120034 0.630696 0.031775
H24   H     H_    0.052233 0.492066 0.824867 0.232538
H25   H     H_    0.238951 0.893395 0.632624 0.004698
H26   H     H_    0.888130 0.372761 0.404062 0.144206
H27   H     H_    0.141054 0.373157 0.403799 0.136705
H28   H     H_    0.103754 0.713771 0.637738 0.187380
H29   H     H_    0.330126 0.374367 0.270107 0.159684
H30   H     H_    0.128873 0.751185 0.529309 0.212668
N1    N     N_R   0.857140 0.500860 0.500530 -0.121925
N2    N     N_R   0.142780 0.500820 0.500530 -0.086710
O1    O     O_R   0.385310 0.683210 0.499990 -0.640546
O2    O     O_3   0.449079 0.128704 0.664111 -0.543623
O3    O     O_3   0.444593 0.881864 0.667686 -0.529416
O4    O     O_3   0.877263 0.773407 0.511219 -0.636647
O5    O     O_3   0.217013 0.429994 0.913812 -0.546133
O6    O     O_3   0.223269 0.458013 0.745776 -0.605990
O7    O     O_R   0.614650 0.683240 0.500000 -0.564066
O8    O     O_R   0.371780 0.500000 0.615800 -0.572622
O9    O     O_R   0.601120 0.500040 0.615800 -0.541086
O10   O     O_R   0.385350 0.316760 0.500000 -0.635391
O11   O     O_R   0.614690 0.316790 0.500010 -0.624354
O12   O     O_R   0.398880 0.499960 0.384200 -0.625278
O13   O     O_R   0.628220 0.500000 0.384200 -0.632704
O14   O     O_3   0.784133 0.461299 0.087700 -0.602519
Zn1   Zn    Zn3+2 0.346870 0.499980 0.499990 0.972978
Zn2   Zn    Zn3+2 0.653130 0.500020 0.500010 1.028739

loop_
_geom_bond_atom_site_label_1
_geom_bond_atom_site_label_2
_ccdc_geom_bond_type
C27   H6    S    
C18   H28   S    
C20   O13   A    
C24   F4    S    
C31   H19   S    
C35   C36   A    
C7    C8    A    
O8    Zn1   S    
C1    C5    S    
N2    Zn1   S    
N1    Zn2   S    
C18   C19   S    
C5    C6    A    
C28   H9    S    
C1    O7    A    
C30   H15   S    
C30   H16   S    
C16   O10   A    
C34   C35   A    
C38   H3    S    
C11   O3    S    
C25   C37   S    
C28   H8    S    
C8    C9    A    
C23   C33   A    
C20   O12   A    
C9    C10   S    
C2    C34   A    
C8    C16   S    
C23   H4    S    
C21   C22   A    
C31   H20   S    
C10   O2    S    
C11   H25   S    
C18   H30   S    
C15   H27   S    
C13   C19   S    
C2    C20   S    
C1    O1    A    
C14   N1    A    
C34   H2    S    
C24   C25   A    
C32   H22   S    
C10   C11   S    
O1    Zn1   S    
C29   H13   S    
C25   C26   A    
C12   C21   A    
C12   C26   A    
C31   H18   S    
C19   O4    S    
C37   C38   D    
C3    C9    A    
C32   O6    S    
C35   O14   S    
C30   H17   S    
C17   C18   S    
C4    O8    A    
O7    Zn2   S    
C2    C33   A    
C13   N1    A    
C6    H1    S    
C16   O11   A    
C22   C24   A    
O10   Zn1   S    
C28   O2    S    
C32   H24   S    
C10   H23   S    
C27   H5    S    
O9    Zn2   S    
C32   H21   S    
C3    C5    A    
O12   Zn1   S    
O11   Zn2   S    
C31   O5    S    
C6    C7    A    
C29   H14   S    
C26   O5    S    
C13   C17   A    
C36   C38   S    
C4    C21   S    
C28   H10   S    
C17   N2    A    
C4    O9    A    
C29   H11   S    
C22   F1    S    
C12   O6    S    
C37   F3    S    
C27   O14   S    
C3    C11   S    
C19   F2    S    
C33   H29   S    
C30   O4    S    
C15   N2    A    
C29   O3    S    
C23   C36   A    
O13   Zn2   S    
C14   H26   S    
C14   C15   A    
C7    H12   S    
C27   H7    S    
