data_mof_unit_3377.cif
_audit_creation_date              2013-03-05T15:55:20-0500
_audit_creation_method            fapswitch 2.2
_symmetry_space_group_name_H-M    P1
_symmetry_Int_Tables_number       1
_space_group_crystal_system       triclinic
_cell_length_a                    14.756149
_cell_length_b                    14.743602
_cell_length_c                    33.188903
_cell_angle_alpha                 96.494135
_cell_angle_beta                  96.619015
_cell_angle_gamma                 61.117919
_cell_volume                      6266.57034861

loop_
_atom_site_label
_atom_site_type_symbol
_atom_site_description
_atom_site_fract_x
_atom_site_fract_y
_atom_site_fract_z
_atom_type_partial_charge
O1    O     O_R   0.679450 0.499830 0.463150 -0.504784
O2    O     O_R   0.480650 0.664000 0.464630 -0.506388
C1    C     C_R   0.389956 0.701088 0.446323 0.867757
O3    O     O_R   0.323930 0.675950 0.455370 -0.522027
O4    O     O_R   0.354700 0.475360 0.451930 -0.510133
C2    C     C_R   0.403473 0.384005 0.434763 0.898740
O5    O     O_R   0.494470 0.320860 0.448390 -0.506278
O6    O     O_R   0.662580 0.357570 0.460050 -0.524490
C3    C     C_R   0.704070 0.407746 0.448354 0.868235
O7    O     O_R   0.680900 0.502040 0.551870 -0.508056
O8    O     O_R   0.481990 0.666040 0.546870 -0.535180
C4    C     C_R   0.393048 0.702912 0.560918 0.800584
O9    O     O_R   0.325370 0.678160 0.544080 -0.495504
O10   O     O_R   0.356040 0.477400 0.534170 -0.504720
C5    C     C_R   0.406054 0.388000 0.548543 0.913488
O11   O     O_R   0.495910 0.323070 0.537100 -0.507995
O12   O     O_R   0.663920 0.359620 0.542290 -0.520319
C6    C     C_R   0.705042 0.411833 0.562050 0.861503
Cr1   Cr    Cr6+3 0.576280 0.580550 0.506370 1.102470
Cr2   Cr    Cr6+3 0.346780 0.572400 0.496520 1.093771
Cr3   Cr    Cr6+3 0.576960 0.347070 0.497150 1.068168
O13   O     O_3   0.500010 0.500010 0.500010 -0.390772
H1    H     H_    0.454121 0.185012 0.106973 0.191010
C7    C     C_R   0.362248 0.357663 0.394513 -0.313165
C8    C     C_R   0.269702 0.433434 0.375096 0.352986
C9    C     C_R   0.256398 0.427108 0.332602 -0.341998
C10   C     C_R   0.327493 0.342156 0.309830 -0.121536
C11   C     C_R   0.407181 0.256647 0.329304 0.331256
C12   C     C_R   0.424664 0.263576 0.371945 0.233498
C13   C     C_R   0.401955 0.263357 0.165296 0.419087
C14   C     C_R   0.388841 0.243568 0.123168 -0.167984
C15   C     C_R   0.207656 0.373631 0.123079 -0.128214
C16   C     C_R   0.219012 0.392423 0.164916 -0.175502
C17   C     C_R   0.314208 0.335168 0.186357 -0.010683
C18   C     C_1   0.316384 0.341709 0.229931 0.077649
C19   C     C_1   0.319319 0.343357 0.266338 0.120136
C20   C     C_R   0.291288 0.295868 0.102095 -0.111147
H2    H     H_    0.151880 0.448078 0.180921 0.125061
H3    H     H_    0.131481 0.415332 0.107699 0.145546
H4    H     H_    0.189668 0.487907 0.317128 0.174436
N1    N     N_R   0.783307 0.405081 0.227151 -0.204079
N2    N     N_R   0.776880 0.408864 0.266974 -0.204784
C21   C     C_R   0.768602 0.363826 0.412724 -0.377242
C22   C     C_R   0.811937 0.418702 0.397013 0.194065
C23   C     C_R   0.834804 0.399971 0.356199 0.354886
C24   C     C_R   0.816218 0.326109 0.331123 -0.325434
C25   C     C_R   0.790358 0.259335 0.348438 0.257354
C26   C     C_R   0.772450 0.274558 0.389902 0.310009
N3    N     N_R   0.877168 0.228266 0.266023 -0.215481
N4    N     N_R   0.883361 0.224533 0.226150 -0.246370
C27   C     C_R   0.836726 0.312897 0.205976 0.542003
C28   C     C_R   0.823928 0.320608 0.287103 0.631734
C29   C     C_R   0.851902 0.390703 0.145315 0.465383
C30   C     C_R   0.876735 0.378795 0.105042 -0.288505
C31   C     C_R   0.892946 0.205687 0.097720 0.383207
C32   C     C_R   0.867566 0.218084 0.138065 -0.215638
C33   C     C_R   0.849814 0.308555 0.162377 -0.133251
C34   C     C_R   0.904579 0.284444 0.081815 -0.218445
H5    H     H_    0.880961 0.441857 0.093010 0.172215
H6    H     H_    0.862194 0.156262 0.150630 0.221227
N5    N     N_R   0.368076 0.734142 0.217400 -0.220589
N6    N     N_R   0.373294 0.724657 0.257052 -0.267768
C35   C     C_R   0.368104 0.757058 0.408907 -0.378805
C36   C     C_R   0.284166 0.765516 0.381259 0.300592
C37   C     C_R   0.286296 0.776396 0.340124 0.319328
C38   C     C_R   0.362882 0.795032 0.327488 -0.304573
C39   C     C_R   0.436497 0.805181 0.356018 0.238910
C40   C     C_R   0.439799 0.785317 0.396904 0.241257
N7    N     N_R   0.348682 0.893999 0.270566 -0.188504
N8    N     N_R   0.343283 0.903583 0.230898 -0.196055
C41   C     C_R   0.352370 0.824059 0.203692 0.683738
C42   C     C_R   0.363511 0.804353 0.284197 0.684575
C43   C     C_R   0.276440 0.813282 0.133100 0.314515
C44   C     C_R   0.259812 0.838845 0.092415 0.188639
C45   C     C_R   0.383741 0.905895 0.105511 0.300295
C46   C     C_R   0.402766 0.877305 0.145653 0.260503
C47   C     C_R   0.345001 0.836335 0.160050 -0.332046
C48   C     C_R   0.304861 0.895858 0.079747 -0.353747
N9    N     N_R   0.384513 0.374659 0.775735 -0.223556
N10   N     N_R   0.391268 0.376875 0.736275 -0.226413
C49   C     C_R   0.368307 0.366485 0.584203 -0.368008
C50   C     C_R   0.297734 0.450351 0.608906 0.238116
C51   C     C_R   0.293606 0.436554 0.649649 0.286539
C52   C     C_R   0.352868 0.337890 0.664882 -0.330093
C53   C     C_R   0.409584 0.250762 0.638695 0.259714
C54   C     C_R   0.417299 0.264879 0.598121 0.265308
N11   N     N_R   0.307403 0.275756 0.720761 -0.199190
N12   N     N_R   0.300047 0.274089 0.760210 -0.216814
C55   C     C_R   0.338250 0.323673 0.788254 0.711493
C56   C     C_R   0.352791 0.327560 0.708219 0.703206
C57   C     C_R   0.222026 0.378400 0.844559 0.266866
C58   C     C_R   0.206616 0.370873 0.884764 0.286987
C59   C     C_R   0.393447 0.265248 0.898802 0.268854
C60   C     C_R   0.409302 0.276463 0.859016 0.244481
C61   C     C_R   0.323342 0.327248 0.831350 -0.343780
C62   C     C_R   0.291131 0.305274 0.910574 -0.373213
H7    H     H_    0.811211 0.191612 0.666915 0.224403
C63   C     C_R   0.765200 0.375297 0.601605 -0.317408
C64   C     C_R   0.785266 0.444746 0.629781 0.219129
C65   C     C_R   0.803275 0.426903 0.671497 0.320020
C66   C     C_R   0.806310 0.338263 0.684633 -0.152443
C67   C     C_R   0.801339 0.263071 0.656434 -0.211833
C68   C     C_R   0.784226 0.278846 0.614833 0.343234
C69   C     C_R   0.842886 0.227086 0.825999 0.311838
C70   C     C_R   0.873587 0.217391 0.868216 0.352878
C71   C     C_R   0.895802 0.371020 0.870111 -0.178860
C72   C     C_R   0.865977 0.380290 0.829018 -0.111793
C73   C     C_R   0.844488 0.306525 0.806505 -0.096511
C74   C     C_1   0.827320 0.314016 0.763265 0.149937
C75   C     C_1   0.817054 0.323182 0.727263 0.158918
C76   C     C_R   0.905089 0.287334 0.889886 -0.195682
H8    H     H_    0.863220 0.443684 0.814327 0.216909
H9    H     H_    0.916875 0.427129 0.885902 0.209298
H10   H     H_    0.456476 0.885744 0.819192 0.184719
H11   H     H_    0.518666 0.754329 0.689964 0.190537
H12   H     H_    0.540246 0.698858 0.618108 0.209338
C77   C     C_R   0.375685 0.760178 0.601157 -0.174247
C78   C     C_R   0.275032 0.819163 0.615312 0.483493
C79   C     C_R   0.264013 0.847814 0.656887 -0.107777
C80   C     C_R   0.351727 0.822573 0.683848 0.012768
C81   C     C_R   0.450441 0.773778 0.669247 -0.059221
C82   C     C_R   0.462408 0.742973 0.628147 -0.157885
C83   C     C_R   0.393693 0.881864 0.831600 -0.260138
C84   C     C_R   0.379692 0.905349 0.873087 0.429107
C85   C     C_R   0.229890 0.875909 0.863506 -0.367699
C86   C     C_R   0.245152 0.849992 0.821589 0.491030
C87   C     C_R   0.324952 0.858460 0.805926 -0.028861
C88   C     C_1   0.334547 0.847033 0.762889 0.102246
C89   C     C_1   0.341789 0.837627 0.726806 0.057478
C90   C     C_R   0.292429 0.909706 0.888892 -0.186351
H13   H     H_    0.165801 0.876025 0.876125 0.141320
H14   H     H_    0.187284 0.886264 0.668223 0.166896
O14   O     O_R   0.170070 0.978950 0.027680 -0.515574
O15   O     O_R   0.001760 0.175230 0.026640 -0.496724
C91   C     C_R   0.962252 0.264912 0.045348 0.849975
O16   O     O_R   0.984760 0.333570 0.037150 -0.562931
O17   O     O_R   0.183410 0.309240 0.041890 -0.547499
C92   C     C_R   0.272703 0.259679 0.060193 0.824791
O18   O     O_R   0.340240 0.172500 0.045430 -0.527886
O19   O     O_R   0.309670 0.000990 0.032050 -0.520741
C93   C     C_R   0.260875 0.957934 0.043434 0.869750
O20   O     O_R   0.168330 0.982130 0.939200 -0.565182
O21   O     O_R   0.000140 0.178170 0.944610 -0.523985
C94   C     C_R   0.960831 0.268097 0.930856 0.856005
O22   O     O_R   0.983010 0.336750 0.948660 -0.546513
O23   O     O_R   0.181800 0.312190 0.959860 -0.522828
C95   C     C_R   0.271254 0.264940 0.945677 0.933729
O24   O     O_R   0.338500 0.175680 0.956950 -0.506257
O25   O     O_R   0.308050 0.003930 0.950020 -0.515545
C96   C     C_R   0.256720 0.963813 0.929039 0.796478
Cr4   Cr    Cr6+3 0.087320 0.083240 0.984860 1.014897
Cr5   Cr    Cr6+3 0.087720 0.316210 0.996740 0.950152
Cr6   Cr    Cr6+3 0.317350 0.090340 0.995890 0.997406
O26   O     O_3   0.164130 0.163270 0.992500 -0.357502
O27   O     O_3   0.743199 0.210567 0.405867 -0.486000
C97   C     C_3   0.824768 0.145695 0.432867 0.127895
H15   H     H_    0.850470 0.190816 0.456131 0.100588
H16   H     H_    0.892460 0.088754 0.415727 0.117332
C98   C     C_3   0.787258 0.086832 0.455245 -0.412722
H17   H     H_    0.770274 0.033068 0.433507 0.255775
H18   H     H_    0.847910 0.041183 0.478629 0.156608
H19   H     H_    0.715880 0.142182 0.470587 0.250544
O28   O     O_3   0.871981 0.457529 0.340326 -0.505542
C99   C     C_3   0.981006 0.398174 0.338866 0.171605
H20   H     H_    0.009819 0.312524 0.335093 0.086912
H21   H     H_    0.019138 0.415362 0.367363 0.183710
C100  C     C_3   0.014174 0.427862 0.302960 -0.657410
H22   H     H_    0.995489 0.510753 0.306977 0.248740
H23   H     H_    0.098845 0.378552 0.300408 0.180452
H24   H     H_    0.973419 0.415018 0.274454 0.216717
N13   N     N_R   0.773721 0.181460 0.323660 0.194044
O29   O     O_R   0.813751 0.087695 0.335428 -0.297738
O30   O     O_R   0.710782 0.206466 0.291120 -0.273857
O31   O     O_3   0.831311 0.482405 0.168045 -0.520860
C101  C     C_3   0.926185 0.481788 0.181093 0.058711
H25   H     H_    0.965420 0.483864 0.154770 0.114620
H26   H     H_    0.979221 0.411789 0.198036 0.103123
C102  C     C_3   0.904848 0.577589 0.209373 -0.533442
H27   H     H_    0.863736 0.579103 0.235648 0.256818
H28   H     H_    0.979169 0.576384 0.220810 0.148429
H29   H     H_    0.855943 0.648828 0.192800 0.253575
N14   N     N_R   0.907196 0.112891 0.073778 0.122683
O32   O     O_R   0.859082 0.119531 0.037928 -0.339865
O33   O     O_R   0.952986 0.023999 0.090230 -0.332285
O34   O     O_3   0.204444 0.752738 0.393052 -0.510211
C103  C     C_3   0.130811 0.848371 0.410677 0.139660
H30   H     H_    0.096259 0.908834 0.388052 0.139153
H31   H     H_    0.166353 0.875427 0.437546 0.095500
C104  C     C_3   0.044387 0.834367 0.424956 -0.500706
H32   H     H_    0.077154 0.771305 0.446269 0.252095
H33   H     H_    0.989102 0.907302 0.440926 0.120885
H34   H     H_    0.002251 0.814585 0.398513 0.266277
N15   N     N_R   0.517700 0.790937 0.425711 0.186598
O35   O     O_R   0.615018 0.740905 0.417868 -0.281006
O36   O     O_R   0.491356 0.846218 0.459956 -0.312767
N16   N     N_R   0.193180 0.810100 0.065407 -0.144931
O37   O     O_R   0.216797 0.772564 0.028421 -0.000003
O38   O     O_R   0.216797 0.772564 0.028421 -0.000003
N17   N     N_R   0.503076 0.208264 0.186092 0.157705
O39   O     O_R   0.528399 0.248514 0.219531 -0.301866
O40   O     O_R   0.574537 0.123286 0.169283 -0.301452
O41   O     O_3   0.208693 0.776455 0.312257 -0.521145
C105  C     C_3   0.226984 0.673248 0.302986 0.137565
H35   H     H_    0.206750 0.645468 0.328472 0.192250
H36   H     H_    0.309443 0.619068 0.296696 0.124095
C106  C     C_3   0.158995 0.669767 0.265369 -0.563879
H37   H     H_    0.177724 0.696986 0.239217 0.279561
H38   H     H_    0.172894 0.588993 0.257667 0.137193
H39   H     H_    0.075866 0.720221 0.271032 0.245802
N18   N     N_R   0.509399 0.832995 0.343481 0.197235
O42   O     O_R   0.520833 0.909032 0.362854 -0.244686
O43   O     O_R   0.565834 0.781437 0.313150 -0.293370
N19   N     N_R   0.218870 0.769213 0.147364 0.140198
O44   O     O_R   0.221082 0.685441 0.129016 -0.340106
O45   O     O_R   0.156988 0.817788 0.176439 -0.347330
O46   O     O_3   0.436557 0.952718 0.093049 -0.505973
C107  C     C_3   0.526696 0.875376 0.074997 0.155634
H40   H     H_    0.506273 0.835913 0.047609 0.083440
H41   H     H_    0.578359 0.816461 0.096955 0.145844
C108  C     C_3   0.586204 0.925968 0.061856 -0.572886
H42   H     H_    0.610080 0.963643 0.088752 0.263761
H43   H     H_    0.656522 0.866357 0.046942 0.160849
H44   H     H_    0.536528 0.985568 0.040047 0.218597
N20   N     N_R   0.480037 0.891859 0.171946 0.159135
O47   O     O_R   0.548924 0.817203 0.193658 -0.316741
O48   O     O_R   0.483696 0.978603 0.173441 -0.277190
N21   N     N_R   0.227735 0.548467 0.592492 0.175768
O49   O     O_R   0.222932 0.634045 0.609905 -0.303847
O50   O     O_R   0.163188 0.552914 0.561586 -0.294555
N22   N     N_R   0.476240 0.176431 0.571331 0.191677
O51   O     O_R   0.568776 0.106066 0.583068 -0.248902
O52   O     O_R   0.437655 0.166540 0.534836 -0.305814
O53   O     O_3   0.107161 0.422823 0.897764 -0.515506
C109  C     C_3   0.089453 0.521577 0.915070 0.172349
H45   H     H_    0.097919 0.567136 0.892520 0.122740
H46   H     H_    0.144342 0.514044 0.942121 0.110814
C110  C     C_3   0.979533 0.581748 0.928750 -0.666371
H47   H     H_    0.968102 0.538376 0.951196 0.226552
H48   H     H_    0.965777 0.658681 0.943139 0.179400
H49   H     H_    0.922686 0.593825 0.902188 0.224623
N23   N     N_R   0.226593 0.522558 0.675449 0.161175
O54   O     O_R   0.253985 0.591916 0.690342 -0.340411
O55   O     O_R   0.147744 0.522275 0.689270 -0.295448
N24   N     N_R   0.460140 0.148329 0.653276 0.174215
O56   O     O_R   0.523330 0.127400 0.685771 -0.302055
O57   O     O_R   0.442803 0.075602 0.634104 -0.301313
N25   N     N_R   0.467531 0.162079 0.305870 0.198064
O58   O     O_R   0.562620 0.135476 0.299311 -0.211774
O59   O     O_R   0.422112 0.112997 0.285232 -0.299827
N26   N     N_R   0.134254 0.437436 0.817237 0.135712
O60   O     O_R   0.139541 0.496022 0.792090 -0.360907
O61   O     O_R   0.047615 0.434892 0.817999 -0.333943
N27   N     N_R   0.481106 0.210462 0.926719 0.168075
O62   O     O_R   0.556827 0.120655 0.915601 -0.309729
O63   O     O_R   0.484643 0.249692 0.963649 -0.355192
N28   N     N_R   0.512732 0.233961 0.846518 0.183957
O64   O     O_R   0.578311 0.259742 0.867135 -0.290057
O65   O     O_R   0.542348 0.167577 0.815166 -0.292446
O66   O     O_3   0.865763 0.145569 0.889115 -0.502379
C111  C     C_3   0.948028 0.045300 0.880366 0.150818
H50   H     H_    0.023776 0.045295 0.882734 0.104854
H51   H     H_    0.935955 0.014519 0.849326 0.160058
C112  C     C_3   0.952057 0.972596 0.910477 -0.538691
H52   H     H_    0.877159 0.970955 0.908135 0.245577
H53   H     H_    0.015030 0.892669 0.903870 0.121924
H54   H     H_    0.966592 0.999596 0.941965 0.244637
N29   N     N_R   0.810619 0.157106 0.803351 0.114239
O67   O     O_R   0.843418 0.117069 0.767540 -0.359816
O68   O     O_R   0.752334 0.128903 0.819230 -0.257190
N30   N     N_R   0.788811 0.195670 0.586450 0.124303
O69   O     O_R   0.762985 0.129183 0.596854 -0.304591
O70   O     O_R   0.834955 0.176064 0.552962 -0.403215
N31   N     N_R   0.792660 0.529790 0.615980 0.171227
O71   O     O_R   0.745835 0.622339 0.633848 -0.300128
O72   O     O_R   0.852712 0.512953 0.587118 -0.297692
N32   N     N_R   0.500935 0.173883 0.392427 0.180341
O73   O     O_R   0.476094 0.144195 0.422958 -0.294383
O74   O     O_R   0.594813 0.121180 0.380702 -0.263192
N33   N     N_R   0.819841 0.498037 0.700524 0.157335
O75   O     O_R   0.911403 0.470167 0.718760 -0.293026
O76   O     O_R   0.740586 0.581740 0.713987 -0.342663
O77   O     O_3   0.445469 0.935150 0.896697 -0.519783
C113  C     C_3   0.524625 0.847546 0.915809 0.109447
H55   H     H_    0.570773 0.785445 0.892840 0.119898
H56   H     H_    0.491632 0.816171 0.935608 0.093163
C114  C     C_3   0.597235 0.879096 0.942364 -0.563877
H57   H     H_    0.552740 0.943271 0.964776 0.229733
H58   H     H_    0.657417 0.811882 0.958923 0.142116
H59   H     H_    0.635936 0.905379 0.923223 0.258451
O78   O     O_3   0.187408 0.839220 0.589829 -0.505718
C115  C     C_3   0.161533 0.926802 0.568323 0.107884
H60   H     H_    0.227101 0.914784 0.550883 0.105361
H61   H     H_    0.139580 0.997137 0.589603 0.140895
C116  C     C_3   0.069385 0.945396 0.538162 -0.548623
H62   H     H_    0.001657 0.959698 0.554518 0.276237
H63   H     H_    0.048260 0.013987 0.520899 0.166245
H64   H     H_    0.089559 0.876432 0.516451 0.210374
O79   O     O_3   0.178628 0.827633 0.793944 -0.540592
C117  C     C_3   0.130072 0.780561 0.811323 0.013731
H65   H     H_    0.065164 0.839802 0.829040 0.118877
H66   H     H_    0.186241 0.717444 0.830905 0.132113
C118  C     C_3   0.083948 0.733615 0.777428 -0.386589
H67   H     H_    0.146841 0.669317 0.760325 0.273168
H68   H     H_    0.039067 0.702968 0.790541 0.205606
H69   H     H_    0.030978 0.793683 0.756267 0.241196
N34   N     N_R   0.187505 0.513862 0.397992 0.127286
O80   O     O_R   0.119763 0.598576 0.381213 -0.369512
O81   O     O_R   0.167050 0.493541 0.431964 -0.336125
N35   N     N_R   0.833847 0.493635 0.421350 -0.103198
O82   O     O_R   0.875771 0.476272 0.458272 -0.000002
O83   O     O_R   0.875770 0.476272 0.458272 -0.000002

loop_
_geom_bond_atom_site_label_1
_geom_bond_atom_site_label_2
_geom_bond_distance
_ccdc_geom_bond_type
C86   C87   1.403659 A    
C72   H8    1.083854 S    
C115  H60   1.114820 S    
O14   Cr4   2.038491 S    
C31   C32   1.400261 A    
C101  H26   1.115072 S    
C46   N20   1.439524 S    
C105  H36   1.115403 S    
O77   C113  1.411391 S    
O4    C2    1.281113 A    
C71   C72   1.384973 A    
N26   O61   1.300182 A    
O21   C94   1.278928 A    
C32   C33   1.402357 A    
C17   C18   1.436156 S    
C43   C44   1.405329 A    
O25   Cr6   1.908277 S    
N14   O32   1.301444 A    
C8    N34   1.440135 S    
C38   C42   1.460227 S    
C98   H18   1.110137 S    
C40   N15   1.436323 S    
C27   C33   1.471997 S    
N24   O56   1.301257 A    
C49   C54   1.418979 A    
C114  H59   1.110385 S    
C30   H5    1.083323 S    
N5    C41   1.354082 A    
C12   N32   1.437611 S    
O21   Cr4   1.919836 S    
N17   O39   1.301182 A    
Cr3   O13   1.971269 S    
C109  H46   1.114632 S    
C69   C70   1.423101 A    
O16   Cr5   2.046686 S    
C46   C47   1.405815 A    
N19   O45   1.301119 A    
O41   C105  1.414010 S    
C68   N30   1.438414 S    
C91   O16   1.271584 A    
O19   C93   1.273835 A    
C48   C93   1.485508 S    
C106  H37   1.109947 S    
N16   O37   1.301214 A    
C66   C75   1.435862 S    
N19   O44   1.301111 A    
O12   Cr3   1.910170 S    
C14   C20   1.404826 A    
C11   N25   1.434180 S    
H1    C14   1.083135 S    
O20   Cr4   2.032937 S    
C45   C46   1.399279 A    
N13   O30   1.301101 A    
N21   O49   1.299649 A    
Cr1   O13   1.975038 S    
N34   O80   1.300862 A    
C84   C90   1.416177 A    
C7    C8    1.419320 A    
N22   O52   1.301459 A    
C26   O27   1.384327 S    
N30   O70   1.301574 A    
O79   C117  1.412063 S    
O23   C95   1.276723 A    
C112  H53   1.109484 S    
C62   C95   1.483551 S    
C99   H20   1.117565 S    
O9    Cr2   2.026092 S    
O2    Cr1   1.918808 S    
C94   O22   1.273154 A    
C25   N13   1.437701 S    
C2    O5    1.273547 A    
C84   O77   1.381277 S    
C16   H2    1.083635 S    
C97   H16   1.113100 S    
C8    C9    1.400137 A    
C36   C37   1.398134 A    
C114  H58   1.110531 S    
C13   C14   1.406194 A    
O7    C6    1.275186 A    
O15   Cr4   1.918398 S    
C59   N27   1.437974 S    
N33   O76   1.300713 A    
C23   O28   1.384236 S    
N7    N8    1.329147 A    
C4    C77   1.475437 S    
O3    Cr2   2.043997 S    
N12   C55   1.357108 A    
C63   C64   1.422317 A    
O27   C97   1.414100 S    
C43   C47   1.412033 A    
C103  H30   1.114707 S    
C74   C75   1.201638 T    
N1    C27   1.356164 A    
N2    C28   1.355895 A    
C57   N26   1.440889 S    
O11   Cr3   2.047948 S    
H11   C81   1.083818 S    
C95   O24   1.273110 A    
C88   C89   1.201024 T    
C102  H27   1.110591 S    
C83   C84   1.395379 A    
C100  H23   1.108947 S    
O4    Cr2   1.910526 S    
C53   C54   1.411111 A    
C73   C74   1.435568 S    
C115  H61   1.114294 S    
N27   O62   1.301210 A    
C58   C62   1.414384 A    
N23   O54   1.300874 A    
C104  H33   1.107285 S    
O31   C101  1.412924 S    
C64   C65   1.409517 A    
N28   O65   1.301121 A    
C90   C96   1.484825 S    
C72   C73   1.391507 A    
O53   C109  1.412809 S    
C38   C39   1.409537 A    
C110  H47   1.110524 S    
C113  C114  1.520561 S    
C104  H32   1.110965 S    
C52   C56   1.463566 S    
C108  H42   1.110810 S    
C16   C17   1.397197 A    
C71   C76   1.403898 A    
N35   O83   1.301166 A    
C118  H68   1.110024 S    
C3    C21   1.488319 S    
C13   C17   1.415277 A    
C71   H9    1.081004 S    
C80   C89   1.431297 S    
C57   C58   1.404394 A    
C107  H40   1.114545 S    
C53   N24   1.437112 S    
N7    C42   1.353695 A    
C77   C82   1.406375 A    
O6    Cr3   1.930549 S    
C85   H13   1.076729 S    
C83   C87   1.395149 A    
C51   C52   1.404255 A    
C2    C7    1.492946 S    
O12   C6    1.279149 A    
C15   C20   1.404694 A    
H10   C83   1.084273 S    
N21   O50   1.301276 A    
N15   O35   1.301363 A    
N18   O43   1.301292 A    
C20   C92   1.476289 S    
C65   N33   1.432669 S    
C31   C34   1.417220 A    
C1    O3    1.272084 A    
C41   C47   1.465096 S    
C80   C81   1.394898 A    
C35   C40   1.418460 A    
C22   N35   1.435442 S    
N32   O74   1.300097 A    
C111  H50   1.111396 S    
N29   O67   1.301247 A    
O15   C91   1.275457 A    
C34   C91   1.481171 S    
C77   C78   1.415501 A    
C65   C66   1.402807 A    
N31   O72   1.301441 A    
C31   N14   1.436017 S    
N24   O57   1.301223 A    
N5    N6    1.328605 A    
C117  C118  1.519940 S    
N14   O33   1.301427 A    
N9    C55   1.354809 A    
O22   Cr5   2.028378 S    
C57   C61   1.408253 A    
C35   C36   1.416472 A    
C4    O9    1.272826 A    
N3    N4    1.330122 A    
C110  H49   1.110515 S    
C113  H55   1.114740 S    
O10   C5    1.277067 A    
C108  H44   1.110284 S    
N11   N12   1.330098 A    
C66   C67   1.392236 A    
N1    N2    1.328927 A    
C18   C19   1.202004 T    
C69   N29   1.439740 S    
C105  H35   1.107746 S    
N20   O47   1.301461 A    
C112  H52   1.110725 S    
C23   C24   1.408770 A    
C107  C108  1.520610 S    
O8    Cr1   1.919658 S    
C9    C10   1.392793 A    
H12   C82   1.082041 S    
C11   C12   1.410105 A    
C116  H62   1.110643 S    
C106  H38   1.110377 S    
O18   Cr6   2.025203 S    
C63   C68   1.421578 A    
C58   O53   1.382724 S    
O78   C115  1.411376 S    
C15   H3    1.083121 S    
C7    C12   1.422450 A    
C37   O41   1.386290 S    
N34   O81   1.301664 A    
N33   O75   1.300800 A    
O17   Cr5   1.912243 S    
N8    C41   1.358137 A    
H7    C67   1.084063 S    
O19   Cr6   1.929169 S    
C70   C76   1.419497 A    
C43   N19   1.436465 S    
C111  C112  1.522592 S    
C101  C102  1.521104 S    
N25   O59   1.300978 A    
C105  C106  1.521296 S    
O1    Cr1   2.039276 S    
C39   C40   1.410819 A    
C54   N22   1.438023 S    
O10   Cr2   1.927051 S    
O1    C3    1.276787 A    
C52   C53   1.408024 A    
C116  H64   1.110405 S    
N16   O38   1.301213 A    
C100  H22   1.110621 S    
C29   C33   1.408441 A    
N26   O60   1.300739 A    
C29   C30   1.396157 A    
C32   H6    1.083701 S    
C55   C61   1.463320 S    
C117  H65   1.109741 S    
C98   H17   1.110193 S    
O7    Cr1   2.033527 S    
O8    C4    1.276678 A    
N3    C28   1.355811 A    
N4    C27   1.358003 A    
C98   H19   1.110828 S    
C81   C82   1.391435 A    
Cr2   O13   1.975193 S    
C85   C86   1.414537 A    
C109  H45   1.115005 S    
C103  H31   1.115002 S    
C87   C88   1.434467 S    
C69   C73   1.411604 A    
C22   C23   1.398458 A    
C24   C25   1.409441 A    
C99   C100  1.520066 S    
C102  H28   1.110803 S    
C79   C80   1.399101 A    
C1    C35   1.486399 S    
C10   C19   1.435948 S    
C50   N21   1.435755 S    
C51   N23   1.434287 S    
O14   C93   1.280180 A    
C15   C16   1.391771 A    
O20   C96   1.276087 A    
C103  C104  1.519654 S    
N22   O51   1.301105 A    
O5    Cr3   2.026988 S    
O25   C96   1.275324 A    
N29   O68   1.299947 A    
O34   C103  1.410956 S    
C60   C61   1.407903 A    
C102  H29   1.110616 S    
C92   O18   1.272019 A    
C50   C51   1.402412 A    
C44   C48   1.417528 A    
N11   C56   1.354824 A    
N17   O40   1.301600 A    
N30   O69   1.301211 A    
C78   O78   1.381913 S    
C109  C110  1.520727 S    
C112  H54   1.110556 S    
N13   O29   1.301036 A    
C59   C60   1.408413 A    
C113  H56   1.114834 S    
O28   C99   1.415874 S    
C21   C22   1.416848 A    
C108  H43   1.110454 S    
C49   C50   1.417467 A    
C64   N31   1.437873 S    
C5    C49   1.489667 S    
N35   O82   1.301166 A    
C118  H69   1.110834 S    
C97   H15   1.114717 S    
C114  H57   1.110355 S    
C5    O11   1.275317 A    
C24   C28   1.468543 S    
C45   O46   1.383363 S    
C39   N18   1.437519 S    
Cr4   O26   1.974626 S    
C78   C79   1.400841 A    
C85   C90   1.407058 A    
C101  H25   1.113170 S    
O6    C3    1.276746 A    
N15   O36   1.301313 A    
C21   C26   1.421738 A    
C36   O34   1.381849 S    
C13   N17   1.442647 S    
C70   O66   1.385081 S    
C67   C68   1.399882 A    
C29   O31   1.383714 S    
C100  H24   1.109462 S    
C44   N16   1.436410 S    
C115  C116  1.521281 S    
O46   C107  1.411522 S    
C111  H51   1.108590 S    
N27   O63   1.301381 A    
N23   O55   1.300901 A    
C104  H34   1.110558 S    
C60   N28   1.434350 S    
C25   C26   1.403803 A    
N28   O64   1.301140 A    
C79   H14   1.083856 S    
N6    C42   1.356385 A    
N32   O73   1.301419 A    
C117  H66   1.114830 S    
C76   C94   1.486601 S    
O23   Cr5   1.929973 S    
Cr5   O26   1.970885 S    
C37   C38   1.401365 A    
C59   C62   1.415460 A    
C110  H48   1.110508 S    
O66   C111  1.412070 S    
C30   C34   1.405867 A    
C118  H67   1.109960 S    
C97   C98   1.521770 S    
N20   O48   1.301058 A    
N25   O58   1.299820 A    
C86   O79   1.396657 S    
C107  H41   1.114529 S    
O17   C92   1.274710 A    
C99   H21   1.111842 S    
O2    C1    1.280619 A    
C116  H63   1.110639 S    
C106  H39   1.110603 S    
C9    H4    1.082477 S    
N10   C56   1.357148 A    
C45   C48   1.419922 A    
N9    N10   1.330050 A    
N18   O42   1.301263 A    
O24   Cr6   2.047166 S    
C10   C11   1.402451 A    
C6    C63   1.493645 S    
Cr6   O26   1.975074 S    
N31   O71   1.300619 A    
