data_mof_unit_2766.cif
_audit_creation_date              2012-12-10T16:51:46-0500
_audit_creation_method            fapswitch 2.2
_symmetry_space_group_name_H-M    P1
_symmetry_Int_Tables_number       1
_space_group_crystal_system       triclinic
_cell_length_a                    15.461919
_cell_length_b                    15.465767
_cell_length_c                    9.713421
_cell_angle_alpha                 89.79016
_cell_angle_beta                  90.850482
_cell_angle_gamma                 90.05124
_cell_volume                      2322.5023188

loop_
_atom_site_label
_atom_site_type_symbol
_atom_type_description
_atom_site_fract_x
_atom_site_fract_y
_atom_site_fract_z
_atom_type_partial_charge
C1    C     C_R   0.382730 0.882424 0.499108 0.873632
C2    C     C_R   0.382407 0.117150 0.498946 0.864184
C3    C     C_R   0.882725 0.382429 0.499108 0.873571
C4    C     C_R   0.882411 0.617153 0.498946 0.864225
C5    C     C_R   0.618622 0.115977 0.500639 0.869290
C6    C     C_R   0.618312 0.883754 0.500884 0.880862
C7    C     C_R   0.118625 0.615975 0.500640 0.869309
C8    C     C_R   0.118310 0.383752 0.500883 0.880814
C9    C     C_2   0.717411 0.786929 0.387667 -0.256167
C10   C     C_2   0.719117 0.212058 0.387285 -0.266256
C11   C     C_2   0.217373 0.286893 0.387667 -0.256196
C12   C     C_2   0.219160 0.712019 0.387288 -0.266399
C13   C     C_2   0.688942 0.822569 0.503993 -0.396346
C14   C     C_2   0.690674 0.175670 0.503345 -0.396933
C15   C     C_2   0.188932 0.322560 0.503990 -0.396352
C16   C     C_2   0.190688 0.675657 0.503350 -0.396889
C17   C     C_2   0.290570 0.226387 0.384607 0.526631
C18   C     C_2   0.294458 0.770561 0.385215 0.534498
C19   C     C_2   0.790617 0.726432 0.384622 0.526639
C20   C     C_2   0.794391 0.270624 0.385193 0.534433
C21   C     C_2   0.313545 0.180724 0.497886 -0.414142
C22   C     C_2   0.313929 0.818531 0.497320 -0.412746
C23   C     C_2   0.813550 0.680730 0.497883 -0.414123
C24   C     C_2   0.813923 0.318538 0.497330 -0.412789
C25   C     C_2   0.489901 0.068062 0.923819 -0.084891
C26   C     C_2   0.989871 0.568058 0.923818 -0.084899
C27   C     C_2   0.504252 0.068862 0.077861 -0.063361
C28   C     C_2   0.004221 0.568864 0.077860 -0.063333
Cu1   Cu    Cu3+1 0.500020 0.000000 0.638630 0.935755
Cu2   Cu    Cu3+1 0.000020 0.500000 0.638630 0.935755
Cu3   Cu    Cu3+1 0.499980 0.000000 0.361370 0.986392
Cu4   Cu    Cu3+1 0.999980 0.500000 0.361370 0.986375
H1    H     H_    0.688011 0.804139 0.289050 0.198156
H2    H     H_    0.687736 0.197536 0.289257 0.178478
H3    H     H_    0.187954 0.304088 0.289057 0.198160
H4    H     H_    0.187785 0.697494 0.289257 0.178444
H5    H     H_    0.719151 0.810165 0.603431 0.158700
H6    H     H_    0.722563 0.186118 0.602040 0.149771
H7    H     H_    0.219155 0.310169 0.603421 0.158708
H8    H     H_    0.222571 0.686111 0.602049 0.149769
H9    H     H_    0.280673 0.188499 0.594689 0.116821
H10   H     H_    0.277696 0.812841 0.591566 0.112068
H11   H     H_    0.780643 0.688474 0.594664 0.116819
H12   H     H_    0.777747 0.312799 0.591623 0.112097
H13   H     H_    0.471760 0.128643 0.874887 0.148051
H14   H     H_    0.971706 0.628632 0.874886 0.148070
H15   H     H_    0.517683 0.130248 0.127368 0.153994
H16   H     H_    0.017624 0.630256 0.127368 0.154047
H17   H     H_    0.469635 0.946766 0.109426 0.226585
H18   H     H_    0.969658 0.446753 0.109428 0.226576
N1    N     N_2   0.498660 0.000000 0.846910 -0.223519
N2    N     N_2   0.998660 0.500000 0.846910 -0.223514
N3    N     N_2   0.498630 0.000000 0.153040 -0.277804
N4    N     N_2   0.998630 0.500000 0.153040 -0.277823
O1    O     O_R   0.410990 0.910970 0.617040 -0.600076
O2    O     O_R   0.410990 0.089030 0.617040 -0.597311
O3    O     O_R   0.910990 0.410970 0.617040 -0.600055
O4    O     O_R   0.910990 0.589030 0.617040 -0.597322
O5    O     O_R   0.410950 0.910970 0.382900 -0.518541
O6    O     O_R   0.410950 0.089030 0.382900 -0.516311
O7    O     O_R   0.910950 0.410970 0.382900 -0.518537
O8    O     O_R   0.910950 0.589030 0.382900 -0.516291
O9    O     O_R   0.589050 0.089030 0.617100 -0.593817
O10   O     O_R   0.589050 0.910970 0.617100 -0.585454
O11   O     O_R   0.089050 0.589030 0.617100 -0.593828
O12   O     O_R   0.089050 0.410970 0.617100 -0.585441
O13   O     O_R   0.589010 0.089030 0.382960 -0.586554
O14   O     O_R   0.589010 0.910970 0.382960 -0.572770
O15   O     O_R   0.089010 0.589030 0.382960 -0.586526
O16   O     O_R   0.089010 0.410970 0.382960 -0.572808
O17   O     O_3   0.329016 0.210600 0.259134 -0.553848
C29   C     C_3   0.381485 0.281939 0.225348 -0.341669
H19   H     H_    0.433812 0.291326 0.303884 0.159883
H20   H     H_    0.342859 0.342175 0.212863 0.151796
H21   H     H_    0.412685 0.268871 0.125460 0.173935
O18   O     O_3   0.338761 0.783788 0.263194 -0.551813
C30   C     C_3   0.365273 0.704081 0.207629 -0.326558
H22   H     H_    0.310289 0.670559 0.155744 0.154438
H23   H     H_    0.395927 0.661395 0.287077 0.155412
H24   H     H_    0.414513 0.717145 0.128306 0.183252
O19   O     O_3   0.829120 0.710693 0.259174 -0.553841
C31   C     C_3   0.881544 0.782074 0.225451 -0.341761
H25   H     H_    0.933818 0.791513 0.304051 0.159876
H26   H     H_    0.842873 0.842272 0.212906 0.151830
H27   H     H_    0.912812 0.769030 0.125611 0.173943
O20   O     O_3   0.838585 0.283931 0.263102 -0.551817
C32   C     C_3   0.865381 0.204275 0.207718 -0.326506
H28   H     H_    0.810481 0.170401 0.156223 0.154408
H29   H     H_    0.896384 0.161871 0.287199 0.155415
H30   H     H_    0.914410 0.217454 0.128116 0.183230
C33   C     C_R   0.550721 0.930051 0.896518 0.332600
C34   C     C_R   0.516675 0.845902 0.897672 -0.154743
C35   C     C_R   0.568442 0.776154 0.939266 -0.184328
C36   C     C_R   0.654876 0.789740 0.977587 -0.111874
C37   C     C_R   0.689852 0.873038 0.973639 -0.176606
C38   C     C_R   0.638321 0.942967 0.932433 -0.135907
H31   H     H_    0.449940 0.834656 0.867549 0.139594
H32   H     H_    0.541647 0.711500 0.941239 0.130086
H33   H     H_    0.694901 0.735683 0.009549 0.161524
H34   H     H_    0.757052 0.883377 0.001505 0.128311
H35   H     H_    0.666435 0.007037 0.927698 0.115840
C39   C     C_R   0.050747 0.430069 0.896521 0.332633
C40   C     C_R   0.016731 0.345907 0.897678 -0.154832
C41   C     C_R   0.068522 0.276176 0.939283 -0.184423
C42   C     C_R   0.154953 0.289793 0.977605 -0.111898
C43   C     C_R   0.189900 0.373105 0.973651 -0.176581
C44   C     C_R   0.138344 0.443017 0.932438 -0.135900
H36   H     H_    0.949998 0.334637 0.867552 0.139580
H37   H     H_    0.041749 0.211512 0.941264 0.130104
H38   H     H_    0.194997 0.235750 0.009576 0.161575
H39   H     H_    0.257098 0.383468 0.001517 0.128271
H40   H     H_    0.166436 0.507098 0.927699 0.115814

loop_
_geom_bond_atom_site_label_1
_geom_bond_atom_site_label_2
_ccdc_geom_bond_type
C42   H38   S    
Cu1   O9    S    
C8    O12   A    
C35   C36   A    
C44   H40   S    
C37   C38   A    
C5    O13   A    
O19   C31   S    
C30   H22   S    
Cu3   O13   S    
N2    C39   S    
H18   N4    S    
Cu4   O7    S    
C1    O5    A    
C41   H37   S    
C2    O6    A    
C7    O11   A    
C43   C44   A    
C3    O7    A    
Cu3   O5    S    
Cu2   O3    S    
C4    O8    A    
C23   H11   S    
C5    O9    A    
C6    O10   A    
C9    C13   D    
N1    C33   S    
C33   C38   A    
C11   C15   D    
C9    C19   S    
C11   C17   S    
C20   C24   D    
C10   C20   S    
C20   O20   S    
C40   H36   S    
C12   H4    S    
C13   H5    S    
C6    O14   A    
Cu1   O10   S    
C1    C22   S    
C18   C22   D    
C38   H35   S    
C9    H1    S    
C3    C24   S    
C39   C40   A    
C29   H21   S    
Cu4   N4    S    
C41   C42   A    
C34   H31   S    
C43   H39   S    
C30   H23   S    
Cu3   O14   S    
C12   C16   D    
O18   C30   S    
C29   H20   S    
C10   C14   D    
C33   C34   A    
C4    C23   S    
C28   N4    D    
O20   C32   S    
Cu4   O16   S    
Cu1   O1    S    
C17   C21   D    
Cu3   O6    S    
C19   C23   D    
C25   N1    D    
C26   N2    D    
C14   H6    S    
C2    C21   S    
C39   C44   A    
C10   H2    S    
Cu3   N3    S    
C15   H7    S    
C5    C14   S    
Cu2   O12   S    
C16   H8    S    
C21   H9    S    
C3    O3    A    
C7    C16   S    
C17   O17   S    
C8    C15   S    
C31   H26   S    
C32   H29   S    
C24   H12   S    
C4    O4    A    
C25   H13   S    
Cu1   N1    S    
C30   H24   S    
C27   H15   S    
Cu2   N2    S    
C28   H16   S    
C18   O18   S    
C37   H34   S    
C8    O16   A    
C29   H19   S    
C7    O15   A    
C27   N3    D    
Cu4   O15   S    
Cu1   O2    S    
C25   C27   S    
C31   H27   S    
C42   C43   A    
C26   C28   S    
C11   H3    S    
C1    O1    A    
Cu4   O8    S    
O17   C29   S    
Cu1   Cu3   S    
C2    O2    A    
C6    C13   S    
Cu2   Cu4   S    
C22   H10   S    
C36   H33   S    
H17   N3    S    
Cu2   O4    S    
C34   C35   A    
C36   C37   A    
Cu2   O11   S    
C26   H14   S    
C32   H28   S    
C31   H25   S    
C32   H30   S    
C12   C18   S    
C40   C41   A    
C19   O19   S    
C35   H32   S    
