data_mof_unit_4710.cif
_audit_creation_date              2013-03-05T15:42:32-0500
_audit_creation_method            fapswitch 2.2
_symmetry_space_group_name_H-M    P1
_symmetry_Int_Tables_number       1
_space_group_crystal_system       triclinic
_cell_length_a                    6.937611
_cell_length_b                    14.751655
_cell_length_c                    16.221168
_cell_angle_alpha                 90.614376
_cell_angle_beta                  89.880001
_cell_angle_gamma                 89.769879
_cell_volume                      1659.98189273

loop_
_atom_site_label
_atom_site_type_symbol
_atom_site_description
_atom_site_fract_x
_atom_site_fract_y
_atom_site_fract_z
_atom_type_partial_charge
O1    O     O_R   0.494490 0.416160 0.413410 -0.559128
O2    O     O_R   0.823830 0.407240 0.585990 -0.569379
O3    O     O_R   0.994160 0.583840 0.586590 -0.571550
C1    C     C_R   0.654688 0.384316 0.612736 0.833055
O4    O     O_R   0.824200 0.405280 0.414020 -0.567778
O5    O     O_R   0.994530 0.581860 0.413390 -0.565896
C2    C     C_R   0.655641 0.384955 0.384479 0.836411
O6    O     O_R   0.494110 0.418140 0.586610 -0.547513
O7    O     O_3   0.660810 0.557940 0.500000 -0.276719
V1    V     V_3+5 0.935650 0.489250 0.500000 1.148697
O8    O     O_R   0.324250 0.592760 0.414010 -0.560446
C3    C     C_R   0.155824 0.612477 0.384487 0.837467
O9    O     O_R   0.323880 0.594720 0.585980 -0.559377
C4    C     C_R   0.154846 0.615760 0.615408 0.815737
V2    V     V_3+5 0.435660 0.510750 0.500000 1.163117
O10   O     O_3   0.160630 0.442060 0.500000 -0.268859
C5    C     C_3   0.999020 0.652764 0.755276 -0.119918
H1    H     H_    0.851991 0.655391 0.727765 0.053648
C6    C     C_3   0.999519 0.721106 0.829480 -0.251611
H2    H     H_    0.045683 0.688501 0.887614 0.095328
H3    H     H_    0.848949 0.743763 0.840803 0.175084
H4    H     H_    0.934383 0.769546 0.623148 0.107685
H5    H     H_    0.894553 0.861758 0.735570 0.159857
C7    C     C_3   0.074532 0.776947 0.655768 -0.178902
C8    C     C_3   0.347374 0.696929 0.726234 -0.228324
C9    C     C_3   0.144613 0.683300 0.687014 -0.085877
H6    H     H_    0.452517 0.715442 0.677451 0.147929
H7    H     H_    0.402013 0.630504 0.748264 0.089626
C10   C     C_3   0.128350 0.805066 0.810511 -0.142887
C11   C     C_3   0.049953 0.845338 0.728645 -0.150965
C12   C     C_3   0.344778 0.771016 0.796322 0.257229
H8    H     H_    0.179007 0.803968 0.610210 0.144350
H9    H     H_    0.120715 0.910642 0.714245 0.142690
C13   C     C_2   0.989308 0.709800 0.282059 -0.038332
C14   C     C_2   0.152210 0.673760 0.313024 -0.147112
H10   H     H_    0.850850 0.690391 0.307597 0.093380
H11   H     H_    0.289659 0.688041 0.283918 0.069357
C15   C     C_2   0.986881 0.769094 0.208059 -0.085573
C16   C     C_2   0.121723 0.832000 0.188883 -0.172587
H12   H     H_    0.865771 0.759398 0.166581 0.091127
C17   C     C_2   0.772093 0.204896 0.777570 -0.109465
C18   C     C_2   0.615573 0.189782 0.825635 0.173196
H13   H     H_    0.895978 0.160015 0.782293 0.113656
C19   C     C_2   0.789694 0.279719 0.717060 -0.038063
C20   C     C_2   0.638948 0.311680 0.673947 -0.152998
H14   H     H_    0.933448 0.305131 0.704627 0.127092
H15   H     H_    0.497075 0.282468 0.682058 0.128549
C21   C     C_2   0.769540 0.210615 0.210486 -0.076501
C22   C     C_2   0.610720 0.162325 0.188566 -0.169105
H16   H     H_    0.896822 0.206422 0.171493 0.088665
C23   C     C_2   0.787144 0.271103 0.284454 -0.040529
C24   C     C_2   0.640927 0.323075 0.312646 -0.145205
H17   H     H_    0.928559 0.277204 0.312503 0.097896
H18   H     H_    0.503026 0.321478 0.281195 0.068866
O11   O     O_R   0.770850 0.076180 0.907410 -0.568814
O12   O     O_R   0.440600 0.088970 0.079950 -0.587196
O13   O     O_R   0.270430 0.912340 0.080550 -0.579178
C25   C     C_R   0.608231 0.107932 0.110826 0.769138
O14   O     O_R   0.441120 0.087010 0.907980 -0.509236
O15   O     O_R   0.270950 0.910370 0.907350 -0.499859
C26   C     C_R   0.609716 0.111206 0.882004 0.836173
O16   O     O_R   0.770320 0.078150 0.080620 -0.563958
O17   O     O_3   0.604200 0.936340 0.994000 -0.208849
V3    V     V_3+5 0.329300 0.004970 0.993950 1.234253
O18   O     O_R   0.941240 0.899420 0.907920 -0.518634
C27   C     C_R   0.111709 0.876150 0.879913 0.823677
O19   O     O_R   0.940720 0.901380 0.079890 -0.559005
C28   C     C_R   0.109502 0.883365 0.110745 0.770646
V4    V     V_3+5 0.829310 0.983370 0.993880 1.225702
O20   O     O_3   0.104280 0.052120 0.993920 -0.275640
N1    N     N_R   0.470221 0.847578 0.770366 0.073849
O21   O     O_R   0.592401 0.885712 0.820364 -0.323458
O22   O     O_R   0.462462 0.878179 0.695437 -0.406958
C29   C     C_2   0.275580 0.861030 0.247314 0.492612
H19   H     H_    0.411876 0.885930 0.223813 0.008449
O23   O     O_2   0.247682 0.862949 0.321674 -0.543353
N2    N     N_R   0.459878 0.254598 0.830350 0.074389
O24   O     O_R   0.281631 0.227622 0.827847 -0.360752
O25   O     O_R   0.495954 0.339588 0.845923 -0.335772
C30   C     C_2   0.026482 0.555620 0.782109 0.505146
H20   H     H_    0.924430 0.504439 0.761895 0.015768
O26   O     O_2   0.162923 0.532964 0.824646 -0.554943
C31   C     C_2   0.441164 0.151407 0.244054 0.485802
H21   H     H_    0.298828 0.140985 0.218047 0.002341
O27   O     O_2   0.460121 0.148241 0.318800 -0.544378
C32   C     C_2   0.420044 0.725583 0.874991 0.413494
H22   H     H_    0.374001 0.657535 0.889697 0.053497
O28   O     O_2   0.528154 0.763204 0.923556 -0.524052

loop_
_geom_bond_atom_site_label_1
_geom_bond_atom_site_label_2
_geom_bond_distance
_ccdc_geom_bond_type
C8    C12   1.568580 S    
C25   O16   1.298740 A    
C17   C18   1.356037 D    
C6    H2    1.110382 S    
C1    O6    1.292928 A    
N2    O24   1.301163 A    
C8    H7    1.112054 S    
O14   V3    2.012557 S    
C29   O23   1.221257 D    
C5    C9    1.568082 S    
C6    H3    1.109820 S    
C7    C9    1.553180 S    
C2    C24   1.476436 S    
O5    C3    1.297057 A    
C15   C16   1.358283 D    
C32   O28   1.219664 D    
C16   C29   1.490066 S    
V2    O10   2.164013 S    
C13   C14   1.347393 D    
C16   C28   1.486069 S    
C20   H15   1.084365 S    
O8    V2    2.009925 S    
C21   C23   1.493086 S    
O17   V4    1.711440 S    
C19   H14   1.086099 S    
O12   V3    2.013182 S    
O1    V2    2.009349 S    
V3    O20   1.706489 S    
O7    V1    2.155659 S    
C12   N1    1.492240 S    
O15   C27   1.294254 A    
C12   C32   1.539024 S    
C13   C15   1.492891 S    
O9    C4    1.300370 A    
C17   H13   1.086138 S    
C24   H18   1.085399 S    
C1    C20   1.472830 S    
N2    O25   1.301660 A    
O14   C26   1.295197 A    
C29   H19   1.085643 S    
O19   C28   1.301943 A    
H5    C11   1.109238 S    
C30   O26   1.220228 D    
O4    C2    1.299651 A    
C32   H22   1.083507 S    
C8    C9    1.557933 S    
O17   V3    2.155619 S    
C5    C30   1.513573 S    
C22   C25   1.487565 S    
C23   C24   1.345430 D    
O16   V4    2.013170 S    
C23   H17   1.085971 S    
O2    C1    1.297594 A    
C7    H8    1.112090 S    
C10   C11   1.558713 S    
C31   H21   1.085487 S    
C5    H1    1.114927 S    
C4    C9    1.523528 S    
C3    C14   1.477855 S    
C18   C26   1.484681 S    
O11   V4    2.011330 S    
O3    C4    1.297941 A    
C21   C22   1.360302 D    
C31   O27   1.221226 D    
O6    V2    2.010891 S    
O9    V2    2.007892 S    
C17   C19   1.490115 S    
H4    C7    1.113119 S    
O13   C28   1.294255 A    
C6    C10   1.563144 S    
C19   C20   1.345841 D    
O13   V3    2.012600 S    
N1    O22   1.302227 A    
C11   H9    1.109839 S    
C14   H11   1.085561 S    
O1    C2    1.292708 A    
C30   H20   1.085704 S    
O5    V1    2.012525 S    
O8    C3    1.296875 A    
C8    H6    1.112045 S    
O15   V3    2.012341 S    
C22   C31   1.489961 S    
O7    V2    1.712655 S    
O4    V1    2.013093 S    
C10   C12   1.596796 S    
O3    V1    2.012356 S    
V1    O10   1.706471 S    
C15   H12   1.086448 S    
O18   V4    2.007889 S    
O11   C26   1.299356 A    
C21   H16   1.086294 S    
C5    C6    1.561806 S    
O12   C25   1.297535 A    
C13   H10   1.085987 S    
V4    O20   2.164060 S    
C7    C11   1.554536 S    
C10   C27   1.534097 S    
N1    O21   1.299858 A    
C18   N2    1.441030 S    
O18   C27   1.309210 A    
O19   V4    2.009973 S    
O2    V1    2.012512 S    
