data_mof_unit_1947.cif
_audit_creation_date              2013-03-05T15:39:31-0500
_audit_creation_method            fapswitch 2.2
_symmetry_space_group_name_H-M    P1
_symmetry_Int_Tables_number       1
_space_group_crystal_system       triclinic
_cell_length_a                    19.848747
_cell_length_b                    17.069709
_cell_length_c                    15.428969
_cell_angle_alpha                 90.111334
_cell_angle_beta                  53.312458
_cell_angle_gamma                 89.85743
_cell_volume                      4191.93010279

loop_
_atom_site_label
_atom_site_type_symbol
_atom_site_description
_atom_site_fract_x
_atom_site_fract_y
_atom_site_fract_z
_atom_type_partial_charge
C1    C     C_R   0.372086 0.196390 0.000783 -0.055652
C2    C     C_R   0.346151 0.819326 0.036544 -0.098435
C3    C     C_R   0.841496 0.676189 0.048310 -0.076784
C4    C     C_R   0.849416 0.316607 0.031495 -0.102035
H1    H     H_    0.378000 0.250290 0.032407 0.077884
H2    H     H_    0.343462 0.763619 0.070661 0.082004
H3    H     H_    0.832186 0.724639 0.099187 0.104722
H4    H     H_    0.848389 0.260490 0.063747 0.083335
N1    N     N_R   0.408680 0.130160 0.995800 -0.046159
N2    N     N_R   0.408680 0.869840 0.995800 -0.045307
N3    N     N_R   0.908680 0.630160 0.995800 -0.053820
N4    N     N_R   0.908680 0.369840 0.995800 -0.044248
C5    C     C_R   0.357914 0.821336 0.223372 -0.146548
C6    C     C_R   0.397914 0.199157 0.207896 -0.016367
C7    C     C_R   0.854613 0.324142 0.222735 -0.144613
C8    C     C_R   0.897319 0.699017 0.208600 -0.039333
H5    H     H_    0.344076 0.765161 0.205833 0.083423
H6    H     H_    0.393627 0.254071 0.176928 0.081232
H7    H     H_    0.839487 0.268655 0.205403 0.084829
H8    H     H_    0.896514 0.754798 0.176482 0.074774
N5    N     N_R   0.421680 0.867580 0.153120 -0.039317
N6    N     N_R   0.421680 0.132420 0.153120 -0.040173
N7    N     N_R   0.921680 0.367580 0.153120 -0.041202
N8    N     N_R   0.921680 0.632420 0.153120 -0.040920
C9    C     C_R   0.332217 0.911274 0.947027 -0.140480
C10   C     C_R   0.364816 0.111399 0.898352 -0.156964
C11   C     C_R   0.836573 0.406260 0.938840 -0.143528
C12   C     C_R   0.832193 0.591143 0.947272 -0.158933
H9    H     H_    0.311266 0.945805 0.908484 0.101932
H10   H     H_    0.361101 0.086565 0.836763 0.095080
H11   H     H_    0.818879 0.435412 0.893207 0.093327
H12   H     H_    0.813284 0.562551 0.902639 0.095388
N9    N     N_R   0.403730 0.921770 0.935950 -0.043948
N10   N     N_R   0.403730 0.078230 0.935950 -0.039187
N11   N     N_R   0.903730 0.421770 0.935950 -0.041359
N12   N     N_R   0.903730 0.578230 0.935950 -0.041795
C13   C     C_R   0.407228 0.108161 0.303220 -0.112861
C14   C     C_R   0.365564 0.917689 0.316137 -0.070902
C15   C     C_R   0.904605 0.607474 0.304955 -0.105714
C16   C     C_R   0.862857 0.419397 0.315756 -0.074479
H13   H     H_    0.412654 0.078437 0.360461 0.085451
H14   H     H_    0.358183 0.954650 0.378004 0.096420
H15   H     H_    0.909177 0.577762 0.362929 0.083084
H16   H     H_    0.854821 0.455890 0.378382 0.098572
N13   N     N_R   0.426630 0.075970 0.212960 -0.031250
N14   N     N_R   0.426630 0.924030 0.212960 -0.048627
N15   N     N_R   0.926630 0.575970 0.212960 -0.031218
N16   N     N_R   0.926630 0.424030 0.212960 -0.050162
C17   C     C_R   0.344892 0.186721 0.938267 0.148711
C18   C     C_R   0.293561 0.847045 0.013496 0.153382
C19   C     C_R   0.790687 0.651774 0.021022 0.159279
C20   C     C_R   0.798920 0.342102 0.004493 0.154952
C21   C     C_R   0.320499 0.853500 0.325354 0.085616
C22   C     C_R   0.389708 0.185949 0.301939 -0.010513
C23   C     C_R   0.815434 0.357117 0.324692 0.092762
C24   C     C_R   0.886203 0.685088 0.304199 0.006882
C25   C     C_R   0.625151 0.198603 0.007964 -0.125523
C26   C     C_R   0.625148 0.801015 0.009505 -0.133036
C27   C     C_R   0.125322 0.699024 0.007658 -0.122287
C28   C     C_R   0.153525 0.315713 0.969879 -0.125689
H17   H     H_    0.618137 0.254474 0.981480 0.083313
H18   H     H_    0.619175 0.744614 0.983041 0.087982
H19   H     H_    0.119548 0.754666 0.979495 0.083839
H20   H     H_    0.158721 0.258576 0.936524 0.091411
N17   N     N_R   0.591320 0.134600 0.004200 -0.050531
N18   N     N_R   0.591320 0.865400 0.004200 -0.045120
N19   N     N_R   0.091320 0.634600 0.004200 -0.049579
N20   N     N_R   0.091320 0.365400 0.004200 -0.047858
C29   C     C_R   0.650141 0.828890 0.780314 -0.138214
C30   C     C_R   0.600369 0.198686 0.792616 -0.145367
C31   C     C_R   0.146551 0.325055 0.778362 -0.138654
C32   C     C_R   0.100903 0.698589 0.792991 -0.127100
H21   H     H_    0.668674 0.777532 0.802144 0.097811
H22   H     H_    0.601592 0.254300 0.825209 0.098049
H23   H     H_    0.160800 0.269571 0.796928 0.091560
H24   H     H_    0.102859 0.754042 0.825364 0.096107
N21   N     N_R   0.578320 0.867660 0.846880 -0.040294
N22   N     N_R   0.578320 0.132340 0.846880 -0.037794
N23   N     N_R   0.078320 0.367660 0.846880 -0.039355
N24   N     N_R   0.078320 0.632340 0.846880 -0.037828
C33   C     C_R   0.592684 0.106262 0.696759 -0.147372
C34   C     C_R   0.640699 0.922448 0.685658 -0.119805
C35   C     C_R   0.094542 0.605958 0.695889 -0.162478
C36   C     C_R   0.139102 0.420719 0.684767 -0.115432
H25   H     H_    0.589772 0.075362 0.638214 0.130016
H26   H     H_    0.649695 0.957461 0.621526 0.093329
H27   H     H_    0.094230 0.575152 0.634975 0.101359
H28   H     H_    0.147954 0.455539 0.620591 0.093942
N25   N     N_R   0.573370 0.074390 0.787040 -0.038571
N26   N     N_R   0.573370 0.925610 0.787040 -0.042867
N27   N     N_R   0.073370 0.574390 0.787040 -0.033178
N28   N     N_R   0.073370 0.425610 0.787040 -0.042078
C37   C     C_R   0.636222 0.896590 0.101701 -0.142500
C38   C     C_R   0.636585 0.103782 0.100915 -0.153484
C39   C     C_R   0.165362 0.415165 0.058003 -0.136589
C40   C     C_R   0.134702 0.605268 0.103044 -0.161566
H29   H     H_    0.642661 0.924851 0.159193 0.103687
H30   H     H_    0.643848 0.076113 0.157914 0.095564
H31   H     H_    0.185444 0.449551 0.097583 0.103737
H32   H     H_    0.139567 0.578973 0.162823 0.096042
N29   N     N_R   0.596270 0.927870 0.064040 -0.042804
N30   N     N_R   0.596270 0.072130 0.064040 -0.042649
N31   N     N_R   0.096270 0.427870 0.064040 -0.045933
N32   N     N_R   0.096270 0.572130 0.064040 -0.042053
Ni1   Ni    Ni4+2 0.500000 0.131190 0.000000 0.213963
Ni2   Ni    Ni4+2 0.500000 0.868810 0.000000 0.218255
Ni3   Ni    Ni4+2 0.000000 0.631190 0.000000 0.211554
Ni4   Ni    Ni4+2 0.000000 0.368810 0.000000 0.221837
Ni5   Ni    Ni4+2 0.488650 0.000000 0.862740 0.216625
Ni6   Ni    Ni4+2 0.988650 0.500000 0.862740 0.218487
Ni7   Ni    Ni4+2 0.511350 0.000000 0.137260 0.219092
Ni8   Ni    Ni4+2 0.011350 0.500000 0.137260 0.222485
C41   C     C_R   0.654929 0.181452 0.066504 0.163051
C42   C     C_R   0.654275 0.818414 0.068944 0.136427
C43   C     C_R   0.153332 0.683021 0.068427 0.163201
C44   C     C_R   0.203256 0.347925 0.996143 0.158107
C45   C     C_R   0.690452 0.862048 0.678148 0.042641
C46   C     C_R   0.609923 0.184271 0.697666 0.037892
C47   C     C_R   0.187336 0.358836 0.676947 0.041199
C48   C     C_R   0.111670 0.683962 0.697596 0.020135
C49   C     C_3   0.247582 0.208235 0.463095 0.262789
C50   C     C_3   0.232808 0.864045 0.528219 0.244684
C51   C     C_3   0.745200 0.708337 0.468564 0.267636
C52   C     C_3   0.726206 0.366703 0.528389 0.245710
H33   H     H_    0.244531 0.145799 0.486585 0.122453
H34   H     H_    0.289809 0.880128 0.522185 0.042998
H35   H     H_    0.742906 0.646372 0.493166 0.122266
H36   H     H_    0.783106 0.379978 0.523987 0.045888
C53   C     C_3   0.192193 0.255437 0.567804 -0.578189
C54   C     C_3   0.179710 0.813456 0.629660 -0.559160
C55   C     C_3   0.691753 0.757052 0.572516 -0.575445
C56   C     C_3   0.668813 0.317565 0.630719 -0.571654
H37   H     H_    0.639114 0.786554 0.578185 0.206613
H38   H     H_    0.606277 0.346086 0.687296 0.196034
H39   H     H_    0.140110 0.285019 0.572211 0.206204
H40   H     H_    0.120259 0.844150 0.693167 0.192650
H41   H     H_    0.161580 0.214359 0.637526 0.181223
H42   H     H_    0.216010 0.804010 0.662659 0.168583
H43   H     H_    0.661846 0.716916 0.643173 0.179821
H44   H     H_    0.698858 0.314931 0.672711 0.165232
H45   H     H_    0.367316 0.160777 0.493751 0.164434
H46   H     H_    0.357846 0.756861 0.431147 0.181678
H47   H     H_    0.870438 0.663216 0.491155 0.167057
H48   H     H_    0.859649 0.259736 0.414363 0.177630
H49   H     H_    0.785423 0.729834 0.643786 0.157840
H50   H     H_    0.775398 0.193598 0.569336 0.172248
H51   H     H_    0.282242 0.227653 0.645280 0.152740
H52   H     H_    0.272315 0.669227 0.562108 0.178200
C57   C     C_3   0.370509 0.223257 0.471818 -0.468883
C58   C     C_3   0.306209 0.739528 0.426076 -0.497477
C59   C     C_3   0.871276 0.725419 0.469792 -0.479300
C60   C     C_3   0.801491 0.242489 0.423752 -0.486877
C61   C     C_3   0.848622 0.823912 0.370865 -0.446414
C62   C     C_3   0.676319 0.289365 0.433700 -0.400013
C63   C     C_3   0.352113 0.324017 0.370760 -0.445509
C64   C     C_3   0.182653 0.785972 0.433103 -0.360415
C65   C     C_3   0.341294 0.235225 0.398810 0.194314
C66   C     C_3   0.260275 0.813258 0.426571 0.176284
C67   C     C_3   0.838888 0.735446 0.400396 0.187701
C68   C     C_3   0.754377 0.316324 0.426230 0.180965
H53   H     H_    0.914749 0.842316 0.330671 0.171627
H54   H     H_    0.697328 0.253541 0.361739 0.170868
H55   H     H_    0.417578 0.342121 0.335238 0.172448
H56   H     H_    0.203814 0.739619 0.370936 0.161300
H57   H     H_    0.834694 0.836745 0.312648 0.174542
H58   H     H_    0.642735 0.339816 0.430179 0.193637
H59   H     H_    0.341853 0.338216 0.309396 0.171892
H60   H     H_    0.155440 0.833838 0.414162 0.199921
C69   C     C_3   0.747531 0.818415 0.576964 0.289427
C70   C     C_3   0.657547 0.233819 0.600827 0.265412
C71   C     C_3   0.246247 0.316419 0.575844 0.293619
C72   C     C_3   0.159761 0.733362 0.601331 0.238177
C73   C     C_3   0.815710 0.772143 0.575738 -0.384165
C74   C     C_3   0.745745 0.195639 0.526710 -0.355028
C75   C     C_3   0.313326 0.270031 0.577337 -0.391402
C76   C     C_3   0.243823 0.688311 0.521458 -0.352539
C77   C     C_3   0.787505 0.871842 0.474075 0.056324
C78   C     C_3   0.615509 0.244504 0.541369 0.066126
C79   C     C_3   0.288145 0.370922 0.473758 0.052115
C80   C     C_3   0.115021 0.752853 0.547208 0.019780
H61   H     H_    0.735449 0.888346 0.469314 0.112716
H62   H     H_    0.560422 0.284034 0.594273 0.083499
H63   H     H_    0.237555 0.387227 0.466035 0.115829
H64   H     H_    0.067852 0.800164 0.595573 0.131346
H65   H     H_    0.436914 0.242132 0.428798 0.182502
H66   H     H_    0.335328 0.704091 0.350948 0.178042
H67   H     H_    0.937217 0.746066 0.422814 0.195991
H68   H     H_    0.821291 0.203752 0.354088 0.177673
H69   H     H_    0.854657 0.809969 0.587598 0.174405
H70   H     H_    0.742529 0.133887 0.506678 0.166384
H71   H     H_    0.351337 0.307846 0.590868 0.174463
H72   H     H_    0.232208 0.634682 0.491015 0.165609
C81   C     C_2   0.195791 0.739173 0.090494 -0.213865
C82   C     C_2   0.275676 0.310214 0.976892 -0.173723
C83   C     C_2   0.699890 0.236437 0.084880 -0.212997
C84   C     C_2   0.697016 0.763415 0.092166 -0.161391
H73   H     H_    0.219080 0.718246 0.134419 0.123234
H74   H     H_    0.292772 0.327747 0.028917 0.133969
H75   H     H_    0.722044 0.216585 0.130586 0.123514
H76   H     H_    0.724461 0.787184 0.129682 0.147533
C85   C     C_2   0.726635 0.302845 0.027749 -0.187324
C86   C     C_2   0.716431 0.691654 0.047643 -0.186836
C87   C     C_2   0.219782 0.808025 0.038437 -0.186764
C88   C     C_2   0.306928 0.246196 0.914630 -0.225071
H77   H     H_    0.703445 0.324624 0.984298 0.123109
H78   H     H_    0.687615 0.666970 0.012470 0.120628
H79   H     H_    0.194409 0.830931 0.998053 0.124334
H80   H     H_    0.291870 0.230759 0.859743 0.125917
N33   N     N_R   0.214968 0.212437 0.399089 0.242073
O1    O     O_R   0.193357 0.148438 0.375723 -0.346018
O2    O     O_R   0.204035 0.279412 0.368848 -0.444330
N34   N     N_R   0.188305 0.937372 0.540721 0.233794
O3    O     O_R   0.169417 0.986226 0.617169 -0.425104
O4    O     O_R   0.175536 0.958961 0.470770 -0.391464
N35   N     N_R   0.710133 0.710676 0.407350 0.241220
O5    O     O_R   0.688815 0.645746 0.385480 -0.342214
O6    O     O_R   0.697140 0.776856 0.377690 -0.453480
N36   N     N_R   0.685646 0.442059 0.538218 0.233740
O7    O     O_R   0.666410 0.490139 0.615553 -0.423987
O8    O     O_R   0.676202 0.465662 0.465916 -0.386447
N37   N     N_2   0.823288 0.946108 0.475839 -0.120602
H81   H     H_    0.837442 0.983446 0.414545 0.162155
C89   C     C_3   0.884679 0.947988 0.497764 -0.848751
H82   H     H_    0.914722 0.006576 0.476753 0.251073
H83   H     H_    0.934727 0.903489 0.448949 0.246623
H84   H     H_    0.853067 0.939718 0.585390 0.247915
N38   N     N_2   0.581748 0.172525 0.529336 -0.109780
H85   H     H_    0.519648 0.176099 0.558197 0.163790
C90   C     C_3   0.631973 0.121613 0.435751 -0.971575
H86   H     H_    0.606660 0.061208 0.458366 0.250842
H87   H     H_    0.698458 0.119757 0.405267 0.258389
H88   H     H_    0.628183 0.141623 0.370298 0.245738
N39   N     N_2   0.321813 0.445383 0.479225 -0.120688
H89   H     H_    0.337835 0.483079 0.417434 0.163169
C91   C     C_3   0.379913 0.447621 0.506624 -0.849704
H90   H     H_    0.408243 0.506845 0.489367 0.250657
H91   H     H_    0.431541 0.404434 0.458213 0.246521
H92   H     H_    0.345745 0.437706 0.594484 0.248079
N40   N     N_2   0.070069 0.686742 0.543827 -0.103433
H93   H     H_    0.021838 0.668858 0.620648 0.175816
C92   C     C_3   0.036115 0.698548 0.483839 -0.976850
H94   H     H_    0.993036 0.649669 0.500572 0.251030
H95   H     H_    0.086646 0.698580 0.395505 0.258066
H96   H     H_    0.000591 0.754684 0.508696 0.255072

loop_
_geom_bond_atom_site_label_1
_geom_bond_atom_site_label_2
_geom_bond_distance
_ccdc_geom_bond_type
C26   H18   1.079139 S    
C58   C76   1.515365 S    
C60   C68   1.554242 S    
C62   C78   1.554539 S    
C57   H65   1.113204 S    
C59   C73   1.536512 S    
C51   N35   1.470899 S    
C14   N14   1.307967 A    
C63   C65   1.556828 S    
C91   H91   1.109494 S    
C6    H6    1.078935 S    
C29   N21   1.329734 A    
C89   H82   1.110889 S    
N20   N31   1.450606 A    
C4    H4    1.074919 S    
N28   Ni6   1.855018 S    
C31   N23   1.327389 A    
C89   H84   1.108607 S    
H45   C57   1.110001 S    
C18   C87   1.438317 S    
C7    H7    1.074745 S    
C72   C76   1.557884 S    
N24   Ni3   1.900073 S    
C21   C66   1.455071 S    
H52   C76   1.114897 S    
C42   C84   1.445689 S    
C4    C20   1.365650 A    
N22   Ni1   1.900073 S    
C1    H1    1.079621 S    
N27   Ni6   1.863831 S    
C15   N15   1.322649 A    
N21   Ni2   1.899899 S    
C14   H14   1.077382 S    
C24   C67   1.466038 S    
C3    H3    1.075945 S    
N35   O6    1.301405 A    
C75   H71   1.104339 S    
C12   C19   1.384068 A    
H51   C75   1.111383 S    
C76   H72   1.113809 S    
C30   N22   1.320375 A    
C38   H30   1.081680 S    
N1    Ni1   1.852158 S    
N15   Ni8   1.873489 S    
N25   Ni5   1.863831 S    
C92   H94   1.111091 S    
C52   C56   1.534528 S    
C6    N6    1.323536 A    
C20   C85   1.423692 S    
C1    C17   1.367808 A    
C73   H69   1.104110 S    
C77   N37   1.462765 S    
C9    C18   1.382318 A    
C2    C18   1.371746 A    
C27   N19   1.309263 A    
C53   H39   1.114260 S    
C37   N29   1.342104 A    
C10   N10   1.337226 A    
C55   C69   1.556867 S    
N40   H93   1.030317 S    
C63   C79   1.535435 S    
C39   N31   1.334998 A    
C29   C45   1.394263 A    
C30   H22   1.080513 S    
C91   H90   1.110887 S    
C40   C43   1.397400 A    
C29   H21   1.079317 S    
N26   Ni5   1.855018 S    
C49   N33   1.470838 S    
C4    N4    1.321312 A    
N39   H89   1.032093 S    
C49   C53   1.528434 S    
C79   H63   1.114305 S    
N5    Ni2   1.900093 S    
C19   C86   1.440512 S    
C32   H24   1.080964 S    
C52   H36   1.114072 S    
C44   C82   1.432957 S    
C50   H34   1.113508 S    
C72   C80   1.575540 S    
C7    N7    1.332314 A    
C43   C81   1.445842 S    
C17   C88   1.434387 S    
C8    N8    1.325807 A    
N37   C89   1.446721 S    
C49   C65   1.567628 S    
N14   Ni7   1.882403 S    
C41   C83   1.436373 S    
N18   N29   1.450606 A    
C71   C79   1.575568 S    
N30   Ni7   1.836766 S    
C2    H2    1.073671 S    
C56   C70   1.558374 S    
N17   N30   1.452883 A    
N18   Ni2   1.852808 S    
N17   Ni1   1.853084 S    
C38   C41   1.395124 A    
C26   N18   1.314431 A    
N19   N32   1.452883 A    
C83   H75   1.084542 S    
N38   C90   1.450799 S    
N22   N25   1.394957 A    
C9    H9    1.081496 S    
C35   H27   1.079321 S    
C61   C77   1.535741 S    
N21   N26   1.397153 A    
C31   H23   1.074968 S    
C51   C55   1.531872 S    
C62   C68   1.554322 S    
N23   N28   1.397153 A    
C88   H80   1.085318 S    
C12   H12   1.077834 S    
C1    N1    1.319257 A    
C11   H11   1.078258 S    
H48   C60   1.114578 S    
C10   C17   1.375548 A    
C54   C72   1.556982 S    
C84   H76   1.083216 S    
N32   Ni8   1.836766 S    
C3    C19   1.369950 A    
C48   C72   1.463916 S    
C15   H15   1.078921 S    
C80   N40   1.460377 S    
C63   H55   1.111762 S    
C34   H26   1.076976 S    
C71   C75   1.559398 S    
C33   C46   1.377795 A    
C53   H41   1.114490 S    
C61   H53   1.111857 S    
N31   Ni8   1.828181 S    
C57   C75   1.535808 S    
C7    C23   1.388817 A    
C35   C48   1.379125 A    
C61   C67   1.556986 S    
C59   H67   1.110127 S    
N35   O5    1.301078 A    
C8    C24   1.376074 A    
C5    C21   1.388206 A    
C49   H33   1.116456 S    
C90   H86   1.109887 S    
C3    N3    1.324143 A    
N37   H81   1.032123 S    
N36   O8    1.301203 A    
N38   H85   1.031992 S    
C39   C44   1.388422 A    
C8    H8    1.078728 S    
C16   C23   1.373219 A    
C82   C88   1.335021 D    
C32   C48   1.377243 A    
N13   Ni7   1.873489 S    
N33   O1    1.301160 A    
C50   C66   1.574522 S    
C5    N5    1.330016 A    
N40   C92   1.448056 S    
N8    Ni3   1.899906 S    
N4    N11   1.326380 A    
C36   N28   1.318371 A    
H50   C74   1.114783 S    
N39   C91   1.446632 S    
C38   N30   1.341973 A    
C78   N38   1.464569 S    
C78   H62   1.115729 S    
N11   Ni6   1.908468 S    
C74   H70   1.110558 S    
C46   C70   1.470547 S    
C87   H79   1.081515 S    
C13   C22   1.374934 A    
C27   C43   1.373294 A    
C23   C68   1.465505 S    
C6    C22   1.379060 A    
H49   C73   1.111854 S    
C10   H10   1.081873 S    
C69   C77   1.576549 S    
C52   N36   1.474430 S    
N3    Ni3   1.852158 S    
N1    N10   1.324307 A    
C90   H87   1.105335 S    
C91   H92   1.108661 S    
C50   N34   1.474473 S    
C28   C44   1.385875 A    
C47   C71   1.461766 S    
C56   H44   1.113138 S    
C13   N13   1.320900 A    
C2    N2    1.324466 A    
C37   H29   1.081670 S    
C51   H35   1.116295 S    
C11   C20   1.373977 A    
N4    Ni4   1.852074 S    
N5    N14   1.376947 A    
C70   C74   1.548041 S    
C86   H78   1.081837 S    
C16   N16   1.313818 A    
C40   N32   1.346624 A    
N3    N12   1.324307 A    
C69   C73   1.555498 S    
N7    N16   1.376947 A    
C58   C66   1.549569 S    
C61   H57   1.108345 S    
N8    N15   1.379114 A    
C53   C71   1.553753 S    
C54   H40   1.113735 S    
C36   H28   1.076797 S    
C25   N17   1.303026 A    
C55   H37   1.113973 S    
C34   N26   1.317994 A    
C62   H54   1.106086 S    
C58   H66   1.112921 S    
C25   C41   1.374395 A    
C89   H83   1.109530 S    
C25   H17   1.079218 S    
C83   C85   1.338476 D    
C31   C47   1.388691 A    
N29   Ni7   1.828181 S    
N6    Ni1   1.899906 S    
C35   N27   1.320108 A    
C40   H32   1.081337 S    
C27   H19   1.079174 S    
C81   C87   1.342610 D    
C5    H5    1.075759 S    
C28   H20   1.077428 S    
C92   H96   1.111099 S    
C11   N11   1.334044 A    
H46   C58   1.114168 S    
N24   N27   1.394957 A    
C64   C66   1.555343 S    
C64   H56   1.111966 S    
C33   N25   1.322559 A    
C32   N24   1.316015 A    
C22   C65   1.462781 S    
N12   Ni6   1.899505 S    
C64   C80   1.550743 S    
N19   Ni3   1.853084 S    
N36   O7    1.301284 A    
C82   H74   1.083536 S    
C14   C21   1.369068 A    
C63   H59   1.107985 S    
C79   N39   1.463008 S    
C30   C46   1.381707 A    
C36   C47   1.379645 A    
C77   H61   1.114300 S    
N7    Ni4   1.900093 S    
C52   C68   1.573461 S    
H47   C59   1.109595 S    
N33   O2    1.301388 A    
C81   H73   1.083991 S    
N23   Ni4   1.899899 S    
N2    N9    1.326380 A    
C39   H31   1.080249 S    
C37   C42   1.393979 A    
C13   H13   1.078966 S    
N2    Ni2   1.852074 S    
C51   C67   1.564468 S    
C55   H43   1.114397 S    
C28   N20   1.317581 A    
N34   O4    1.301089 A    
C15   C24   1.375317 A    
C90   H88   1.110938 S    
C64   H60   1.109990 S    
C45   C69   1.467445 S    
C16   H16   1.077094 S    
N6    N13   1.379114 A    
N9    Ni5   1.908468 S    
N34   O3    1.301335 A    
C12   N12   1.340596 A    
C56   H38   1.113721 S    
C60   H68   1.112724 S    
C9    N9    1.337033 A    
C60   C74   1.515384 S    
C26   C42   1.377255 A    
N10   Ni5   1.899505 S    
C85   H77   1.080899 S    
N16   Ni8   1.882403 S    
C62   H58   1.108841 S    
N20   Ni4   1.852808 S    
C34   C45   1.381800 A    
C92   H95   1.109091 S    
C57   C65   1.558090 S    
C50   C54   1.531297 S    
C33   H25   1.076191 S    
C80   H64   1.115652 S    
C84   C86   1.341243 D    
C59   C67   1.552950 S    
C70   C78   1.576584 S    
C54   H42   1.114651 S    
