data_mof_unit_1478.cif
_audit_creation_date              2012-12-11T15:37:03-0500
_audit_creation_method            fapswitch 2.2
_symmetry_space_group_name_H-M    P1
_symmetry_Int_Tables_number       1
_space_group_crystal_system       triclinic
_cell_length_a                    15.056986
_cell_length_b                    15.06723
_cell_length_c                    34.819927
_cell_angle_alpha                 91.28358
_cell_angle_beta                  91.806451
_cell_angle_gamma                 60.091304
_cell_volume                      6843.84201851

loop_
_atom_site_label
_atom_site_type_symbol
_atom_type_description
_atom_site_fract_x
_atom_site_fract_y
_atom_site_fract_z
_atom_type_partial_charge
C1    C     C_R   0.610618 0.302838 0.443985 0.541637
C2    C     C_R   0.595610 0.109049 0.764978 -0.160657
C3    C     C_R   0.108518 0.760638 0.890328 -0.125619
C4    C     C_R   0.149069 0.744690 0.853847 -0.117843
C5    C     C_R   0.156835 0.663687 0.830833 0.033961
C6    C     C_R   0.131161 0.594023 0.845976 -0.120351
C7    C     C_R   0.091078 0.609628 0.882615 -0.127357
C8    C     C_R   0.240811 0.565656 0.771376 -0.116503
C9    C     C_R   0.250320 0.561545 0.731635 -0.122828
C10   C     C_R   0.197793 0.651316 0.709819 0.026156
C11   C     C_R   0.138288 0.745557 0.728321 -0.118384
C12   C     C_R   0.128486 0.749651 0.767983 -0.114908
C13   C     C_R   0.582690 0.187129 0.790888 -0.000862
C14   C     C_R   0.655594 0.769534 0.164900 -0.132161
C15   C     C_R   0.178476 0.659598 0.789752 0.028140
C16   C     C_R   0.225509 0.715556 0.648696 -0.122493
C17   C     C_R   0.246602 0.702512 0.609692 -0.127672
C18   C     C_R   0.220696 0.555947 0.607907 -0.122424
C19   C     C_R   0.199738 0.569005 0.646901 -0.118963
C20   C     C_R   0.205971 0.646383 0.667821 0.033310
C21   C     C_R   0.248870 0.619768 0.589379 0.023596
C22   C     C_R   0.671803 0.081724 0.906466 0.021486
C23   C     C_R   0.592098 0.073285 0.887853 -0.129188
C24   C     C_R   0.540300 0.208955 0.642736 -0.121867
C25   C     C_R   0.558497 0.112591 0.850872 -0.127046
C26   C     C_R   0.823223 0.618117 0.161709 -0.115959
C27   C     C_R   0.545689 0.227782 0.604034 -0.126178
C28   C     C_R   0.688922 0.254532 0.619097 -0.123954
C29   C     C_R   0.682746 0.236734 0.657824 -0.091531
C30   C     C_R   0.606115 0.217427 0.670025 0.058002
C31   C     C_R   0.617714 0.254387 0.592043 0.020877
C32   C     C_R   0.045634 0.739026 0.048562 0.539455
C33   C     C_R   0.740303 0.688768 0.183397 0.010607
C34   C     C_R   0.747598 0.746472 0.064183 0.562362
C35   C     C_R   0.751141 0.040560 0.050579 0.541377
C36   C     C_R   0.018112 0.722067 0.940050 0.543075
C37   C     C_R   0.717050 0.729896 0.954974 0.541388
C38   C     C_R   0.824739 0.631169 0.122061 0.092664
C39   C     C_R   0.721301 0.024616 0.942028 0.542350
C40   C     C_R   0.770248 0.584577 0.241968 -0.111645
C41   C     C_R   0.762323 0.577824 0.281409 -0.108576
C42   C     C_R   0.726364 0.665595 0.304886 0.030893
C43   C     C_R   0.703277 0.759191 0.288525 -0.118463
C44   C     C_R   0.603347 0.161770 0.832230 0.017301
C45   C     C_R   0.710874 0.765976 0.249055 -0.118008
C46   C     C_R   0.741865 0.679249 0.225404 0.028917
C47   C     C_R   0.607444 0.736536 0.359662 -0.118886
C48   C     C_R   0.593492 0.610359 0.449540 0.544960
C49   C     C_R   0.574654 0.723110 0.394909 -0.125988
C50   C     C_R   0.733238 0.562167 0.403035 -0.126322
C51   C     C_R   0.766092 0.575763 0.367825 -0.121183
C52   C     C_R   0.701821 0.661147 0.345205 0.032635
C53   C     C_R   0.635584 0.633872 0.416182 0.022283
C54   C     C_R   0.103045 0.728360 0.084889 0.022410
C55   C     C_R   0.678877 0.175027 0.851756 -0.117336
C56   C     C_R   0.146779 0.635209 0.104757 -0.128322
C57   C     C_R   0.170681 0.631998 0.143801 -0.121574
C58   C     C_R   0.153050 0.721274 0.163413 0.029787
C59   C     C_R   0.120239 0.811853 0.142954 -0.123508
C60   C     C_R   0.304166 0.591268 0.442280 0.543747
C61   C     C_R   0.095173 0.815498 0.103790 -0.128155
C62   C     C_R   0.225166 0.742990 0.226175 -0.111332
C63   C     C_R   0.233841 0.733093 0.266128 -0.114368
C64   C     C_R   0.173097 0.702928 0.285768 0.039987
C65   C     C_R   0.099841 0.688239 0.265176 -0.091061
C66   C     C_R   0.712523 0.135738 0.888505 -0.127202
C67   C     C_R   0.092339 0.696554 0.225324 -0.119138
C68   C     C_R   0.156502 0.721695 0.205577 0.025197
C69   C     C_R   0.212587 0.582838 0.340907 0.112078
C70   C     C_R   0.240815 0.558528 0.379664 -0.104480
C71   C     C_R   0.227603 0.723825 0.390976 -0.139049
C72   C     C_R   0.605117 0.301503 0.554067 0.541336
C73   C     C_R   0.197712 0.749556 0.352665 -0.152331
C74   C     C_R   0.192151 0.678992 0.327152 0.058581
C75   C     C_R   0.252071 0.627051 0.404556 -0.000662
C76   C     C_R   0.724019 0.099240 0.086736 0.024566
C77   C     C_R   0.566231 0.281735 0.776451 0.247751
C78   C     C_R   0.800388 0.104944 0.109032 -0.126121
C79   C     C_R   0.783256 0.135364 0.147406 -0.119404
C80   C     C_R   0.689152 0.161950 0.163743 0.028686
C81   C     C_R   0.609623 0.165537 0.140588 -0.119941
C82   C     C_R   0.627112 0.133828 0.102318 -0.124531
C83   C     C_R   0.592430 0.259928 0.221206 -0.051593
C84   C     C_R   0.586978 0.605948 0.559451 0.564183
C85   C     C_R   0.581932 0.272662 0.260986 0.252699
C86   C     C_R   0.656395 0.195316 0.285507 0.018412
C87   C     C_R   0.740627 0.109722 0.269439 -0.156217
C88   C     C_R   0.573136 0.292077 0.736715 0.152599
C89   C     C_R   0.751638 0.099995 0.229861 -0.137198
C90   C     C_R   0.677790 0.175006 0.205542 -0.022956
C91   C     C_R   0.733122 0.199697 0.349078 -0.125584
C92   C     C_R   0.723365 0.222839 0.388143 -0.123787
C93   C     C_R   0.551961 0.245817 0.385496 -0.134219
C94   C     C_R   0.562226 0.221737 0.346382 -0.128655
C95   C     C_R   0.650869 0.203774 0.327657 0.015734
C96   C     C_R   0.299351 0.588475 0.552150 0.543983
C97   C     C_R   0.630790 0.251140 0.406286 0.022146
C98   C     C_R   0.690377 0.687698 0.920632 0.020020
C99   C     C_R   0.592324 0.210362 0.711394 0.017031
C100  C     C_R   0.763602 0.593395 0.904840 -0.128747
C101  C     C_R   0.749374 0.565103 0.867707 -0.129501
C102  C     C_R   0.661603 0.630309 0.845800 0.046583
C103  C     C_R   0.584476 0.720240 0.862739 -0.098174
C104  C     C_R   0.598494 0.748506 0.899914 -0.134437
C105  C     C_R   0.569955 0.621446 0.784985 0.117175
C106  C     C_R   0.565050 0.620421 0.744593 -0.093114
C107  C     C_R   0.646826 0.610704 0.722977 0.006363
C108  C     C_R   0.741427 0.716501 0.103777 0.058251
C109  C     C_R   0.735656 0.597868 0.742065 -0.129932
C110  C     C_R   0.599588 0.120871 0.725645 -0.169294
C111  C     C_R   0.741037 0.599515 0.782048 -0.143760
C112  C     C_R   0.657954 0.613605 0.803871 0.055658
C113  C     C_R   0.719435 0.547381 0.657689 -0.109042
C114  C     C_R   0.707945 0.547913 0.617483 0.092877
C115  C     C_R   0.535489 0.692702 0.622918 -0.153654
C116  C     C_R   0.547437 0.691120 0.662737 -0.131700
C117  C     C_R   0.638136 0.616524 0.680558 0.016175
C118  C     C_R   0.613530 0.618849 0.599797 0.061684
C119  C     C_R   0.075750 0.695384 0.904413 0.023167
C120  C     C_R   0.655889 0.782969 0.125561 -0.154428
Cr1   Cr    Cr6+3 0.426010 0.422500 0.497000 1.009625
Cr2   Cr    Cr6+3 0.651300 0.426310 0.501970 1.032425
Cr3   Cr    Cr6+3 0.422670 0.651170 0.501050 1.007931
Cr4   Cr    Cr6+3 0.905130 0.911420 0.992650 1.009523
Cr5   Cr    Cr6+3 0.911860 0.682710 0.002320 1.033802
Cr6   Cr    Cr6+3 0.682710 0.906840 0.004710 1.009944
H1    H     H_    0.590480 0.848559 0.112559 0.134157
H2    H     H_    0.197180 0.561197 0.159249 0.113991
H3    H     H_    0.050687 0.667235 0.279843 0.143590
H4    H     H_    0.037605 0.681673 0.209740 0.112379
H5    H     H_    0.260662 0.483136 0.389667 0.122926
H6    H     H_    0.106508 0.881339 0.157823 0.102728
H7    H     H_    0.235738 0.778104 0.409542 0.128329
H8    H     H_    0.875867 0.078490 0.097783 0.122093
H9    H     H_    0.566912 0.130457 0.085628 0.118910
H10   H     H_    0.498940 0.222872 0.330268 0.128193
H11   H     H_    0.535526 0.318453 0.202464 0.133942
H12   H     H_    0.499190 0.779833 0.404385 0.127703
H13   H     H_    0.839905 0.517443 0.357524 0.105358
H14   H     H_    0.845041 0.133428 0.164859 0.105333
H15   H     H_    0.798182 0.050179 0.287671 0.116972
H16   H     H_    0.817140 0.032883 0.218142 0.121519
H17   H     H_    0.802657 0.184602 0.335118 0.106805
H18   H     H_    0.785828 0.225324 0.403460 0.128209
H19   H     H_    0.536473 0.185960 0.152773 0.104766
H20   H     H_    0.479973 0.266630 0.398770 0.124390
H21   H     H_    0.834950 0.544510 0.920143 0.125143
H22   H     H_    0.540637 0.821632 0.911219 0.125250
H23   H     H_    0.888728 0.554760 0.175741 0.099973
H24   H     H_    0.484572 0.747068 0.679720 0.109080
H25   H     H_    0.779053 0.505033 0.293189 0.106879
H26   H     H_    0.497287 0.627439 0.729951 0.109688
H27   H     H_    0.809589 0.495117 0.855233 0.105005
H28   H     H_    0.799455 0.590706 0.726054 0.109859
H29   H     H_    0.808785 0.594374 0.795987 0.109959
H30   H     H_    0.790630 0.490115 0.671035 0.098430
H31   H     H_    0.516757 0.772536 0.846234 0.137900
H32   H     H_    0.462150 0.748404 0.610490 0.128521
H33   H     H_    0.099178 0.826347 0.906890 0.122703
H34   H     H_    0.782423 0.493181 0.419071 0.125560
H35   H     H_    0.793904 0.516889 0.224200 0.105589
H36   H     H_    0.066701 0.558025 0.892909 0.125611
H37   H     H_    0.182361 0.516340 0.661046 0.103204
H38   H     H_    0.298470 0.488257 0.717903 0.113551
H39   H     H_    0.280874 0.495484 0.787682 0.120269
H40   H     H_    0.170234 0.798201 0.842944 0.108309
H41   H     H_    0.096884 0.815536 0.711979 0.103897
H42   H     H_    0.078405 0.822793 0.781437 0.106055
H43   H     H_    0.230551 0.775892 0.664349 0.099772
H44   H     H_    0.268120 0.752904 0.596200 0.122884
H45   H     H_    0.154672 0.566589 0.090942 0.126933
H46   H     H_    0.135806 0.531366 0.828613 0.102289
H47   H     H_    0.589598 0.823451 0.181054 0.113024
H48   H     H_    0.221172 0.491931 0.592933 0.127680
H49   H     H_    0.559723 0.031548 0.900935 0.123693
H50   H     H_    0.773821 0.143740 0.902160 0.128584
H51   H     H_    0.735355 0.241741 0.678520 0.115799
H52   H     H_    0.500382 0.101204 0.836218 0.105322
H53   H     H_    0.613319 0.058013 0.706400 0.120663
H54   H     H_    0.608664 0.036157 0.775365 0.124937
H55   H     H_    0.481325 0.193157 0.651667 0.103811
H56   H     H_    0.061543 0.888405 0.089265 0.122962
H57   H     H_    0.676714 0.827570 0.306119 0.105525
H58   H     H_    0.489769 0.227142 0.583859 0.121218
H59   H     H_    0.715785 0.211157 0.837752 0.137878
H60   H     H_    0.744938 0.275195 0.610850 0.123093
H61   H     H_    0.690710 0.839375 0.236862 0.109492
H62   H     H_    0.555944 0.802677 0.342637 0.103566
H63   H     H_    0.921866 0.486526 0.104552 0.215860
H64   H     H_    0.976988 0.559334 0.113092 0.226018
H65   H     H_    0.222746 0.443446 0.330014 0.219215
H66   H     H_    0.274075 0.482718 0.296987 0.265156
H67   H     H_    0.182043 0.823591 0.342561 0.105300
H68   H     H_    0.514609 0.375155 0.301110 0.331659
H69   H     H_    0.426578 0.637972 0.788567 0.235362
H70   H     H_    0.512504 0.563016 0.821961 0.268541
H71   H     H_    0.810788 0.401402 0.604141 0.222239
H72   H     H_    0.854340 0.484740 0.600647 0.217055
H73   H     H_    0.487945 0.445562 0.729858 0.251525
H74   H     H_    0.615600 0.399728 0.734693 0.254146
H75   H     H_    0.521485 0.355198 0.825091 0.326269
H76   H     H_    0.290876 0.744758 0.281529 0.109740
H77   H     H_    0.274700 0.762999 0.211243 0.110113
N1    N     N_3   0.912469 0.559462 0.101002 -0.600301
N2    N     N_3   0.211581 0.507667 0.314985 -0.642964
N3    N     N_3   0.486098 0.631141 0.806848 -0.640591
N4    N     N_3   0.791334 0.474633 0.594957 -0.611086
N5    N     N_3   0.559793 0.386091 0.721851 -0.620048
O1    O     O_R   0.324990 0.503440 0.453910 -0.521181
O2    O     O_R   0.675430 0.831160 0.051290 -0.531290
O3    O     O_R   0.698870 0.998880 0.039560 -0.500985
O4    O     O_R   0.522030 0.339050 0.458320 -0.503669
O5    O     O_R   0.811290 0.006780 0.950620 -0.516614
O6    O     O_R   0.980960 0.812920 0.953200 -0.501471
O7    O     O_R   0.001480 0.656720 0.955830 -0.520369
O8    O     O_R   0.809240 0.683250 0.968050 -0.502077
O9    O     O_R   0.652500 0.818540 0.967340 -0.520175
O10   O     O_R   0.677620 0.987170 0.961730 -0.501897
O11   O     O_3   0.833240 0.833660 0.999890 -0.240734
O12   O     O_R   0.639980 0.519500 0.542640 -0.457373
O13   O     O_R   0.676180 0.324490 0.458320 -0.519830
O14   O     O_R   0.643570 0.521510 0.464260 -0.501498
O15   O     O_R   0.504630 0.675350 0.460920 -0.519536
O16   O     O_R   0.339850 0.642450 0.459830 -0.498778
O17   O     O_R   0.321120 0.501280 0.538470 -0.517859
O18   O     O_R   0.518440 0.337050 0.536710 -0.501333
O19   O     O_R   0.672300 0.322330 0.542880 -0.513002
O20   O     O_3   0.500193 0.362493 0.274272 -0.724880
O21   O     O_3   0.544727 0.364752 0.800026 -0.742679
O22   O     O_R   0.500750 0.673190 0.545480 -0.534606
O23   O     O_R   0.336260 0.640450 0.538210 -0.505454
O24   O     O_3   0.499990 0.499990 0.500010 -0.240752
O25   O     O_R   0.834210 0.019400 0.034570 -0.521377
O26   O     O_R   0.002210 0.824620 0.031030 -0.505073
O27   O     O_R   0.024400 0.669340 0.039790 -0.508159
O28   O     O_R   0.830490 0.694950 0.045870 -0.453633

loop_
_geom_bond_atom_site_label_1
_geom_bond_atom_site_label_2
_ccdc_geom_bond_type
C11   H41   S    
C38   C108  A    
C40   C41   A    
C93   C94   A    
C63   H76   S    
C73   H67   S    
C18   C21   A    
C41   C42   A    
C104  H22   S    
C39   O10   A    
C102  C112  S    
C111  C112  A    
C24   C27   A    
C37   O9    A    
C34   O28   A    
C38   N1    S    
C14   C33   A    
C116  H24   S    
C81   C82   A    
C120  H1    S    
C105  N3    S    
C47   C49   A    
H70   N3    S    
C32   O26   A    
C85   C86   A    
C114  N4    S    
C40   C46   A    
Cr3   O22   S    
C61   H56   S    
C101  C102  A    
Cr2   O12   S    
C105  C106  A    
C17   H44   S    
C28   C29   A    
C76   C78   A    
C14   H47   S    
Cr6   O3    S    
C109  C111  A    
C36   O7    A    
H65   N2    S    
C5    C6    A    
Cr5   O8    S    
C49   C53   A    
Cr1   O4    S    
C23   H49   S    
C106  C107  A    
Cr2   O19   S    
C100  H21   S    
C89   H16   S    
Cr1   O17   S    
C116  C117  A    
C1    O13   A    
C18   C19   A    
H66   N2    S    
C96   O23   A    
H68   O20   S    
C82   H9    S    
C36   C119  S    
C2    C13   A    
C35   O3    A    
C27   H58   S    
C22   C66   A    
C84   O12   A    
C36   O6    A    
C16   H43   S    
Cr3   O24   S    
C19   C20   A    
C77   C88   A    
C10   C20   S    
C8    C9    A    
C65   C67   A    
C72   O19   A    
C94   H10   S    
C35   O25   A    
Cr1   O1    S    
C29   C30   A    
C34   O2    A    
C60   O1    A    
C37   O8    A    
Cr6   O9    S    
Cr4   O26   S    
C69   N2    S    
H75   O21   S    
C79   H14   S    
H72   N4    S    
Cr4   O11   S    
H74   N5    S    
Cr1   O24   S    
C29   H51   S    
C49   H12   S    
C63   C64   A    
C1    O4    A    
C3    H33   S    
C33   C46   S    
C107  C109  A    
C66   H50   S    
C94   C95   A    
C2    H54   S    
C88   N5    S    
C60   O16   A    
C25   C44   A    
C32   C54   S    
C37   C98   S    
C92   C97   A    
C100  C101  A    
C91   H17   S    
Cr4   O5    S    
C26   H23   S    
H63   N1    S    
C48   C53   S    
C59   H6    S    
C7    H36   S    
C13   C77   A    
C35   C76   S    
C59   C61   A    
C50   C53   A    
C106  H26   S    
C39   O5    A    
C115  H32   S    
C27   C31   A    
C51   C52   A    
C7    C119  A    
C93   H20   S    
Cr6   O2    S    
C76   C82   A    
C91   C92   A    
C71   C73   A    
C78   C79   A    
C45   H61   S    
Cr4   O6    S    
C50   H34   S    
C58   C59   A    
C45   C46   A    
C99   C110  A    
Cr3   O15   S    
C30   C99   S    
Cr2   O13   S    
C17   C21   A    
Cr1   O18   S    
C67   C68   A    
C9    H38   S    
C71   H7    S    
C62   C63   A    
Cr5   O27   S    
C28   H60   S    
C78   H8    S    
C26   C33   A    
C12   C15   A    
C101  H27   S    
C16   C20   A    
C115  C118  A    
C50   C51   A    
Cr3   O23   S    
C69   C74   A    
C85   O20   S    
C19   H37   S    
C87   H15   S    
C109  H28   S    
C43   C45   A    
C114  C118  A    
C3    C119  A    
C113  C117  A    
Cr4   O25   S    
C18   H48   S    
C58   C68   S    
C31   C72   S    
C54   C61   A    
C105  C112  A    
C8    C15   A    
C81   H19   S    
C87   C89   A    
C56   H45   S    
C57   H2    S    
H71   N4    S    
C67   H4    S    
C42   C43   A    
C113  H30   S    
C1    C97   S    
C3    C4    A    
C73   C74   A    
C93   C97   A    
C83   H11   S    
C55   C66   A    
C84   O22   A    
Cr6   O11   S    
C86   C87   A    
C115  C116  A    
C113  C114  A    
C9    C10   A    
C8    H39   S    
C56   C57   A    
C83   C90   A    
C2    C110  A    
H73   N5    S    
Cr5   O11   S    
C48   O15   A    
C83   C85   A    
C24   H55   S    
C25   H52   S    
C77   O21   S    
C28   C31   A    
C26   C38   A    
C80   C81   A    
C108  C120  A    
C12   H42   S    
C65   H3    S    
C11   C12   A    
C54   C56   A    
C6    C7    A    
C41   H25   S    
C21   C96   S    
Cr2   O24   S    
Cr3   O16   S    
C60   C75   S    
C98   C100  A    
C14   C120  A    
C62   C68   A    
C34   C108  S    
C96   O17   A    
C47   H62   S    
C40   H35   S    
Cr5   O28   S    
C64   C65   A    
C71   C75   A    
Cr5   O7    S    
C44   C55   A    
H64   N1    S    
C57   C58   A    
C16   C17   A    
H69   N3    S    
C48   O14   A    
C110  H53   S    
C98   C104  A    
C22   C39   S    
C43   H57   S    
C70   H5    S    
C24   C30   A    
C4    H40   S    
C55   H59   S    
C80   C90   S    
C102  C103  A    
C92   H18   S    
C69   C70   A    
C62   H77   S    
C5    C15   S    
C88   C99   A    
C10   C11   A    
C91   C95   A    
C79   C80   A    
C4    C5    A    
C23   C25   A    
C103  H31   S    
C70   C75   A    
C84   C118  S    
Cr2   O14   S    
C47   C52   A    
C103  C104  A    
C64   C74   S    
C22   C23   A    
C6    H46   S    
C72   O18   A    
C86   C95   S    
C89   C90   A    
C111  H29   S    
C107  C117  S    
C13   C44   S    
Cr6   O10   S    
C42   C52   S    
C32   O27   A    
C51   H13   S    
