data_mof_unit_3765.cif
_audit_creation_date              2012-12-10T17:46:31-0500
_audit_creation_method            fapswitch 2.2
_symmetry_space_group_name_H-M    P1
_symmetry_Int_Tables_number       1
_space_group_crystal_system       triclinic
_cell_length_a                    20.792294
_cell_length_b                    21.209119
_cell_length_c                    14.742117
_cell_angle_alpha                 90.006385
_cell_angle_beta                  127.821726
_cell_angle_gamma                 89.999524
_cell_volume                      5135.34228967

loop_
_atom_site_label
_atom_site_type_symbol
_atom_type_description
_atom_site_fract_x
_atom_site_fract_y
_atom_site_fract_z
_atom_type_partial_charge
C1    C     C_R   0.602381 0.913396 0.630947 0.802352
C2    C     C_R   0.396154 0.085410 0.367218 0.803757
C3    C     C_R   0.396232 0.914538 0.367316 0.803047
C4    C     C_R   0.603848 0.085411 0.632790 0.804268
C5    C     C_R   0.102283 0.413314 0.630847 0.801975
C6    C     C_R   0.896256 0.585479 0.367349 0.803971
C7    C     C_R   0.897726 0.413302 0.369161 0.801715
C8    C     C_R   0.102346 0.586633 0.630912 0.803037
C9    C     C_R   0.293804 0.799887 0.882728 -0.229077
C10   C     C_R   0.706650 0.199725 0.117907 -0.227244
C11   C     C_R   0.654255 0.761328 0.056507 -0.226200
C12   C     C_R   0.293583 0.199915 0.882386 -0.226261
C13   C     C_R   0.846962 0.260400 0.944843 -0.228367
C14   C     C_R   0.154525 0.738349 0.056984 -0.226299
C15   C     C_R   0.153330 0.260650 0.055558 -0.228754
C16   C     C_R   0.794942 0.700783 0.883834 -0.229283
C17   C     C_R   0.322392 0.998073 0.666324 -0.323500
C18   C     C_R   0.677504 0.003120 0.333560 -0.320594
C19   C     C_R   0.822447 0.503191 0.666360 -0.321244
C20   C     C_R   0.177542 0.498037 0.333602 -0.318414
C21   C     C_R   0.351958 0.998745 0.603342 0.069971
C22   C     C_R   0.648014 0.001681 0.396605 0.070607
C23   C     C_R   0.851979 0.501725 0.603359 0.070154
C24   C     C_R   0.148024 0.498724 0.396624 0.070381
C25   C     C_R   0.488026 0.000891 0.775126 0.000049
C26   C     C_R   0.511913 0.999450 0.224863 0.000891
C27   C     C_R   0.988039 0.499423 0.775127 -0.001270
C28   C     C_R   0.011928 0.500902 0.224873 -0.000194
C29   C     C_R   0.461813 0.000494 0.844782 -0.024708
C30   C     C_R   0.538044 0.000692 0.155134 -0.024472
C31   C     C_R   0.961865 0.500689 0.844811 -0.025984
C32   C     C_R   0.038090 0.500498 0.155169 -0.026106
C33   C     C_R   0.376793 0.998811 0.786739 0.162611
C34   C     C_R   0.623050 0.002732 0.213144 0.162981
C35   C     C_R   0.876864 0.502782 0.786779 0.163024
C36   C     C_R   0.123103 0.498784 0.213192 0.162847
C37   C     C_R   0.516054 0.001484 0.968533 0.076893
C38   C     C_R   0.483758 0.000130 0.031363 0.078378
C39   C     C_R   0.016120 0.500109 0.968573 0.073065
C40   C     C_R   0.983829 0.501507 0.031406 0.075430
C41   C     C_R   0.398405 0.998272 0.968284 -0.252049
C42   C     C_R   0.601374 0.003941 0.031584 -0.245273
C43   C     C_R   0.898511 0.504035 0.968342 -0.244589
C44   C     C_R   0.101457 0.498202 0.031643 -0.238933
C45   C     C_R   0.346380 0.997765 0.848849 -0.205741
C46   C     C_R   0.653409 0.004520 0.151005 -0.200211
C47   C     C_R   0.846488 0.504620 0.848905 -0.200117
C48   C     C_R   0.153489 0.497707 0.151070 -0.193412
C49   C     C_R   0.667051 0.131046 0.712398 -0.054117
C50   C     C_R   0.333320 0.868671 0.288089 -0.052615
C51   C     C_R   0.332988 0.131072 0.287668 -0.053803
C52   C     C_R   0.656108 0.860277 0.698968 -0.054537
C53   C     C_R   0.155906 0.639868 0.698758 -0.055190
C54   C     C_R   0.844412 0.359888 0.301563 -0.054027
C55   C     C_R   0.833376 0.631361 0.288139 -0.053285
C56   C     C_R   0.155655 0.359950 0.698519 -0.054296
C57   C     C_R   0.781574 0.197525 0.772872 -0.196858
C58   C     C_R   0.219535 0.801536 0.228501 -0.196797
C59   C     C_R   0.218568 0.197648 0.227329 -0.197298
C60   C     C_R   0.746414 0.775975 0.731333 -0.198358
C61   C     C_R   0.245487 0.724601 0.730389 -0.198324
C62   C     C_R   0.754794 0.275187 0.269969 -0.197602
C63   C     C_R   0.719171 0.698130 0.227974 -0.196757
C64   C     C_R   0.245385 0.275309 0.730259 -0.197157
C65   C     C_R   0.721556 0.154854 0.694982 -0.193822
C66   C     C_R   0.279166 0.844556 0.305931 -0.193568
C67   C     C_R   0.278499 0.154899 0.305107 -0.193450
C68   C     C_R   0.700056 0.828796 0.669297 -0.191644
C69   C     C_R   0.199431 0.671611 0.668644 -0.191919
C70   C     C_R   0.800710 0.328273 0.331503 -0.191523
C71   C     C_R   0.778873 0.655192 0.305539 -0.193829
C72   C     C_R   0.199392 0.328340 0.668625 -0.191920
C73   C     C_R   0.674054 0.149397 0.809133 -0.256722
C74   C     C_R   0.326368 0.850282 0.191429 -0.256512
C75   C     C_R   0.326037 0.149467 0.190999 -0.256121
C76   C     C_R   0.659328 0.838733 0.791154 -0.251513
C77   C     C_R   0.159270 0.661311 0.791116 -0.251809
C78   C     C_R   0.841488 0.338131 0.209694 -0.251234
C79   C     C_R   0.826767 0.650005 0.191856 -0.256869
C80   C     C_R   0.158635 0.338254 0.790459 -0.251767
C81   C     C_R   0.735717 0.190644 0.890931 0.089511
C82   C     C_R   0.265056 0.808706 0.110050 0.089512
C83   C     C_R   0.264452 0.190790 0.109297 0.089533
C84   C     C_R   0.702403 0.783964 0.851528 0.090398
C85   C     C_R   0.202023 0.716240 0.851193 0.090534
C86   C     C_R   0.798788 0.283143 0.149770 0.090103
C87   C     C_R   0.765362 0.691455 0.110290 0.089454
C88   C     C_R   0.201419 0.283318 0.850502 0.090191
C89   C     C_R   0.788416 0.216178 0.869742 0.165916
C90   C     C_R   0.212713 0.782869 0.131657 0.164970
C91   C     C_R   0.211785 0.216352 0.130535 0.166038
C92   C     C_R   0.748102 0.753438 0.822243 0.162986
C93   C     C_R   0.247288 0.747045 0.821448 0.162852
C94   C     C_R   0.753249 0.252538 0.179232 0.162463
C95   C     C_R   0.712614 0.716973 0.131411 0.164906
C96   C     C_R   0.246964 0.252706 0.821044 0.162160
C97   C     C_R   0.744287 0.208976 0.990631 0.064739
C98   C     C_R   0.256485 0.790378 0.010350 0.064897
C99   C     C_R   0.255923 0.209160 0.009644 0.064324
C100  C     C_R   0.702809 0.759784 0.941823 0.064757
C101  C     C_R   0.202537 0.740316 0.941642 0.064765
C102  C     C_R   0.798474 0.258873 0.059596 0.065346
C103  C     C_R   0.757025 0.709915 0.010822 0.065022
C104  C     C_R   0.201772 0.259084 0.940735 0.065450
C105  C     C_R   0.299105 0.820971 0.976199 -0.222788
C106  C     C_R   0.701409 0.178564 0.024511 -0.222456
C107  C     C_R   0.649828 0.783005 0.964084 -0.222304
C108  C     C_R   0.298794 0.178745 0.975743 -0.221851
C109  C     C_R   0.851467 0.282062 0.037361 -0.223355
C110  C     C_R   0.149930 0.716789 0.964359 -0.222628
C111  C     C_R   0.148845 0.282326 0.963073 -0.224004
C112  C     C_R   0.800107 0.679612 0.977144 -0.223152
Cu1   Cu    Cu3+1 0.526640 0.000000 0.436960 0.934455
Cu2   Cu    Cu3+1 0.473360 1.000000 0.563040 0.934256
Cu3   Cu    Cu3+1 0.026640 0.500000 0.436960 0.933842
Cu4   Cu    Cu3+1 0.973360 0.500000 0.563040 0.933725
H1    H     H_    0.327334 0.824659 0.859324 0.150385
H2    H     H_    0.672924 0.175091 0.141117 0.151335
H3    H     H_    0.612622 0.780360 0.070602 0.147212
H4    H     H_    0.327316 0.175281 0.859176 0.151253
H5    H     H_    0.888601 0.279403 0.930743 0.144480
H6    H     H_    0.113197 0.719069 0.071455 0.147240
H7    H     H_    0.111732 0.279690 0.069716 0.144541
H8    H     H_    0.828823 0.676226 0.860794 0.150215
H9    H     H_    0.369531 0.997217 0.008876 0.130533
H10   H     H_    0.630217 0.005616 0.990979 0.131119
H11   H     H_    0.869676 0.505787 0.008961 0.131330
H12   H     H_    0.130325 0.497104 0.991052 0.132790
H13   H     H_    0.371140 0.867684 0.183092 0.151773
H14   H     H_    0.629066 0.132243 0.817222 0.152013
H15   H     H_    0.628716 0.866302 0.815609 0.149625
H16   H     H_    0.371027 0.132294 0.182918 0.152573
H17   H     H_    0.871959 0.365715 0.185026 0.149749
H18   H     H_    0.129015 0.633548 0.815920 0.149271
H19   H     H_    0.128123 0.365844 0.815059 0.148736
H20   H     H_    0.871851 0.632875 0.183945 0.151856
H21   H     H_    0.283282 0.858474 0.380026 0.153896
H22   H     H_    0.717449 0.140940 0.620892 0.153968
H23   H     H_    0.698231 0.844683 0.597932 0.156086
H24   H     H_    0.282564 0.140953 0.379145 0.154523
H25   H     H_    0.802385 0.344266 0.402695 0.155865
H26   H     H_    0.197469 0.655815 0.597121 0.155994
H27   H     H_    0.197686 0.344294 0.597393 0.155356
H28   H     H_    0.782733 0.641087 0.379350 0.153761
H29   H     H_    0.279306 0.748310 0.706508 0.134737
H30   H     H_    0.720799 0.251611 0.293677 0.135156
H31   H     H_    0.678376 0.716906 0.243791 0.134993
H32   H     H_    0.279397 0.251728 0.706573 0.135169
H33   H     H_    0.822344 0.216293 0.757008 0.134780
H34   H     H_    0.179044 0.782520 0.244692 0.135034
H35   H     H_    0.177818 0.216435 0.243222 0.134760
H36   H     H_    0.780573 0.752479 0.707812 0.134818
H37   H     H_    0.335281 0.862759 0.017839 0.143729
H38   H     H_    0.665068 0.136866 0.982679 0.143272
H39   H     H_    0.602284 0.816736 0.909526 0.146385
H40   H     H_    0.335101 0.137027 0.017506 0.144644
H41   H     H_    0.899047 0.315760 0.092033 0.145761
H42   H     H_    0.102565 0.682886 0.910027 0.146407
H43   H     H_    0.101321 0.316077 0.908516 0.145514
H44   H     H_    0.836559 0.637975 0.019021 0.143231
H45   H     H_    0.281261 0.996395 0.804435 0.146345
H46   H     H_    0.718505 0.006409 0.195391 0.144914
H47   H     H_    0.781391 0.506563 0.804498 0.144830
H48   H     H_    0.218605 0.496317 0.195480 0.143137
H49   H     H_    0.690147 0.002230 0.489443 0.123600
H50   H     H_    0.309849 0.998074 0.510502 0.122915
H51   H     H_    0.190147 0.498038 0.489456 0.124519
H52   H     H_    0.809867 0.502297 0.510521 0.123609
H53   H     H_    0.257178 0.996877 0.621007 0.138749
H54   H     H_    0.742701 0.004664 0.378829 0.138777
H55   H     H_    0.757248 0.504779 0.621054 0.138491
H56   H     H_    0.242751 0.496816 0.378883 0.138595
N1    N     N_R   0.433280 1.000000 0.657760 -0.174351
N2    N     N_R   0.566720 0.000000 0.342240 -0.174586
N3    N     N_R   0.933280 0.500000 0.657760 -0.174745
N4    N     N_R   0.066720 0.500000 0.342240 -0.175054
O1    O     O_R   0.600040 0.935040 0.546740 -0.586606
O2    O     O_R   0.399960 0.064960 0.453260 -0.586410
O3    O     O_R   0.399960 0.935040 0.453260 -0.587640
O4    O     O_R   0.600040 0.064960 0.546740 -0.586842
O5    O     O_R   0.100040 0.435040 0.546740 -0.587245
O6    O     O_R   0.899960 0.564960 0.453260 -0.587141
O7    O     O_R   0.899960 0.435040 0.453260 -0.586770
O8    O     O_R   0.100040 0.564960 0.546740 -0.586149
O9    O     O_R   0.555010 0.935070 0.653220 -0.587740
O10   O     O_R   0.444990 0.064930 0.346780 -0.587741
O11   O     O_R   0.444990 0.935070 0.346780 -0.589099
O12   O     O_R   0.555010 0.064930 0.653220 -0.588146
O13   O     O_R   0.055010 0.435070 0.653220 -0.588619
O14   O     O_R   0.944990 0.564930 0.346780 -0.588802
O15   O     O_R   0.944990 0.435070 0.346780 -0.588105
O16   O     O_R   0.055010 0.564930 0.653220 -0.587254
H57   H     H_    0.448486 0.998297 0.188128 0.119696
H58   H     H_    0.551469 0.001637 0.811904 0.120422
H59   H     H_    0.948489 0.501647 0.188121 0.120868
H60   H     H_    0.051461 0.498241 0.811876 0.121277

loop_
_geom_bond_atom_site_label_1
_geom_bond_atom_site_label_2
_ccdc_geom_bond_type
C88   C104  A    
C72   H27   S    
Cu1   O1    S    
Cu4   O13   S    
C88   C96   A    
C14   H6    S    
C29   C33   A    
C70   H25   S    
C33   C45   A    
C5    C56   S    
C53   C77   A    
Cu3   O14   S    
C6    C55   S    
C109  H41   S    
C76   C84   A    
C79   C87   A    
Cu3   O8    S    
C99   C108  A    
C30   C38   A    
Cu3   N4    S    
C80   H19   S    
C57   C89   A    
C6    O6    A    
C10   H2    S    
C32   C36   A    
C71   H28   S    
C51   C75   A    
C102  C109  A    
C1    C52   S    
C50   C74   A    
C60   H36   S    
C76   H15   S    
C17   H53   S    
C23   N3    A    
C10   C94   A    
C9    C105  A    
Cu3   Cu4   S    
Cu1   O11   S    
Cu4   O7    S    
C63   C95   A    
C28   H59   S    
Cu2   O12   S    
C62   C70   A    
C74   H13   S    
C42   C46   A    
C63   H31   S    
C37   C42   A    
C61   H29   S    
C14   C90   A    
C13   C109  A    
C86   C94   A    
C77   C85   A    
C59   C67   A    
C12   H4    S    
C22   H49   S    
C85   C93   A    
C58   C66   A    
Cu2   N1    S    
C20   C24   A    
C106  H38   S    
C57   H33   S    
C13   H5    S    
C34   C46   A    
C43   C47   A    
C97   C102  A    
C110  H42   S    
C19   H55   S    
C81   C89   A    
C78   C86   A    
C32   C40   A    
C99   C104  A    
Cu4   O16   S    
C53   C69   A    
C83   C99   A    
C64   H32   S    
C82   C98   A    
C7    O15   A    
C15   H7    S    
C17   C33   A    
C4    O4    A    
C45   H45   S    
C73   C81   A    
C22   N2    A    
C3    C50   S    
C5    O5    A    
C60   C92   A    
C25   C29   A    
C30   C34   A    
C27   C31   A    
C84   C100  A    
C15   C111  A    
C28   C32   A    
C24   H51   S    
C44   C48   A    
C64   C96   A    
C38   C41   A    
C11   H3    S    
C27   N3    A    
C39   C40   A    
C12   C108  A    
C28   N4    A    
C51   C67   A    
C56   C72   A    
C69   H26   S    
C100  C103  A    
C17   C21   A    
C21   H50   S    
C3    O3    A    
Cu4   O6    S    
C103  C112  A    
C19   C23   A    
C2    O10   A    
C37   C38   A    
C79   H20   S    
C41   H9    S    
C87   C95   A    
C55   C79   A    
C98   C105  A    
C54   C70   A    
C105  H37   S    
C57   C65   A    
C6    O14   A    
C59   C91   A    
C82   C90   A    
C84   C92   A    
C67   H24   S    
C18   C34   A    
C1    O9    A    
C49   C65   A    
C58   C90   A    
C87   C103  A    
C65   H22   S    
C20   H56   S    
C63   C71   A    
C26   C30   A    
C21   N1    A    
C62   C94   A    
C11   C107  A    
C49   C73   A    
C10   C106  A    
C77   H18   S    
C97   C106  A    
C43   H11   S    
C24   N4    A    
C9    C93   A    
Cu3   O5    S    
C75   C83   A    
C85   C101  A    
C75   H16   S    
C16   C112  A    
Cu1   Cu2   S    
C74   C82   A    
C11   C95   A    
C14   C110  A    
C26   N2    A    
C73   H14   S    
C44   H12   S    
C100  C107  A    
C112  H44   S    
Cu4   N3    S    
C13   C89   A    
C18   C22   A    
Cu2   O2    S    
C111  H43   S    
C52   C76   A    
C52   C68   A    
C8    C53   S    
C104  C111  A    
C5    O13   A    
C50   C66   A    
C16   C92   A    
C39   C44   A    
C48   H48   S    
C59   H35   S    
C98   C101  A    
C83   C91   A    
C1    O1    A    
C108  H40   S    
C56   C80   A    
C7    O7    A    
C4    C49   S    
C61   C69   A    
C40   C43   A    
C4    O12   A    
C101  C110  A    
Cu3   O15   S    
C80   C88   A    
Cu2   O9    S    
C19   C35   A    
Cu1   N2    S    
C8    O8    A    
C66   H21   S    
C81   C97   A    
C8    O16   A    
C47   H47   S    
Cu1   O10   S    
C31   C35   A    
C31   C39   A    
C36   C48   A    
C61   C93   A    
C64   C72   A    
C16   H8    S    
C78   H17   S    
C107  H39   S    
C2    C51   S    
C42   H10   S    
C15   C91   A    
C23   H52   S    
C20   C36   A    
C25   N1    A    
Cu1   O4    S    
C60   C68   A    
Cu2   O3    S    
C62   H30   S    
C18   H54   S    
C29   C37   A    
C25   H58   S    
C41   C45   A    
C12   C96   A    
C68   H23   S    
C27   H60   S    
C2    O2    A    
C7    C54   S    
C35   C47   A    
C26   H57   S    
C3    O11   A    
C55   C71   A    
C9    H1    S    
C58   H34   S    
C46   H46   S    
C54   C78   A    
C86   C102  A    
