data_mof_unit_1772.cif
_audit_creation_date              2012-12-11T20:55:31-0500
_audit_creation_method            fapswitch 2.2
_symmetry_space_group_name_H-M    P1
_symmetry_Int_Tables_number       1
_space_group_crystal_system       triclinic
_cell_length_a                    8.364799
_cell_length_b                    19.0402
_cell_length_c                    22.787974
_cell_angle_alpha                 98.475643
_cell_angle_beta                  90.056013
_cell_angle_gamma                 91.919059
_cell_volume                      3587.66694744

loop_
_atom_site_label
_atom_site_type_symbol
_atom_type_description
_atom_site_fract_x
_atom_site_fract_y
_atom_site_fract_z
_atom_type_partial_charge
Ba1   Ba    Ba6+2 0.157290 0.533910 0.474710 1.717341
Ba2   Ba    Ba6+2 0.652900 0.466090 0.525240 1.697858
C1    C     C_3   0.409558 0.671691 0.258069 -0.314845
C2    C     C_3   0.418849 0.666610 0.324021 0.319467
C3    C     C_3   0.407716 0.689541 0.651294 0.259338
C4    C     C_3   0.357090 0.759654 0.685949 -0.315021
C5    C     C_3   0.847087 0.266051 0.668261 0.260033
C6    C     C_3   0.895651 0.230835 0.721759 0.265825
C7    C     C_3   0.392053 0.280517 0.676946 0.320375
C8    C     C_3   0.422723 0.241218 0.729030 -0.240800
C9    C     C_R   0.948172 0.197755 0.475268 -0.155131
C10   C     C_R   0.987893 0.271371 0.479689 0.003200
C11   C     C_R   0.127332 0.191287 0.557093 -0.143440
C12   C     C_3   0.027205 0.725150 0.329333 0.718557
C13   C     C_R   0.197363 0.256384 0.547360 -0.012212
C14   C     C_R   0.632403 0.821381 0.475450 -0.023376
C15   C     C_R   0.562609 0.754849 0.480908 0.081096
C16   C     C_R   0.829029 0.805625 0.548917 -0.152072
C17   C     C_R   0.795282 0.732004 0.536714 0.106046
C18   C     C_R   0.008469 0.156218 0.517799 0.013218
C19   C     C_R   0.116692 0.298959 0.514517 -0.213351
C20   C     C_R   0.756307 0.853007 0.514467 0.051471
C21   C     C_R   0.644509 0.710068 0.513262 -0.190795
C22   C     C_R   0.204348 0.035954 0.555841 -0.017786
C23   C     C_3   0.097868 0.783358 0.295721 -0.234160
C24   C     C_R   0.292274 0.982925 0.575097 -0.021992
C25   C     C_R   0.243474 0.912906 0.558678 -0.089002
C26   C     C_R   0.099416 0.897683 0.528905 -0.071194
C27   C     C_R   0.985631 0.950373 0.526829 0.049018
C28   C     C_R   0.044450 0.023181 0.534839 0.065726
C29   C     C_R   0.820945 0.930729 0.514046 0.027842
C30   C     C_R   0.721208 0.986672 0.501678 0.024357
C31   C     C_R   0.781231 0.059037 0.507498 0.008897
C32   C     C_R   0.944992 0.078983 0.521232 0.020151
C33   C     C_R   0.559436 0.973851 0.483472 -0.070016
C34   C     C_3   0.854021 0.258720 0.340696 0.194008
C35   C     C_R   0.471061 0.024915 0.462218 -0.055327
C36   C     C_R   0.523557 0.094613 0.473567 -0.044738
C37   C     C_R   0.669794 0.111547 0.502109 -0.078373
C38   C     C_R   0.647687 0.518393 0.330996 -0.321120
C39   C     C_R   0.522880 0.461238 0.919481 -0.118317
C40   C     C_R   0.477403 0.447283 0.858804 0.668670
C41   C     C_R   0.210427 0.418168 0.885390 0.665454
C42   C     C_R   0.263325 0.410710 0.943684 -0.028112
C43   C     C_R   0.419494 0.437167 0.961234 -0.103752
C44   C     C_R   0.665040 0.500752 0.939258 0.375553
C45   C     C_3   0.843273 0.254146 0.273464 0.247852
C46   C     C_R   0.727122 0.498002 0.997675 0.315058
C47   C     C_R   0.624357 0.468843 0.039692 -0.137509
C48   C     C_R   0.468373 0.443238 0.021185 -0.159218
C49   C     C_R   0.166470 0.378673 0.985107 0.014578
C50   C     C_R   0.223802 0.380086 0.044026 0.490826
C51   C     C_R   0.360201 0.423128 0.063215 -0.095457
C52   C     C_R   0.389011 0.450149 0.123418 0.656601
C53   C     C_R   0.662827 0.467029 0.100787 0.785089
C54   C     C_2   0.142752 0.396536 0.754273 -0.081036
C55   C     C_3   0.099646 0.396231 0.689535 -0.112426
C56   C     C_3   0.987185 0.606037 0.651041 0.266668
C57   C     C_1   0.315573 0.486188 0.687618 0.005961
C58   C     C_2   0.353773 0.485983 0.744008 -0.064104
C59   C     C_2   0.267038 0.437392 0.780774 0.200831
C60   C     C_R   0.703720 0.540493 0.230020 0.313415
C61   C     C_R   0.748765 0.546889 0.291352 -0.016698
C62   C     C_R   0.511302 0.478533 0.311139 -0.002845
C63   C     C_R   0.487777 0.458196 0.250055 -0.128040
C64   C     C_R   0.579251 0.489521 0.207501 0.102136
C65   C     C_2   0.202546 0.445302 0.658549 -0.256733
C66   C     C_3   0.004041 0.614725 0.718285 -0.295341
C67   C     C_3   0.314328 0.317306 0.396469 0.304418
C68   C     C_3   0.319864 0.236824 0.381644 -0.342461
H1    H     H_    0.324891 0.626483 0.331907 0.039373
H2    H     H_    0.951872 0.279851 0.256781 0.071808
H3    H     H_    0.736543 0.282258 0.261339 0.065455
H4    H     H_    0.101215 0.588764 0.630247 0.002051
H5    H     H_    0.893377 0.564418 0.637502 0.103989
H6    H     H_    0.094618 0.657163 0.734028 0.139580
H7    H     H_    0.042024 0.564443 0.732232 0.091102
H8    H     H_    0.887493 0.628912 0.739336 0.147805
H9    H     H_    0.188989 0.332546 0.402984 -0.011051
H10   H     H_    0.385461 0.334583 0.437513 0.081516
H11   H     H_    0.460502 0.624083 0.232779 0.075312
H12   H     H_    0.254115 0.218141 0.339594 0.133500
H13   H     H_    0.264282 0.211229 0.417565 0.050890
H14   H     H_    0.445932 0.220574 0.376541 0.138749
H15   H     H_    0.538301 0.647845 0.333578 0.069388
H16   H     H_    0.474321 0.720076 0.247617 0.205026
H17   H     H_    0.534680 0.696885 0.639243 -0.000925
H18   H     H_    0.327319 0.677595 0.612545 0.044900
H19   H     H_    0.429886 0.772882 0.727128 0.154568
H20   H     H_    0.375129 0.802707 0.658362 0.062149
H21   H     H_    0.228663 0.756326 0.697769 0.133885
H22   H     H_    0.284146 0.670026 0.242377 0.136679
H23   H     H_    0.103651 0.835862 0.324299 0.112217
H24   H     H_    0.765535 0.230023 0.638715 0.115739
H25   H     H_    0.953890 0.273013 0.640524 -0.099102
H26   H     H_    0.024250 0.242593 0.731936 -0.020275
H27   H     H_    0.826648 0.252181 0.761645 0.065043
H28   H     H_    0.261729 0.274208 0.667279 -0.075985
H29   H     H_    0.426042 0.337539 0.690046 0.064407
H30   H     H_    0.348334 0.263155 0.767309 0.052449
H31   H     H_    0.550040 0.247610 0.742547 0.150622
H32   H     H_    0.106474 0.716660 0.365601 0.033797
H33   H     H_    0.390905 0.183848 0.716603 0.170133
H34   H     H_    0.863506 0.174884 0.441388 0.071449
H35   H     H_    0.165392 0.170510 0.596073 0.114670
H36   H     H_    0.595817 0.845023 0.437539 0.117842
H37   H     H_    0.919153 0.823858 0.582133 0.064272
H38   H     H_    0.161187 0.352707 0.513203 0.042961
H39   H     H_    0.272374 0.083890 0.554599 0.049610
H40   H     H_    0.409666 0.995430 0.594747 0.095326
H41   H     H_    0.322233 0.870639 0.565073 0.058296
H42   H     H_    0.077175 0.843967 0.508404 0.160338
H43   H     H_    0.490739 0.927287 0.488584 0.041256
H44   H     H_    0.352002 0.011777 0.444296 0.084873
H45   H     H_    0.444626 0.134783 0.463491 0.103416
H46   H     H_    0.697083 0.165823 0.519911 0.126906
H47   H     H_    0.221303 0.774576 0.281379 0.087058
H48   H     H_    0.438618 0.525995 0.765130 0.155108
H49   H     H_    0.081681 0.357191 0.776500 0.102499
H50   H     H_    0.397495 0.417142 0.236452 0.174683
H51   H     H_    0.676927 0.526586 0.377833 0.093610
H52   H     H_    0.186359 0.443183 0.611062 0.075736
H53   H     H_    0.023828 0.787482 0.255949 0.181897
H54   H     H_    0.961291 0.230307 0.351886 -0.005781
H55   H     H_    0.744156 0.233129 0.356735 0.054609
N1    N     N_R   0.318462 0.433508 0.842299 -0.432395
N2    N     N_R   0.543071 0.469968 0.143363 -0.432969
O1    O     O_2   0.108070 0.674980 0.540650 -0.480806
O2    O     O_3   0.376665 0.347165 0.348727 -0.613136
O3    O     O_3   0.005182 0.661363 0.290125 -0.584190
O4    O     O_2   0.702240 0.324970 0.459330 -0.455436
O5    O     O_3   0.948380 0.413820 0.464520 -0.459264
O6    O     O_3   0.443920 0.371740 0.566130 -0.464374
O7    O     O_3   0.867204 0.330535 0.365772 -0.630737
O8    O     O_3   0.358830 0.538360 0.571050 -0.506184
O9    O     O_3   0.852160 0.408490 0.597560 -0.475560
O10   O     O_2   0.803192 0.468666 0.708070 -0.429131
O11   O     O_3   0.765669 0.329292 0.687684 -0.583454
O12   O     O_3   0.861930 0.586170 0.535430 -0.498701
O13   O     O_3   0.451480 0.461630 0.428900 -0.497454
O14   O     O_2   0.599240 0.538720 0.642170 -0.467012
O15   O     O_3   0.392990 0.636380 0.687309 -0.633368
O16   O     O_2   0.509564 0.249225 0.513011 -0.511901
O17   O     O_3   0.484143 0.252329 0.628068 -0.582523
O18   O     O_2   0.580676 0.445304 0.820817 -0.521762
O19   O     O_2   0.067968 0.413683 0.873836 -0.555758
O20   O     O_2   0.275388 0.458886 0.156988 -0.497945
O21   O     O_2   0.800024 0.461742 0.116124 -0.436117
O22   O     O_3   0.366390 0.628250 0.433820 -0.520430
O23   O     O_2   0.231319 0.750675 0.459780 -0.506652
O24   O     O_3   0.945249 0.671193 0.634614 -0.637505
O25   O     O_3   0.396076 0.732895 0.359516 -0.587422
O26   O     O_2   0.211060 0.461230 0.357810 -0.439954
O27   O     O_3   0.958150 0.591500 0.402390 -0.461871
O28   O     O_2   0.066017 0.532185 0.296724 -0.440701
P1    P     P_3+3 0.933470 0.664380 0.557030 0.994128
P2    P     P_3+3 0.383600 0.440030 0.365120 1.029292
P3    P     P_3+3 0.942671 0.586343 0.323060 1.117102
P4    P     P_3+3 0.876840 0.335610 0.442930 0.997262
P5    P     P_3+3 0.880888 0.402856 0.672645 1.019058
P6    P     P_3+3 0.388890 0.719259 0.434283 0.963940
P7    P     P_3+3 0.413962 0.550888 0.646818 0.933806
P8    P     P_3+3 0.406689 0.281678 0.565154 0.935146
S1    S     S_3+6 0.828030 0.163801 0.238837 -0.014572
O29   O     O_2   0.675976 0.129688 0.257990 -0.237506
O30   O     O_2   0.825429 0.161047 0.172582 -0.212801
O31   O     O_3   0.984946 0.119249 0.258514 -0.474667
H56   H     H_    0.080374 0.145905 0.246627 0.338943
S2    S     S_3+6 0.864823 0.136384 0.708793 -0.068169
O32   O     O_2   0.988041 0.103828 0.666236 -0.333974
O33   O     O_2   0.882772 0.108112 0.766522 -0.199269
O34   O     O_3   0.680121 0.114057 0.681365 -0.510357
H57   H     H_    0.693432 0.102721 0.637852 0.332495
C69   C     C_3   0.572097 0.639895 0.523005 -0.258401
H58   H     H_    0.442933 0.644707 0.530057 0.124139
H59   H     H_    0.598897 0.598436 0.485100 0.154458
H60   H     H_    0.613944 0.623637 0.564508 0.098269
S3    S     S_3+6 0.847435 0.758728 0.360455 -0.111375
O35   O     O_2   0.730446 0.774684 0.314586 -0.274119
O36   O     O_2   0.774247 0.705875 0.395658 -0.401624
O37   O     O_3   0.901291 0.834541 0.404270 -0.590433
H61   H     H_    0.866298 0.873339 0.383167 0.348588
S4    S     S_3+6 0.145665 0.319433 0.090636 -0.020694
O38   O     O_2   0.264214 0.309938 0.138257 -0.269474
O39   O     O_2   0.993866 0.346978 0.119121 -0.220754
O40   O     O_3   0.107127 0.239523 0.049882 -0.507602
H62   H     H_    0.054002 0.210694 0.077510 0.398553
C70   C     C_3   0.004707 0.343398 0.966798 -0.199298
H63   H     H_    0.941765 0.320130 0.002243 0.175749
H64   H     H_    0.921449 0.383119 0.954962 0.138217
H65   H     H_    0.019097 0.300650 0.928594 0.126611
S5    S     S_3+6 0.920423 0.540446 0.017312 0.052443
O41   O     O_2   0.021407 0.540426 0.962877 -0.233517
O42   O     O_2   0.895823 0.616180 0.044177 -0.133894
O43   O     O_3   0.030336 0.502769 0.064759 -0.448595
H66   H     H_    0.125730 0.534950 0.073227 0.370241
S6    S     S_3+6 0.774251 0.606474 0.187131 0.006805
O44   O     O_2   0.769856 0.678638 0.223179 -0.267955
O45   O     O_2   0.944271 0.592643 0.169177 -0.156326
O46   O     O_3   0.660782 0.609732 0.126621 -0.486878
H67   H     H_    0.571539 0.640859 0.140102 0.344702
S7    S     S_3+6 0.736266 0.566562 0.895376 0.049191
O47   O     O_2   0.802736 0.632392 0.933138 -0.172356
O48   O     O_2   0.863425 0.535498 0.853724 -0.210251
O49   O     O_3   0.585155 0.592008 0.855463 -0.513069
H68   H     H_    0.637137 0.619375 0.826541 0.357945

loop_
_geom_bond_atom_site_label_1
_geom_bond_atom_site_label_2
_ccdc_geom_bond_type
C23   H23   S    
C7    H28   S    
S6    O46   S    
C39   C40   A    
C34   H55   S    
C6    H26   S    
Ba1   O1    S    
S5    O41   D    
C6    S2    S    
C6    H27   S    
Ba1   O5    S    
C47   C48   A    
O2    P2    S    
S3    O35   D    
C53   O21   D    
C5    C6    S    
C21   C69   S    
O49   H68   S    
C54   C55   S    
C38   H51   S    
C26   C27   A    
C24   C25   A    
C31   C37   A    
C38   C61   A    
S7    O48   D    
C58   C59   S    
C70   H65   S    
Ba2   O12   S    
C43   C48   A    
C13   P8    S    
S1    O29   D    
C34   H54   S    
C35   C36   A    
C22   C24   A    
O27   P3    S    
C67   C68   S    
S4    O39   D    
C3    C4    S    
C12   H32   S    
C4    H21   S    
C64   N2    S    
C34   C45   S    
C70   H64   S    
C16   C17   A    
S2    O32   D    
S6    O45   D    
C16   H37   S    
C49   C70   S    
C57   C65   D    
C69   H58   S    
C3    H18   S    
Ba2   P4    S    
S7    O49   S    
C62   P2    S    
C1    H11   S    
C42   C43   A    
Ba2   O5    S    
C39   C44   A    
C50   S4    S    
Ba1   O22   S    
C9    H34   S    
O4    P4    D    
C68   H14   S    
C7    C8    S    
C24   H40   S    
O25   P6    S    
Ba1   O12   S    
C14   H36   S    
C18   C32   S    
O7    P4    S    
C44   S7    S    
C25   H41   S    
C57   C58   D    
C7    H29   S    
O28   P3    D    
C17   P1    S    
S2    O33   D    
Ba1   O27   S    
C55   C65   S    
O6    P8    S    
C41   N1    Am   
O16   P8    D    
C58   H48   S    
C7    O17   S    
C56   H5    S    
Ba2   O4    S    
C22   C28   A    
S1    O31   S    
C66   H8    S    
C2    O25   S    
C44   C46   A    
C9    C18   A    
C48   C51   A    
S7    O47   D    
C60   C64   A    
C49   C50   A    
O5    P4    S    
S5    O43   S    
Ba2   O6    S    
C45   H3    S    
C11   H35   S    
C20   C29   S    
S4    O40   S    
O31   H56   S    
C28   C32   A    
C14   C15   A    
C35   H44   S    
O37   H61   S    
C10   C19   A    
C19   H38   S    
C26   H42   S    
Ba1   O26   S    
C23   H47   S    
C70   H63   S    
S5    O42   D    
Ba1   P1    S    
C17   C21   A    
S4    O38   D    
C30   C33   A    
C27   C28   A    
O13   P2    S    
O1    P1    D    
C29   C30   A    
C13   C19   A    
C60   C61   A    
C31   C32   A    
C15   C21   A    
O24   P1    S    
C8    H30   S    
C68   H13   S    
C23   H53   S    
C69   H60   S    
C12   S3    S    
Ba1   O13   S    
C15   P6    S    
C45   S1    S    
C42   C49   A    
C56   C66   S    
C46   C47   A    
C55   P5    S    
C53   N2    Am   
C63   C64   A    
C11   C13   A    
O17   P8    S    
C41   C42   A    
S2    O34   S    
C54   H49   S    
C67   H9    S    
O22   P6    S    
O34   H57   S    
C65   H52   S    
C56   O24   S    
C56   H4    S    
C12   O3    S    
C66   H7    S    
C5    H24   S    
C8    H33   S    
C14   C20   A    
O10   P5    D    
C33   C35   A    
C16   C20   A    
C11   C18   A    
C8    H31   S    
C22   H39   S    
C60   S6    S    
C34   O7    S    
O15   P7    S    
C5    O11   S    
S3    O36   D    
C9    C10   A    
O23   P6    D    
C51   C52   A    
C2    H15   S    
C66   H6    S    
C4    H19   S    
C5    H25   S    
C52   N2    Am   
Ba2   O8    S    
C38   C62   A    
O3    P3    S    
O9    P5    S    
Ba2   O13   S    
C30   C31   A    
S1    O30   D    
C27   C29   A    
C57   P7    S    
C47   C53   A    
C62   C63   A    
C36   H45   S    
C3    O15   S    
C36   C37   A    
Ba2   O9    S    
O12   P1    S    
O46   H67   S    
Ba1   Ba2   S    
Ba1   P2    S    
O8    P7    S    
C63   H50   S    
C33   H43   S    
C12   C23   S    
O26   P2    D    
S6    O44   D    
C68   H12   S    
C69   H59   S    
C45   H2    S    
C46   S5    S    
S3    O37   S    
C40   N1    Am   
O43   H66   S    
C3    H17   S    
O11   P5    S    
O14   P7    D    
C59   N1    S    
C4    H20   S    
C67   O2    S    
C37   H46   S    
C25   C26   A    
C41   O19   D    
Ba2   O14   S    
C39   C43   A    
C54   C59   D    
C1    H22   S    
C67   H10   S    
C61   P3    S    
O40   H62   S    
Ba1   O8    S    
C40   O18   D    
C2    H1    S    
C1    C2    S    
C50   C51   A    
C52   O20   D    
C1    H16   S    
C10   P4    S    
