data_mof_unit_4812.cif
_audit_creation_date              2012-12-10T18:57:08-0500
_audit_creation_method            fapswitch 2.2
_symmetry_space_group_name_H-M    P1
_symmetry_Int_Tables_number       1
_space_group_crystal_system       triclinic
_cell_length_a                    8.720409
_cell_length_b                    10.865033
_cell_length_c                    9.589219
_cell_angle_alpha                 89.848603
_cell_angle_beta                  96.020163
_cell_angle_gamma                 88.836458
_cell_volume                      903.347485414

loop_
_atom_site_label
_atom_site_type_symbol
_atom_type_description
_atom_site_fract_x
_atom_site_fract_y
_atom_site_fract_z
_atom_type_partial_charge
C1    C     C_R   0.502836 0.262509 0.499775 0.875227
C2    C     C_R   0.562693 0.931732 0.395777 -0.212293
C3    C     C_R   0.483887 0.870376 0.494571 -0.136824
C4    C     C_R   0.391309 0.941266 0.575581 -0.075410
C5    C     C_3   0.340211 0.937294 0.721546 0.284698
C6    C     C_3   0.363311 0.077637 0.725611 0.105921
C7    C     C_R   0.528473 0.605429 0.074311 0.199984
C8    C     C_R   0.458470 0.399150 0.070647 0.048128
C9    C     C_R   0.460391 0.398762 0.922673 0.000023
C10   C     C_R   0.522878 0.606236 0.927025 0.188770
C11   C     C_3   0.657336 0.687102 0.924786 -0.462201
C12   C     C_R   0.205749 0.491384 0.466209 0.793504
C13   C     C_3   0.670537 0.683100 0.083407 0.061973
C14   C     C_R   0.492984 0.737255 0.499218 0.776626
C15   C     C_R   0.795610 0.497167 0.534364 0.912827
C16   C     C_2   0.045710 0.462642 0.453471 0.191323
C17   C     C_2   0.959946 0.506274 0.550130 -0.400417
C18   C     C_R   0.405679 0.066100 0.580158 -0.018685
C19   C     C_R   0.497336 0.129359 0.494849 -0.143678
C20   C     C_R   0.567733 0.060044 0.392850 0.258815
Cu1   Cu    Cu3+1 0.499990 0.499980 0.640670 0.982421
Cu2   Cu    Cu3+1 0.500010 0.500020 0.359330 1.045055
H1    H     H_    0.431550 0.315747 0.866017 0.166936
H2    H     H_    0.754105 0.641727 0.876505 0.248066
H3    H     H_    0.626528 0.779944 0.881849 0.160159
H4    H     H_    0.652761 0.775015 0.129229 0.128290
H5    H     H_    0.010596 0.559625 0.638240 0.131746
H6    H     H_    0.626861 0.880018 0.324811 0.169615
H7    H     H_    0.420503 0.886370 0.798902 0.073750
H8    H     H_    0.462240 0.105047 0.800874 0.092093
H9    H     H_    0.425627 0.316704 0.122146 0.175167
N1    N     N_R   0.500980 0.500930 0.148050 -0.176166
N2    N     N_R   0.500990 0.500890 0.852140 -0.185501
O1    O     O_R   0.500000 0.319640 0.618810 -0.587552
O2    O     O_R   0.500020 0.319680 0.381230 -0.554708
O3    O     O_R   0.274830 0.499980 0.591380 -0.590348
O4    O     O_R   0.274850 0.500020 0.353800 -0.551855
O5    O     O_R   0.499980 0.680320 0.618770 -0.603932
O6    O     O_R   0.500000 0.680360 0.381190 -0.588335
O7    O     O_R   0.725150 0.499980 0.646200 -0.580895
O8    O     O_R   0.725170 0.500020 0.408620 -0.504791
Br1   Br    Br    0.980421 0.336375 0.321366 -0.329708
Br2   Br    Br    0.861652 0.600154 0.151122 -0.456711
Br3   Br    Br    0.682552 0.129559 0.253156 -0.465683
O9    O     O_3   0.183117 0.911232 0.735342 -0.539240
C21   C     C_3   0.116738 0.827080 0.635904 0.101729
H10   H     H_    0.034869 0.770899 0.688780 0.153464
H11   H     H_    0.202155 0.761263 0.597975 0.122903
C22   C     C_3   0.024698 0.897721 0.515033 -0.322298
H12   H     H_    0.927687 0.949761 0.555487 0.250559
H13   H     H_    0.098811 0.965123 0.468537 0.263058
C23   C     C_3   0.960768 0.811031 0.400261 -0.856306
H14   H     H_    0.055558 0.754039 0.363326 0.274408
H15   H     H_    0.904713 0.865423 0.310146 0.291935
H16   H     H_    0.873877 0.750497 0.440047 0.247365
Br4   Br    Br    0.176436 0.179314 0.728719 -0.433003

loop_
_geom_bond_atom_site_label_1
_geom_bond_atom_site_label_2
_ccdc_geom_bond_type
C8    C9    A    
C7    C10   A    
Cu1   O1    S    
C12   O3    A    
C19   C20   A    
C23   H16   S    
C7    C13   S    
C22   C23   S    
C4    C18   A    
C15   O7    A    
Cu2   O4    S    
C2    C3    A    
Cu1   O3    S    
O9    C21   S    
C9    N2    A    
Cu2   O2    S    
C11   C13   S    
C21   C22   S    
C15   O8    A    
C3    C14   S    
Cu2   N1    S    
Cu2   O6    S    
C20   Br3   S    
C23   H15   S    
C1    O1    A    
C22   H12   S    
C10   N2    A    
C5    H7    S    
C5    C6    S    
C6    C18   S    
C21   H11   S    
C13   H4    S    
C1    C19   S    
Cu2   O8    S    
C14   O5    A    
C10   C11   S    
C11   H3    S    
C2    C20   A    
C3    C4    A    
C17   H5    S    
C16   Br1   S    
C11   H2    S    
C13   Br2   S    
Cu1   N2    S    
C23   H14   S    
C1    O2    A    
C18   C19   A    
C12   O4    A    
C15   C17   S    
C8    N1    A    
C21   H10   S    
C4    C5    S    
C2    H6    S    
C7    N1    A    
C6    H8    S    
C14   O6    A    
Cu1   Cu2   S    
C8    H9    S    
C5    O9    S    
C9    H1    S    
Cu1   O5    S    
C12   C16   S    
C6    Br4   S    
C16   C17   D    
C22   H13   S    
Cu1   O7    S    
