data_mof_unit_3701.cif
_audit_creation_date              2012-12-10T20:28:43-0500
_audit_creation_method            fapswitch 2.2
_symmetry_space_group_name_H-M    P1
_symmetry_Int_Tables_number       1
_space_group_crystal_system       triclinic
_cell_length_a                    10.728919
_cell_length_b                    10.658023
_cell_length_c                    9.85733
_cell_angle_alpha                 90.87914
_cell_angle_beta                  89.10649
_cell_angle_gamma                 90.460495
_cell_volume                      1126.87246706

loop_
_atom_site_label
_atom_site_type_symbol
_atom_type_description
_atom_site_fract_x
_atom_site_fract_y
_atom_site_fract_z
_atom_type_partial_charge
C1    C     C_R   0.501927 0.260422 0.498802 0.873338
C2    C     C_R   0.423092 0.933622 0.410369 -0.151364
C3    C     C_R   0.501306 0.871738 0.499484 -0.004961
C4    C     C_R   0.260299 0.512612 0.502035 0.862801
C5    C     C_R   0.595027 0.937470 0.566133 -0.098317
C6    C     C_3   0.639605 0.937055 0.709619 0.771051
C7    C     C_3   0.649555 0.079552 0.702383 0.399103
C8    C     C_R   0.457504 0.397710 0.070114 -0.080398
C9    C     C_R   0.560648 0.591200 0.072500 0.555958
C10   C     C_R   0.561821 0.590170 0.928411 0.572595
C11   C     C_R   0.458189 0.397322 0.927678 0.008344
C12   C     C_R   0.058978 0.518691 0.631526 0.105593
C13   C     C_3   0.332568 0.337432 0.922186 0.454749
C14   C     C_3   0.330965 0.339467 0.076340 0.347812
C15   C     C_R   0.499523 0.739786 0.500735 0.870645
C16   C     C_R   0.739956 0.490291 0.499630 0.858809
C17   C     C_R   0.106938 0.553388 0.759853 -0.239189
C18   C     C_R   0.042946 0.521779 0.879295 -0.146238
C19   C     C_R   0.932907 0.451229 0.872915 0.290864
C20   C     C_R   0.881252 0.425643 0.746068 -0.197317
C21   C     C_R   0.936839 0.473509 0.625993 0.080081
C22   C     C_3   0.848256 0.866067 0.619338 -0.837215
C23   C     C_R   0.126760 0.527655 0.507462 -0.128028
C24   C     C_3   0.930776 0.317486 0.068680 -0.750317
C25   C     C_R   0.064656 0.529849 0.384130 -0.173118
C26   C     C_R   0.938208 0.511945 0.381686 -0.209682
C27   C     C_R   0.873626 0.483265 0.501386 -0.123325
C28   C     C_R   0.598919 0.065595 0.562274 -0.162486
C29   C     C_R   0.507214 0.128875 0.493134 0.033994
C30   C     C_R   0.425779 0.063338 0.407444 -0.166710
F1    F     F_    0.568268 0.139261 0.791865 -0.554502
F2    F     F_    0.621468 0.683948 0.140520 -0.600916
F3    F     F_    0.628364 0.677966 0.861080 -0.571395
F4    F     F_    0.337577 0.216718 0.869029 -0.583049
F5    F     F_    0.243590 0.421735 0.129108 -0.724012
F6    F     F_    0.548031 0.898067 0.800593 -0.540124
H1    H     H_    0.113583 0.545712 0.289162 0.233247
H2    H     H_    0.356446 0.882303 0.348857 0.156963
H3    H     H_    0.797220 0.895902 0.822781 0.255716
H4    H     H_    0.931636 0.814658 0.653076 0.270433
H5    H     H_    0.877666 0.961180 0.586676 0.223652
H6    H     H_    0.808295 0.812716 0.532453 0.263098
H7    H     H_    0.775599 0.394789 0.981271 0.224917
H8    H     H_    0.875158 0.295698 0.161446 0.242099
H9    H     H_    0.024288 0.349985 0.100498 0.290894
H10   H     H_    0.939659 0.230620 0.005547 0.249064
H11   H     H_    0.745918 0.118562 0.703670 -0.001897
H12   H     H_    0.261863 0.396388 0.874830 0.095770
H13   H     H_    0.329311 0.245473 0.123605 0.134281
H14   H     H_    0.191707 0.608080 0.769509 0.183388
H15   H     H_    0.080688 0.549649 0.976510 0.190082
H16   H     H_    0.797791 0.368117 0.742841 0.157373
H17   H     H_    0.891234 0.521294 0.285910 0.210656
H18   H     H_    0.359972 0.112141 0.345190 0.149353
N1    N     N_R   0.499160 0.499140 0.142800 -0.163228
N2    N     N_R   0.499160 0.499180 0.857150 -0.228450
N3    N     N_2   0.758166 0.874543 0.730247 -0.272205
N4    N     N_2   0.869218 0.413926 0.993664 -0.311924
O1    O     O_R   0.500020 0.316790 0.614690 -0.535721
O2    O     O_R   0.500000 0.316760 0.385350 -0.640401
O3    O     O_R   0.316770 0.500020 0.614690 -0.645105
O4    O     O_R   0.316760 0.499980 0.385350 -0.559720
O5    O     O_R   0.500000 0.683240 0.614650 -0.540680
O6    O     O_R   0.499980 0.683210 0.385310 -0.569820
O7    O     O_R   0.683240 0.500020 0.614650 -0.595661
O8    O     O_R   0.683230 0.499980 0.385310 -0.597958
Zn1   Zn    Zn3+2 0.500010 0.500020 0.653130 1.048614
Zn2   Zn    Zn3+2 0.499990 0.499980 0.346870 1.040098

loop_
_geom_bond_atom_site_label_1
_geom_bond_atom_site_label_2
_ccdc_geom_bond_type
C17   H14   S    
C12   C17   A    
C13   H12   S    
O8    Zn2   S    
C15   O6    A    
C4    O3    A    
C6    C7    S    
C9    N1    A    
C22   H5    S    
N2    Zn1   S    
C10   N2    A    
C9    C10   A    
C2    H2    S    
O1    Zn1   S    
C19   C20   A    
C12   C23   A    
O4    Zn2   S    
C2    C30   A    
C22   H4    S    
C16   C27   S    
C1    C29   S    
C2    C3    A    
C21   C27   A    
C5    C28   A    
C3    C15   S    
C13   F4    S    
C20   H16   S    
C13   C14   S    
C30   H18   S    
C6    N3    S    
C26   C27   A    
C22   H6    S    
C22   N3    S    
C8    C11   A    
C24   H9    S    
O6    Zn2   S    
C8    N1    A    
C28   C29   A    
C6    F6    S    
C18   H15   S    
C17   C18   A    
C10   F3    S    
C1    O1    A    
C19   N4    S    
C5    C6    S    
C24   H8    S    
O5    Zn1   S    
C9    F2    S    
C14   H13   S    
C7    F1    S    
C7    C28   S    
C29   C30   A    
H3    N3    S    
C26   H17   S    
C4    O4    A    
C11   C13   S    
C23   C25   A    
C16   O8    A    
C20   C21   A    
O2    Zn2   S    
C24   N4    S    
C18   C19   A    
C1    O2    A    
C14   F5    S    
C4    C23   S    
O3    Zn1   S    
C15   O5    A    
C16   O7    A    
C8    C14   S    
H7    N4    S    
C25   H1    S    
C25   C26   A    
N1    Zn2   S    
C12   C21   A    
C11   N2    A    
O7    Zn1   S    
C24   H10   S    
C3    C5    A    
C7    H11   S    
