data_mof_unit_2718.cif
_audit_creation_date              2012-12-10T19:02:44-0500
_audit_creation_method            fapswitch 2.2
_symmetry_space_group_name_H-M    P1
_symmetry_Int_Tables_number       1
_space_group_crystal_system       triclinic
_cell_length_a                    9.525732
_cell_length_b                    10.850408
_cell_length_c                    13.857143
_cell_angle_alpha                 90.418152
_cell_angle_beta                  84.850854
_cell_angle_gamma                 89.745846
_cell_volume                      1426.41114464

loop_
_atom_site_label
_atom_site_type_symbol
_atom_type_description
_atom_site_fract_x
_atom_site_fract_y
_atom_site_fract_z
_atom_type_partial_charge
C1    C     C_R   0.499568 0.737701 0.501066 0.831698
C2    C     C_1   0.463200 0.493281 0.786070 -0.191277
C3    C     C_R   0.372206 0.937353 0.517163 -0.102185
C4    C     C_R   0.498531 0.870643 0.509892 -0.038463
C5    C     C_R   0.625369 0.935085 0.517123 -0.227186
C6    C     C_R   0.625742 0.063796 0.518608 -0.196076
C7    C     C_R   0.499293 0.129606 0.512767 -0.090315
C8    C     C_R   0.372941 0.064145 0.518536 -0.131706
C9    C     C_3   0.242985 0.071500 0.463004 0.792709
C10   C     C_3   0.238311 0.928956 0.467638 0.208462
C11   C     C_R   0.933925 0.417305 0.444013 0.272896
C12   C     C_R   0.477239 0.499135 0.683034 0.824246
C13   C     C_R   0.916980 0.572559 0.562535 -0.096031
C14   C     C_R   0.066038 0.572514 0.562594 -0.115124
C15   C     C_R   0.081443 0.417497 0.443774 0.320743
C16   C     C_3   0.100419 0.405261 0.335914 -0.476043
C17   C     C_3   0.941254 0.404285 0.336489 -0.522583
C18   C     C_R   0.499871 0.262417 0.503136 0.794944
C19   C     C_R   0.522708 0.501650 0.316987 0.814995
C20   C     C_1   0.535862 0.503077 0.213820 -0.176387
C21   C     C_2   0.550010 0.505026 0.023215 -0.248675
C22   C     C_2   0.435741 0.478795 0.977424 0.493283
C23   C     C_1   0.450539 0.486839 0.872818 -0.157233
C24   C     C_1   0.544219 0.504065 0.126939 0.069359
Cu1   Cu    Cu3+1 0.359330 0.500020 0.500000 0.955976
Cu2   Cu    Cu3+1 0.640670 0.499980 0.500000 0.927073
H1    H     H_    0.899191 0.314263 0.313707 0.205975
H2    H     H_    0.725116 0.886772 0.517216 0.164378
H3    H     H_    0.153012 0.891532 0.519107 0.074535
N1    N     N_R   0.852140 0.499070 0.499400 -0.188359
N2    N     N_R   0.148050 0.499110 0.499400 -0.201498
O1    O     O_R   0.381190 0.680360 0.500000 -0.551871
O2    O     O_R   0.618770 0.680320 0.499990 -0.604372
O3    O     O_R   0.364410 0.500000 0.637850 -0.589892
O4    O     O_R   0.602000 0.499960 0.637840 -0.575734
O5    O     O_R   0.381230 0.319680 0.500010 -0.568157
O6    O     O_R   0.618810 0.319640 0.500000 -0.584772
O7    O     O_R   0.398000 0.500040 0.362160 -0.561959
O8    O     O_R   0.635590 0.500000 0.362150 -0.588619
O9    O     O_3   0.309009 0.451199 0.032176 -0.609026
C25   C     C_3   0.203461 0.403648 0.976601 0.074898
H4    H     H_    0.133774 0.344324 0.024975 0.158670
H5    H     H_    0.246708 0.342050 0.916346 0.134119
C26   C     C_3   0.113101 0.508175 0.940479 -0.340362
H6    H     H_    0.057494 0.556823 0.003778 0.216955
H7    H     H_    0.180694 0.576100 0.898967 0.222378
C27   C     C_3   0.004632 0.458839 0.875513 -0.933470
H8    H     H_    0.058549 0.414389 0.809733 0.262954
H9    H     H_    0.938767 0.536098 0.852508 0.254006
H10   H     H_    0.934852 0.390818 0.915233 0.254885
H11   H     H_    0.115418 0.633659 0.611291 0.145771
H12   H     H_    0.149342 0.487309 0.299438 0.214912
H13   H     H_    0.149369 0.316343 0.311405 0.246379
H14   H     H_    0.899701 0.485945 0.300257 0.222954
H15   H     H_    0.649434 0.528377 0.982872 0.116403
H16   H     H_    0.725609 0.111012 0.519355 0.176827
O10   O     O_3   0.115293 0.120423 0.511035 -0.645761
C28   C     C_3   0.121655 0.166230 0.606682 0.036193
H17   H     H_    0.039694 0.239335 0.618243 0.173166
H18   H     H_    0.222142 0.212007 0.619167 0.162406
C29   C     C_3   0.087005 0.064916 0.681363 -0.402409
H19   H     H_    0.987236 0.018919 0.666062 0.225769
H20   H     H_    0.172530 0.994808 0.676718 0.206978
C30   C     C_3   0.070734 0.117710 0.784167 -0.908973
H21   H     H_    0.169058 0.164919 0.800821 0.250394
H22   H     H_    0.049013 0.041935 0.836732 0.254982
H23   H     H_    0.981441 0.184240 0.792458 0.258819
O11   O     O_3   0.266227 0.126927 0.369339 -0.623836
C31   C     C_3   0.379329 0.080061 0.305306 0.042253
H24   H     H_    0.334863 0.022405 0.249141 0.175561
H25   H     H_    0.456924 0.023177 0.340354 0.173678
C32   C     C_3   0.456806 0.187171 0.253618 -0.345652
H26   H     H_    0.381117 0.243610 0.215929 0.236306
H27   H     H_    0.503641 0.246231 0.307604 0.214142
C33   C     C_3   0.574491 0.141645 0.179826 -0.920296
H28   H     H_    0.652990 0.087059 0.216365 0.254067
H29   H     H_    0.628673 0.221820 0.144063 0.260599
H30   H     H_    0.530511 0.083690 0.123508 0.257310
O12   O     O_3   0.254261 0.864944 0.378043 -0.611503
C34   C     C_3   0.127028 0.870613 0.332108 0.053462
H31   H     H_    0.154477 0.853900 0.253470 0.158222
H32   H     H_    0.075846 0.963213 0.338558 0.167923
C35   C     C_3   0.022077 0.771721 0.369741 -0.340775
H33   H     H_    0.074749 0.680437 0.364577 0.241157
H34   H     H_    0.984984 0.790459 0.446621 0.201851
C36   C     C_3   0.893635 0.769240 0.311399 -0.925400
H35   H     H_    0.840057 0.860540 0.314939 0.254690
H36   H     H_    0.817884 0.699382 0.341977 0.286266
H37   H     H_    0.925556 0.744746 0.234564 0.249361
H38   H     H_    0.854319 0.633781 0.611188 0.143043

loop_
_geom_bond_atom_site_label_1
_geom_bond_atom_site_label_2
_ccdc_geom_bond_type
Cu1   N2    S    
C13   H38   S    
C31   C32   S    
C25   H4    S    
C19   C20   S    
C14   N2    A    
C2    C12   S    
C1    O2    A    
C7    C8    A    
C27   H9    S    
C35   H33   S    
C18   O6    A    
C32   C33   S    
C5    C6    A    
C36   H36   S    
Cu2   O8    S    
C28   H18   S    
C15   C16   S    
C29   H20   S    
C31   H25   S    
C16   H13   S    
O11   C31   S    
C11   C15   A    
C20   C24   T    
C11   N1    A    
C8    C9    S    
C27   H8    S    
C9    C10   S    
C26   C27   S    
Cu1   O3    S    
Cu1   O1    S    
C13   C14   A    
C25   H5    S    
C29   H19   S    
C34   C35   S    
C26   H7    S    
C27   H10   S    
C17   H1    S    
C30   H23   S    
C13   N1    A    
C32   H27   S    
C3    C8    A    
C21   H15   S    
C36   H35   S    
C32   H26   S    
Cu1   Cu2   S    
C1    O1    A    
C30   H22   S    
C29   C30   S    
C33   H28   S    
C19   O7    A    
Cu1   O7    S    
C5    H2    S    
Cu2   O2    S    
C14   H11   S    
C7    C18   S    
C22   O9    S    
C12   O4    A    
C33   H29   S    
C19   O8    A    
C34   H32   S    
O9    C25   S    
C35   H34   S    
Cu2   N1    S    
C25   C26   S    
C12   O3    A    
C3    C4    A    
C26   H6    S    
C11   C17   S    
C16   H12   S    
C6    H16   S    
C34   H31   S    
C36   H37   S    
C10   O12   S    
Cu2   O6    S    
C15   N2    A    
C6    C7    A    
C1    C4    S    
C30   H21   S    
C28   H17   S    
C9    O11   S    
C3    C10   S    
C10   H3    S    
O10   C28   S    
C16   C17   S    
C28   C29   S    
C9    O10   S    
C31   H24   S    
C33   H30   S    
Cu1   O5    S    
O12   C34   S    
Cu2   O4    S    
C4    C5    A    
C35   C36   S    
C21   C24   S    
C2    C23   T    
C22   C23   S    
C21   C22   D    
C18   O5    A    
C17   H14   S    
