data_mof_unit_971.cif
_audit_creation_date              2013-03-05T15:56:48-0500
_audit_creation_method            fapswitch 2.2
_symmetry_space_group_name_H-M    P1
_symmetry_Int_Tables_number       1
_space_group_crystal_system       triclinic
_cell_length_a                    21.303208
_cell_length_b                    21.352773
_cell_length_c                    13.699342
_cell_angle_alpha                 89.986804
_cell_angle_beta                  90.051008
_cell_angle_gamma                 89.999982
_cell_volume                      6231.58918751

loop_
_atom_site_label
_atom_site_type_symbol
_atom_site_description
_atom_site_fract_x
_atom_site_fract_y
_atom_site_fract_z
_atom_type_partial_charge
O1    O     O_R   0.064880 0.435140 0.582280 -0.587664
O2    O     O_R   0.935120 0.564860 0.417720 -0.585303
O3    O     O_R   0.935120 0.564860 0.582280 -0.594056
O4    O     O_R   0.064880 0.435140 0.417720 -0.583711
O5    O     O_R   0.935120 0.435140 0.417720 -0.586583
O6    O     O_R   0.064880 0.564860 0.582280 -0.573956
O7    O     O_R   0.064880 0.564860 0.417720 -0.590057
O8    O     O_R   0.935120 0.435140 0.582280 -0.581003
O9    O     O_R   0.564880 0.935140 0.582280 -0.586672
O10   O     O_R   0.435120 0.064860 0.417720 -0.573928
O11   O     O_R   0.435120 0.064860 0.582280 -0.590144
O12   O     O_R   0.564880 0.935140 0.417720 -0.581082
O13   O     O_R   0.435120 0.935140 0.417720 -0.587652
O14   O     O_R   0.564880 0.064860 0.582280 -0.585226
O15   O     O_R   0.564880 0.064860 0.417720 -0.593947
O16   O     O_R   0.435120 0.935140 0.582280 -0.583637
C1    C     C_R   0.086052 0.414619 0.500224 0.820989
C2    C     C_R   0.914493 0.585971 0.500134 0.824741
C3    C     C_R   0.914352 0.414145 0.499995 0.826255
C4    C     C_R   0.085691 0.585770 0.500048 0.818506
C5    C     C_R   0.585654 0.914152 0.500020 0.826298
C6    C     C_R   0.414307 0.085768 0.499939 0.818477
C7    C     C_R   0.413951 0.914615 0.499786 0.821067
C8    C     C_R   0.585524 0.085951 0.499860 0.824641
Cu1   Cu    Cu3+1 0.000000 0.500000 0.597420 0.999327
Cu2   Cu    Cu3+1 1.000000 0.500000 0.402580 0.983891
Cu3   Cu    Cu3+1 0.500000 1.000000 0.597420 0.983867
Cu4   Cu    Cu3+1 0.500000 1.000000 0.402580 0.999351
C9    C     C_R   0.142074 0.672185 0.582717 -0.135630
C10   C     C_R   0.840008 0.345401 0.588422 -0.142569
C11   C     C_R   0.839768 0.654060 0.589298 -0.144760
C12   C     C_R   0.143752 0.329565 0.584033 -0.143977
C13   C     C_R   0.660552 0.153763 0.410784 -0.145099
C14   C     C_R   0.356167 0.829668 0.415907 -0.143919
C15   C     C_R   0.358000 0.172283 0.417325 -0.135546
C16   C     C_R   0.659771 0.845206 0.411574 -0.142357
C17   C     C_R   0.133905 0.634315 0.500228 -0.093489
C18   C     C_R   0.866400 0.365266 0.500077 -0.102761
C19   C     C_R   0.866885 0.635140 0.500905 -0.107362
C20   C     C_R   0.135423 0.367293 0.501410 -0.102303
C21   C     C_R   0.633173 0.135078 0.499102 -0.107150
C22   C     C_R   0.364584 0.867284 0.498610 -0.102338
C23   C     C_R   0.366085 0.134305 0.499740 -0.093482
C24   C     C_R   0.633628 0.865295 0.499966 -0.102918
C25   C     C_R   0.171404 0.643061 0.417704 -0.172749
C26   C     C_R   0.846930 0.338512 0.411941 -0.165492
C27   C     C_R   0.848586 0.663225 0.413369 -0.152506
C28   C     C_R   0.174583 0.360302 0.420571 -0.150952
C29   C     C_R   0.651256 0.163345 0.586584 -0.152057
C30   C     C_R   0.325505 0.860183 0.579523 -0.151307
C31   C     C_R   0.328502 0.142941 0.582193 -0.172727
C32   C     C_R   0.653379 0.838796 0.588166 -0.165326
C33   C     C_R   0.217115 0.689656 0.416761 0.061635
C34   C     C_R   0.800543 0.292646 0.411262 0.061601
C35   C     C_R   0.801629 0.708418 0.412652 0.059419
C36   C     C_R   0.220775 0.314187 0.419914 0.059952
C37   C     C_R   0.698208 0.208544 0.587312 0.059047
C38   C     C_R   0.279310 0.814072 0.580171 0.059889
C39   C     C_R   0.282789 0.189535 0.583142 0.061627
C40   C     C_R   0.699790 0.792954 0.588845 0.061484
C41   C     C_R   0.225513 0.728015 0.499613 0.027696
C42   C     C_R   0.773514 0.272899 0.500032 0.029085
C43   C     C_R   0.774265 0.727719 0.501406 0.025639
C44   C     C_R   0.228844 0.275438 0.502407 0.023406
C45   C     C_R   0.725822 0.227627 0.498623 0.025646
C46   C     C_R   0.271151 0.775441 0.497594 0.023497
C47   C     C_R   0.274480 0.228009 0.500372 0.027662
C48   C     C_R   0.726559 0.772975 0.500015 0.028986
C49   C     C_R   0.188224 0.718951 0.584220 -0.002882
C50   C     C_R   0.794156 0.298497 0.590020 -0.004049
C51   C     C_R   0.794609 0.701677 0.591288 -0.002847
C52   C     C_R   0.191154 0.284106 0.586650 0.000178
C53   C     C_R   0.705741 0.201353 0.408787 -0.002759
C54   C     C_R   0.308754 0.784223 0.413282 0.000117
C55   C     C_R   0.311857 0.219059 0.415833 -0.002803
C56   C     C_R   0.705640 0.798323 0.409984 -0.003822
C57   C     C_R   0.253902 0.698668 0.333434 -0.217935
C58   C     C_R   0.780399 0.267077 0.322642 -0.222209
C59   C     C_R   0.781129 0.733591 0.323975 -0.215326
C60   C     C_R   0.258333 0.306005 0.337268 -0.200161
C61   C     C_R   0.718446 0.233951 0.675947 -0.214601
C62   C     C_R   0.241839 0.805776 0.662891 -0.200338
C63   C     C_R   0.245913 0.198429 0.666398 -0.217895
C64   C     C_R   0.720217 0.767637 0.677511 -0.222043
C65   C     C_R   0.767133 0.277728 0.678704 0.310355
C66   C     C_R   0.196995 0.758042 0.666667 0.314986
C67   C     C_R   0.200685 0.245835 0.669792 0.321986
C68   C     C_R   0.767919 0.722703 0.680107 0.320428
C69   C     C_R   0.299128 0.746077 0.330055 0.321982
C70   C     C_R   0.732708 0.222134 0.320023 0.320147
C71   C     C_R   0.732409 0.777331 0.321247 0.310431
C72   C     C_R   0.303177 0.258273 0.333484 0.314925
H1    H     H_    0.111012 0.665782 0.644283 0.207324
H2    H     H_    0.854665 0.367702 0.655440 0.226486
H3    H     H_    0.853411 0.630601 0.655960 0.209174
H4    H     H_    0.111886 0.335012 0.644836 0.201832
H5    H     H_    0.647092 0.130137 0.344199 0.209100
H6    H     H_    0.387970 0.835193 0.355038 0.201907
H7    H     H_    0.389126 0.165957 0.355821 0.207276
H8    H     H_    0.644899 0.867312 0.344496 0.226669
H9    H     H_    0.165055 0.613456 0.354104 0.169230
H10   H     H_    0.867499 0.353714 0.343527 0.172018
H11   H     H_    0.870561 0.649471 0.345513 0.204017
H12   H     H_    0.169054 0.390965 0.358277 0.202391
H13   H     H_    0.629110 0.149742 0.654400 0.203372
H14   H     H_    0.331101 0.890757 0.641880 0.202593
H15   H     H_    0.334786 0.113251 0.645732 0.169274
H16   H     H_    0.633019 0.854185 0.656624 0.172117
H17   H     H_    0.246493 0.669515 0.269649 0.204085
H18   H     H_    0.800875 0.283224 0.254705 0.199603
H19   H     H_    0.801750 0.717684 0.256038 0.220835
H20   H     H_    0.251664 0.335854 0.274083 0.218420
H21   H     H_    0.697636 0.218206 0.743845 0.220840
H22   H     H_    0.248577 0.835533 0.726142 0.218543
H23   H     H_    0.253251 0.169182 0.730119 0.204216
H24   H     H_    0.699951 0.783972 0.745486 0.199767
C73   C     C_R   0.055150 0.494323 0.793017 0.146048
C74   C     C_R   0.945040 0.508050 0.206871 0.118841
C75   C     C_R   0.944765 0.505411 0.792722 0.139519
C76   C     C_R   0.054678 0.490984 0.206810 0.127815
C77   C     C_R   0.554986 0.007858 0.793110 0.118598
C78   C     C_R   0.444837 0.994483 0.206985 0.146079
C79   C     C_R   0.445292 0.991184 0.793196 0.127847
C80   C     C_R   0.555249 0.005290 0.207272 0.139681
N1    N     N_R   1.000000 0.500000 0.743810 -0.230352
N2    N     N_R   1.000000 0.500000 0.256190 -0.226238
N3    N     N_R   0.500000 0.000000 0.743810 -0.226244
N4    N     N_R   0.500000 1.000000 0.256190 -0.230378
C81   C     C_R   0.942535 0.503988 0.896088 -0.125644
C82   C     C_R   0.056173 0.489030 0.103342 -0.130224
C83   C     C_R   0.057128 0.494952 0.896388 -0.129162
C84   C     C_R   0.943131 0.509484 0.103273 -0.132561
C85   C     C_R   0.443790 0.989254 0.896666 -0.130186
C86   C     C_R   0.557480 0.003861 0.103900 -0.125637
C87   C     C_R   0.556902 0.009330 0.896703 -0.132812
C88   C     C_R   0.442861 0.995159 0.103614 -0.129154
C89   C     C_R   0.999776 0.499528 0.948076 -0.012768
C90   C     C_R   0.999699 0.499501 0.051500 -0.014578
C91   C     C_R   0.500300 0.999550 0.948494 -0.014506
C92   C     C_R   0.500225 0.999576 0.051918 -0.012847
C93   C     C_R   0.885049 0.507984 0.948188 0.329311
C94   C     C_R   0.112523 0.477615 0.050931 0.339848
C95   C     C_R   0.114378 0.489295 0.948848 0.326065
C96   C     C_R   0.886324 0.519088 0.050624 0.330553
C97   C     C_R   0.387402 0.978028 0.949089 0.339835
C98   C     C_R   0.614982 0.007659 0.051792 0.329766
C99   C     C_R   0.613747 0.018743 0.949330 0.330559
C100  C     C_R   0.385592 0.989698 0.051167 0.326049
H25   H     H_    0.097162 0.487755 0.750373 0.189582
H26   H     H_    0.902645 0.511722 0.249482 0.189550
H27   H     H_    0.902839 0.512219 0.749847 0.180901
H28   H     H_    0.097213 0.486512 0.249107 0.177534
H29   H     H_    0.597385 0.011335 0.750476 0.189644
H30   H     H_    0.402809 0.988013 0.249631 0.189571
H31   H     H_    0.402746 0.986843 0.750896 0.177539
H32   H     H_    0.597189 0.012003 0.250146 0.180906
N5    N     N_R   0.789352 0.299017 0.772047 0.150381
O17   O     O_R   0.749517 0.310248 0.841854 -0.269927
O18   O     O_R   0.848809 0.295371 0.793191 -0.304010
N6    N     N_R   0.161806 0.749678 0.755136 0.127452
O19   O     O_R   0.141651 0.798388 0.802806 -0.307971
O20   O     O_R   0.160606 0.695244 0.797758 -0.280840
N7    N     N_R   0.166099 0.254975 0.758698 0.129822
O21   O     O_R   0.163623 0.310199 0.798655 -0.287099
O22   O     O_R   0.147419 0.206725 0.808922 -0.285711
N8    N     N_R   0.789478 0.700524 0.773416 0.147685
O23   O     O_R   0.849083 0.701494 0.794271 -0.313453
O24   O     O_R   0.749367 0.691028 0.843478 -0.256339
N9    N     N_R   0.333610 0.755355 0.241080 0.129855
O25   O     O_R   0.352228 0.707183 0.190653 -0.285529
O26   O     O_R   0.336041 0.810642 0.201286 -0.287207
N10   N     N_R   0.711451 0.199688 0.226726 0.147773
O27   O     O_R   0.751791 0.189969 0.157072 -0.255918
O28   O     O_R   0.651919 0.200622 0.205382 -0.312973
N11   N     N_R   0.709895 0.798347 0.227898 0.150051
O29   O     O_R   0.650366 0.794666 0.207251 -0.304468
O30   O     O_R   0.749507 0.809331 0.157672 -0.270298
N12   N     N_R   0.338469 0.250044 0.245080 0.127324
O31   O     O_R   0.339718 0.195676 0.202297 -0.280838
O32   O     O_R   0.358681 0.298826 0.197614 -0.308007
S1    S     S_3+6 0.812841 0.491097 0.887067 0.084829
O33   O     O_2   0.790269 0.549070 0.835647 -0.231807
O34   O     O_2   0.822933 0.440217 0.812961 -0.295718
O35   O     O_3   0.757535 0.466109 0.965463 -0.408735
H33   H     H_    0.719238 0.460736 0.925274 0.396822
S2    S     S_3+6 0.175830 0.438318 0.110310 0.047122
O36   O     O_2   0.212707 0.484671 0.169775 -0.279485
O37   O     O_2   0.149239 0.389011 0.176714 -0.340300
O38   O     O_3   0.223777 0.402397 0.030573 -0.398952
H34   H     H_    0.256917 0.382925 0.071275 0.396488
S3    S     S_3+6 0.187306 0.504458 0.889140 0.084187
O39   O     O_2   0.207966 0.446538 0.835755 -0.222069
O40   O     O_2   0.179431 0.556910 0.816938 -0.272430
O41   O     O_3   0.243005 0.525914 0.969544 -0.421723
H35   H     H_    0.282130 0.528752 0.930786 0.393785
S4    S     S_3+6 0.820090 0.552714 0.110862 0.062130
O42   O     O_2   0.785193 0.502235 0.164733 -0.249179
O43   O     O_2   0.842253 0.601107 0.182560 -0.355201
O44   O     O_3   0.771307 0.588504 0.032031 -0.391635
H36   H     H_    0.738145 0.607444 0.073295 0.394964
S5    S     S_3+6 0.323960 0.938952 0.889740 0.047332
O45   O     O_2   0.287260 0.985427 0.830211 -0.279419
O46   O     O_2   0.350388 0.889542 0.823405 -0.340578
O47   O     O_3   0.275871 0.903209 0.969489 -0.398905
H37   H     H_    0.242682 0.883835 0.928790 0.396496
S6    S     S_3+6 0.687127 0.990528 0.112956 0.084301
O48   O     O_2   0.709925 0.048445 0.164239 -0.231515
O49   O     O_2   0.676839 0.939739 0.187179 -0.296005
O50   O     O_3   0.742346 0.965267 0.034652 -0.410058
H38   H     H_    0.780610 0.959751 0.074878 0.396563
S7    S     S_3+6 0.680173 0.051921 0.888972 0.062286
O51   O     O_2   0.714846 0.001100 0.835595 -0.251135
O52   O     O_2   0.658395 0.100234 0.816836 -0.352469
O53   O     O_3   0.729043 0.087673 0.967686 -0.391871
H39   H     H_    0.763771 0.103947 0.926843 0.394910
S8    S     S_3+6 0.312718 0.005083 0.110885 0.084154
O54   O     O_2   0.291858 0.947210 0.164248 -0.221998
O55   O     O_2   0.320772 0.057472 0.183109 -0.272524
O56   O     O_3   0.257095 0.026766 0.030488 -0.421792
H40   H     H_    0.217992 0.029781 0.069265 0.393785

loop_
_geom_bond_atom_site_label_1
_geom_bond_atom_site_label_2
_geom_bond_distance
_ccdc_geom_bond_type
C84   C96   1.423088 A    
C67   N7    1.437390 S    
N5    O17   1.301446 A    
O8    Cu1   1.967499 S    
C17   C25   1.397361 A    
O5    Cu2   1.967691 S    
O2    C2    1.293091 A    
N9    O26   1.301253 A    
S5    O45   1.503192 D    
C63   C67   1.398294 A    
N7    O21   1.301253 A    
C14   C22   1.400340 A    
S8    O56   1.681951 S    
C98   S6    1.787623 S    
C23   C31   1.397359 A    
C97   C100  1.421036 A    
N12   O31   1.300878 A    
C47   C55   1.418994 A    
C45   C53   1.418357 A    
C12   C52   1.401123 A    
C79   H31   1.079346 S    
S1    O33   1.502927 D    
O10   C6    1.290615 A    
C87   C91   1.415077 A    
C26   H10   1.084606 S    
C15   C55   1.401523 A    
C35   C59   1.397919 A    
C7    C22   1.458664 S    
C77   H29   1.078611 S    
C79   C85   1.418454 A    
C76   C82   1.418459 A    
C13   C53   1.400035 A    
C54   C69   1.416145 A    
C27   C35   1.389949 A    
N7    O22   1.301291 A    
C39   C63   1.398480 A    
C53   C70   1.416541 A    
C77   N3    1.362012 A    
C38   C62   1.397944 A    
Cu2   N2    2.005447 S    
S6    O49   1.502654 D    
N12   O32   1.301309 A    
O6    Cu1   1.967688 S    
C81   C93   1.420565 A    
C84   C90   1.415027 A    
C46   C54   1.418627 A    
C29   C37   1.389971 A    
O35   H33   0.990520 S    
C42   C50   1.418176 A    
O3    C2    1.289015 A    
C20   C28   1.395134 A    
N9    O25   1.301284 A    
O14   C8    1.292959 A    
C74   H26   1.078690 S    
Cu1   N1    2.005447 S    
C32   C40   1.391306 A    
C39   C47   1.411093 A    
C33   C41   1.411097 A    
C41   C46   1.404118 A    
C38   C46   1.410839 A    
S7    O51   1.503069 D    
C35   C43   1.410499 A    
C36   C44   1.410844 A    
O13   Cu4   1.967691 S    
O14   Cu3   1.967688 S    
C15   C23   1.400438 A    
C59   C71   1.396738 A    
C88   C92   1.416110 A    
C80   N4    1.359590 A    
C24   C32   1.398540 A    
O16   Cu3   1.967499 S    
C11   C51   1.400041 A    
O41   H35   0.990487 S    
C25   C33   1.392256 A    
O44   H36   0.991459 S    
N5    O18   1.301399 A    
O1    Cu1   1.967756 S    
C8    C21   1.459742 S    
S5    O46   1.502420 D    
C26   C34   1.391300 A    
C65   N5    1.437026 S    
S4    O44   1.681639 S    
C99   S7    1.786023 S    
C100  S8    1.785975 S    
C21   C29   1.395883 A    
C10   C50   1.399184 A    
O13   C7    1.288430 A    
N10   O28   1.301386 A    
C31   C39   1.392251 A    
C9    C49   1.401468 A    
S1    O34   1.502689 D    
C75   H27   1.078372 S    
C94   S2    1.783911 S    
C76   H28   1.079346 S    
O8    C3    1.291027 A    
C27   H11   1.081880 S    
S3    O39   1.503037 D    
C30   C38   1.392121 A    
C44   C47   1.404144 A    
C63   H23   1.084421 S    
O3    Cu1   1.967430 S    
N8    O24   1.301473 A    
S8    O54   1.503032 D    
C62   H22   1.084056 S    
N11   O30   1.301548 A    
C93   C96   1.423478 A    
C37   C45   1.410427 A    
O56   H40   0.990475 S    
C31   H15   1.084934 S    
S6    O48   1.502880 D    
C29   H13   1.081996 S    
C34   C42   1.410407 A    
Cu1   Cu2   2.669178 S    
C62   C66   1.397923 A    
O12   C5    1.291021 A    
C58   C70   1.397996 A    
Cu3   N3    2.005447 S    
C1    C20   1.458633 S    
N6    O20   1.300884 A    
C60   C72   1.397936 A    
C33   C57   1.398477 A    
C2    C19   1.459811 S    
S3    O40   1.503356 D    
C83   C89   1.416072 A    
C3    C18   1.460426 S    
C75   C81   1.417216 A    
C5    C24   1.460416 S    
C61   H21   1.084142 S    
C79   N3    1.361176 A    
N11   O29   1.301458 A    
O11   Cu3   1.967430 S    
C57   C69   1.398294 A    
C60   H20   1.084068 S    
O50   H38   0.990553 S    
C71   N11   1.437154 S    
C58   H18   1.084403 S    
C97   S5    1.783872 S    
C77   C87   1.420054 A    
C57   H17   1.084418 S    
C15   H7    1.081147 S    
C78   C88   1.416768 A    
C88   C100  1.420119 A    
C76   N2    1.361223 A    
C25   H9    1.084926 S    
C55   C72   1.416756 A    
C22   C30   1.395097 A    
C96   S4    1.786000 S    
O4    C1    1.292967 A    
C72   N12   1.436855 S    
S4    O43   1.501699 D    
O15   C8    1.289116 A    
S7    O52   1.501576 D    
C14   C54   1.401097 A    
C78   H30   1.078386 S    
O16   C7    1.293027 A    
C68   N8    1.438010 S    
C12   C20   1.400313 A    
C80   H32   1.078387 S    
N8    O23   1.301443 A    
C9    C17   1.400443 A    
S5    O47   1.681429 S    
C37   C61   1.397832 A    
C16   C24   1.400682 A    
C85   C97   1.420446 A    
S2    O37   1.502470 D    
C82   C90   1.414269 A    
C75   N1    1.359539 A    
C52   C67   1.416155 A    
C83   C95   1.420170 A    
N10   O27   1.301406 A    
O9    Cu3   1.967756 S    
C19   C27   1.395875 A    
C98   C99   1.423639 A    
S1    O35   1.681741 S    
O10   Cu4   1.967756 S    
C28   C36   1.392135 A    
C43   C48   1.402487 A    
C42   C45   1.402513 A    
C12   H4    1.081307 S    
O53   H39   0.990843 S    
O1    C1    1.288476 A    
C64   C68   1.398013 A    
S8    O55   1.503342 D    
S4    O42   1.503239 D    
O2    Cu2   1.967756 S    
O4    Cu2   1.967430 S    
C91   C92   1.416847 A    
C16   H8    1.080236 S    
C85   C91   1.414291 A    
O5    C3    1.291411 A    
C86   C92   1.414790 A    
C80   C86   1.417305 A    
C48   C56   1.418260 A    
O6    C4    1.290589 A    
C89   C90   1.416843 A    
C66   N6    1.436758 S    
O11   C6    1.291195 A    
C87   C99   1.423073 A    
C36   C60   1.397946 A    
C59   H19   1.084165 S    
C86   C98   1.420658 A    
C41   C49   1.418968 A    
N6    O19   1.301313 A    
S2    O38   1.681440 S    
S3    O41   1.681962 S    
C13   C21   1.401539 A    
C10   H2    1.080212 S    
C9    H1    1.081144 S    
C4    C17   1.459265 S    
C40   C64   1.398493 A    
S6    O50   1.681645 S    
O9    C5    1.291412 A    
O15   Cu4   1.967496 S    
C73   C83   1.416777 A    
O7    Cu2   1.967496 S    
C11   H3    1.081056 S    
C14   H6    1.081305 S    
C11   C19   1.401694 A    
C93   S1    1.787521 S    
C44   C52   1.418652 A    
C78   N4    1.359368 A    
O38   H34   0.990642 S    
C82   C94   1.420423 A    
C18   C26   1.398448 A    
C74   C84   1.420086 A    
C40   C48   1.410504 A    
C56   C71   1.416110 A    
C69   N9    1.437384 S    
C51   C68   1.416629 A    
C16   C56   1.399121 A    
S7    O53   1.681614 S    
C81   C89   1.414811 A    
O47   H37   0.990596 S    
O12   Cu4   1.967430 S    
C64   H24   1.084467 S    
O7    C4    1.291222 A    
C70   N10   1.437907 S    
Cu3   Cu4   2.669178 S    
C30   H14   1.081776 S    
C95   S3    1.785968 S    
C94   C95   1.421070 A    
C32   H16   1.084673 S    
C73   H25   1.078376 S    
C74   N2    1.362125 A    
C10   C18   1.400623 A    
C13   H5    1.080974 S    
S2    O36   1.503202 D    
C50   C65   1.416005 A    
C73   N1    1.359416 A    
C43   C51   1.418433 A    
C6    C23   1.459260 S    
C61   C65   1.396761 A    
C49   C66   1.416838 A    
Cu4   N4    2.005447 S    
C34   C58   1.398391 A    
C28   H12   1.081847 S    
