data_mof_unit_4805.cif
_audit_creation_date              2013-03-05T16:31:21-0500
_audit_creation_method            fapswitch 2.2
_symmetry_space_group_name_H-M    P1
_symmetry_Int_Tables_number       1
_space_group_crystal_system       triclinic
_cell_length_a                    9.537446
_cell_length_b                    10.820705
_cell_length_c                    13.506735
_cell_angle_alpha                 90.191942
_cell_angle_beta                  72.78417
_cell_angle_gamma                 89.677043
_cell_volume                      1331.42870237

loop_
_atom_site_label
_atom_site_type_symbol
_atom_site_description
_atom_site_fract_x
_atom_site_fract_y
_atom_site_fract_z
_atom_type_partial_charge
O1    O     O_R   0.381190 0.680360 0.500000 -0.536181
O2    O     O_R   0.618780 0.680320 0.499990 -0.573974
C1    C     C_R   0.500258 0.737603 0.498343 0.819001
O3    O     O_R   0.323230 0.500000 0.650990 -0.602357
O4    O     O_R   0.560820 0.499960 0.650980 -0.590941
C2    C     C_R   0.421899 0.500700 0.699565 0.770674
Cu1   Cu    Cu3+1 0.359330 0.500020 0.500010 1.001832
Cu2   Cu    Cu3+1 0.640670 0.499980 0.499990 0.960304
O5    O     O_R   0.381220 0.319680 0.500010 -0.591137
O6    O     O_R   0.618810 0.319640 0.500000 -0.594920
O7    O     O_R   0.439180 0.500040 0.349020 -0.525657
O8    O     O_R   0.676770 0.500000 0.349010 -0.586906
C3    C     C_R   0.500576 0.262231 0.499016 0.800852
C4    C     C_R   0.578011 0.503056 0.300254 0.850428
C5    C     C_R   0.772703 0.396447 0.032888 -0.136576
H1    H     H_    0.825740 0.402932 0.175176 0.173662
H2    H     H_    0.867090 0.338169 0.997440 0.191438
C6    C     C_R   0.622015 0.498718 0.186625 -0.140155
C7    C     C_R   0.272383 0.618472 0.848267 -0.198955
C8    C     C_R   0.269582 0.684522 0.936894 -0.146454
C9    C     C_R   0.368934 0.656203 0.990972 -0.056189
C10   C     C_R   0.461971 0.551012 0.965021 0.085665
C11   C     C_R   0.470461 0.488583 0.871060 0.007560
C12   C     C_R   0.552565 0.509764 0.025911 -0.097826
C13   C     C_R   0.670362 0.426181 0.980389 0.010564
C14   C     C_R   0.681110 0.368850 0.885116 0.478125
C15   C     C_R   0.573798 0.392606 0.836563 -0.280280
C16   C     C_R   0.525262 0.541428 0.132267 0.292915
C17   C     C_R   0.750005 0.434408 0.134469 -0.250926
C18   C     C_R   0.379408 0.526866 0.810763 -0.064567
H3    H     H_    0.202596 0.649152 0.802632 0.146282
H4    H     H_    0.374891 0.721346 0.049979 0.184979
H5    H     H_    0.196290 0.763130 0.960144 0.156561
H6    H     H_    0.574512 0.336541 0.769895 0.170491
C19   C     C_R   0.372145 0.936841 0.503421 0.145073
C20   C     C_R   0.502674 0.870522 0.488970 -0.150330
C21   C     C_R   0.636424 0.934314 0.461558 -0.151121
H7    H     H_    0.740349 0.885294 0.443729 0.201342
C22   C     C_R   0.636470 0.063075 0.462062 -0.191990
H8    H     H_    0.740252 0.110191 0.443684 0.164325
C23   C     C_R   0.503036 0.128864 0.490835 -0.093323
C24   C     C_R   0.372265 0.064198 0.505556 0.055349
C25   C     C_3   0.233363 0.070985 0.593518 -0.524753
C26   C     C_3   0.232052 0.930493 0.590640 0.172804
H9    H     H_    0.250844 0.108918 0.665551 0.172731
H10   H     H_    0.142078 0.115152 0.570856 0.212725
H11   H     H_    0.244440 0.885022 0.661371 0.076469
C27   C     C_R   0.960852 0.450428 0.418571 0.290857
N1    N     N_R   0.852320 0.499070 0.499340 -0.212265
C28   C     C_R   0.893892 0.560725 0.574735 -0.047431
H12   H     H_    0.812188 0.607901 0.636356 0.166359
C29   C     C_R   0.042780 0.560379 0.574911 -0.027277
H13   H     H_    0.072502 0.607143 0.636620 0.148319
N2    N     N_R   0.148230 0.499110 0.499340 -0.209947
C30   C     C_R   0.108284 0.451010 0.418337 0.389576
C31   C     C_3   0.132854 0.321575 0.379083 -0.493112
C32   C     C_3   0.972906 0.319879 0.381387 -0.533204
H14   H     H_    0.210256 0.316275 0.299401 0.231852
H15   H     H_    0.157677 0.257098 0.435379 0.209284
H16   H     H_    0.957458 0.310918 0.303306 0.209754
H17   H     H_    0.906661 0.256571 0.441224 0.210743
N3    N     N_R   0.108509 0.882869 0.558783 0.137796
O9    O     O_R   0.127469 0.836873 0.466475 -0.314811
O10   O     O_R   0.977644 0.883959 0.624629 -0.382900
O11   O     O_3   0.784747 0.276704 0.847088 -0.573484
C33   C     C_3   0.887215 0.318207 0.755151 -0.299182
H18   H     H_    0.936301 0.408075 0.767289 0.144683
H19   H     H_    0.836833 0.325209 0.690918 0.171616
H20   H     H_    0.977963 0.249612 0.731247 0.197750
N4    N     N_R   0.391070 0.602012 0.189262 0.100894
O12   O     O_R   0.265302 0.550558 0.196904 -0.383445
O13   O     O_R   0.394804 0.704348 0.239383 -0.349059

loop_
_geom_bond_atom_site_label_1
_geom_bond_atom_site_label_2
_geom_bond_distance
_ccdc_geom_bond_type
O4    Cu2   1.954406 S    
C33   H19   1.111812 S    
C30   C31   1.488424 S    
C31   H15   1.108717 S    
C32   H17   1.108145 S    
N4    O12   1.301573 A    
C11   C18   1.416289 A    
C5    C17   1.384728 A    
C11   C15   1.407276 A    
C27   C30   1.405240 A    
C23   C24   1.395958 A    
C4    C6    1.466902 S    
C28   C29   1.420697 A    
C19   C20   1.395716 A    
C26   H11   1.112679 S    
N3    O10   1.300610 A    
Cu2   O8    1.965059 S    
C7    H3    1.083907 S    
C14   O11   1.385615 S    
N1    C28   1.369946 A    
C7    C8    1.385492 A    
C3    C23   1.446509 S    
O2    C1    1.292119 A    
C13   C14   1.402545 A    
C27   C32   1.490035 S    
C21   C22   1.393285 A    
C6    C17   1.395969 A    
C15   H6    1.082409 S    
C9    C10   1.416914 A    
C8    C9    1.390388 A    
Cu1   O7    1.954406 S    
C19   C26   1.499199 S    
C25   H9    1.112200 S    
C14   C15   1.392519 A    
N3    O9    1.302403 A    
C1    C20   1.443978 S    
C29   H13   1.081557 S    
O3    Cu1   1.965059 S    
C8    H5    1.082740 S    
O3    C2    1.296761 A    
C27   N1    1.363890 A    
C2    C18   1.461417 S    
C21   H7    1.083381 S    
C29   N2    1.368636 A    
C33   H18   1.114087 S    
O1    C1    1.291026 A    
O1    Cu1   1.963676 S    
C25   C26   1.520803 S    
O4    C2    1.292813 A    
C25   H10   1.110913 S    
C10   C12   1.428603 A    
C5    C13   1.402403 A    
C33   H20   1.109052 S    
C31   C32   1.516794 S    
C16   N4    1.436778 S    
C22   H8    1.078140 S    
C9    H4    1.076475 S    
Cu1   O5    1.961372 S    
O8    C4    1.299589 A    
Cu1   Cu2   2.683182 S    
C6    C16   1.415155 A    
C12   C13   1.426243 A    
C22   C23   1.404464 A    
Cu2   O6    1.963676 S    
O11   C33   1.410347 S    
C24   C25   1.496190 S    
O7    C4    1.293253 A    
C5    H2    1.083385 S    
C19   C24   1.378317 A    
O5    C3    1.290497 A    
N2    C30   1.363164 A    
C20   C21   1.404588 A    
C32   H16   1.111201 S    
N4    O13   1.302107 A    
Cu1   N2    2.016132 S    
C28   H12   1.081337 S    
H1    C17   1.083334 S    
C10   C11   1.416454 A    
C7    C18   1.400090 A    
Cu2   N1    2.015987 S    
O2    Cu2   1.961372 S    
C12   C16   1.422345 A    
C31   H14   1.111474 S    
C26   N3    1.464419 S    
O6    C3    1.293981 A    
