data_mof_unit_3194.cif
_audit_creation_date              2012-12-10T18:55:57-0500
_audit_creation_method            fapswitch 2.2
_symmetry_space_group_name_H-M    P1
_symmetry_Int_Tables_number       1
_space_group_crystal_system       triclinic
_cell_length_a                    10.695776
_cell_length_b                    9.845527
_cell_length_c                    15.121634
_cell_angle_alpha                 89.952514
_cell_angle_beta                  90.606911
_cell_angle_gamma                 90.242737
_cell_volume                      1592.28789258

loop_
_atom_site_label
_atom_site_type_symbol
_atom_type_description
_atom_site_fract_x
_atom_site_fract_y
_atom_site_fract_z
_atom_type_partial_charge
C1    C     C_R   0.259911 0.499802 0.499241 0.842550
C2    C     C_R   0.936186 0.620690 0.479661 -0.205098
C3    C     C_R   0.935790 0.378493 0.514279 -0.200245
C4    C     C_R   0.064197 0.620473 0.479545 -0.209937
C5    C     C_R   0.451743 0.627801 0.099682 0.415816
C6    C     C_R   0.536366 0.401937 0.912042 0.415461
C7    C     C_R   0.419523 0.611751 0.899510 0.416492
C8    C     C_R   0.434991 0.381794 0.095487 0.418439
C9    C     C_R   0.434467 0.620735 0.190260 0.308051
C10   C     C_R   0.527212 0.388065 0.820417 0.325635
C11   C     C_R   0.461653 0.623988 0.813205 0.318242
C12   C     C_R   0.740071 0.500134 0.499361 0.857886
C13   C     C_R   0.466798 0.377152 0.185015 0.301411
C14   C     C_R   0.465865 0.498992 0.233650 -0.458255
C15   C     C_R   0.498939 0.504046 0.769350 -0.474195
C16   C     C_R   0.448127 0.506128 0.049742 -0.217854
C17   C     C_R   0.467017 0.506301 0.953051 -0.232826
C18   C     C_R   0.872487 0.499914 0.497751 -0.004685
C19   C     C_R   0.127459 0.499478 0.497492 -0.000815
C20   C     C_3   0.594282 0.786858 0.055732 0.094458
C21   C     C_3   0.655896 0.820118 0.145178 -0.330079
C22   C     C_3   0.785649 0.881087 0.132272 -1.012113
C23   C     C_R   0.492640 0.499679 0.328067 0.969214
C24   C     C_3   0.715343 0.356360 0.990703 0.076230
C25   C     C_3   0.813889 0.357475 0.917663 -0.315883
C26   C     C_3   0.943799 0.388455 0.955455 -1.039773
C27   C     C_3   0.209491 0.625720 0.917908 0.152751
C28   C     C_3   0.104040 0.725915 0.897938 -0.340146
C29   C     C_3   0.074607 0.814041 0.977672 -0.863349
C30   C     C_3   0.262637 0.250614 0.067789 0.065218
C31   C     C_3   0.237766 0.130789 0.129794 -0.268032
C32   C     C_3   0.097702 0.108450 0.141899 -1.053058
C33   C     C_3   0.277082 0.718154 0.270112 0.165644
C34   C     C_R   0.501536 0.500456 0.672657 0.979769
C35   C     C_3   0.174726 0.710216 0.198368 -0.396234
C36   C     C_3   0.046296 0.690076 0.239502 -0.995402
C37   C     C_3   0.438182 0.192067 0.766040 0.127039
C38   C     C_3   0.365971 0.155767 0.849998 -0.357835
C39   C     C_3   0.260966 0.054955 0.830205 -0.949844
C40   C     C_3   0.566098 0.807123 0.753983 0.143667
C41   C     C_3   0.623466 0.871662 0.836508 -0.406775
C42   C     C_3   0.735870 0.961018 0.814577 -0.933373
C43   C     C_3   0.627336 0.232498 0.215674 0.138098
C44   C     C_3   0.677042 0.151668 0.295180 -0.298236
C45   C     C_R   0.603747 0.072262 0.526259 -0.107079
C46   C     C_3   0.819651 0.152991 0.299246 -1.018979
C47   C     C_R   0.395779 0.927799 0.474956 -0.039197
C48   C     C_R   0.396050 0.071477 0.474263 -0.075895
C49   C     C_R   0.604134 0.928568 0.525436 -0.111138
C50   C     C_R   0.063681 0.378290 0.514168 -0.203422
H1    H     H_    0.686707 0.126637 0.547602 0.139048
H2    H     H_    0.646983 0.704889 0.021941 0.090349
H3    H     H_    0.596673 0.893273 0.181248 0.265557
H4    H     H_    0.666111 0.726229 0.185308 0.208891
H5    H     H_    0.842191 0.813619 0.089986 0.268525
H6    H     H_    0.833311 0.891576 0.197385 0.285811
H7    H     H_    0.778927 0.982490 0.100389 0.270712
H8    H     H_    0.749150 0.288660 0.044379 0.149017
H9    H     H_    0.706108 0.459294 0.020489 0.099622
H10   H     H_    0.815512 0.256838 0.884553 0.246972
H11   H     H_    0.789732 0.435870 0.867479 0.200274
H12   H     H_    0.311883 0.873551 0.455863 0.104241
H13   H     H_    0.944367 0.488528 0.989333 0.267800
H14   H     H_    0.012727 0.390938 0.901092 0.260741
H15   H     H_    0.972265 0.308611 0.003408 0.270814
H16   H     H_    0.189397 0.569239 0.979936 0.128270
H17   H     H_    0.208878 0.550762 0.862325 0.057358
H18   H     H_    0.130267 0.791177 0.841117 0.235504
H19   H     H_    0.018219 0.668685 0.878650 0.176702
H20   H     H_    0.038982 0.749311 0.031920 0.246286
H21   H     H_    0.001629 0.889222 0.959439 0.240959
H22   H     H_    0.159585 0.869031 0.000816 0.299797
H23   H     H_    0.312827 0.125215 0.453456 0.131040
H24   H     H_    0.216101 0.229009 0.003517 0.155486
H25   H     H_    0.215943 0.343761 0.093811 0.099779
H26   H     H_    0.280091 0.037185 0.102259 0.250703
H27   H     H_    0.280827 0.150977 0.195559 0.258604
H28   H     H_    0.054028 0.202100 0.168123 0.274132
H29   H     H_    0.081821 0.024697 0.189691 0.282446
H30   H     H_    0.052288 0.081423 0.077898 0.275138
H31   H     H_    0.256986 0.807143 0.312451 0.142469
H32   H     H_    0.271867 0.627142 0.313519 0.124792
H33   H     H_    0.175660 0.805369 0.159157 0.251192
H34   H     H_    0.687352 0.874831 0.546261 0.125796
H35   H     H_    0.192044 0.623511 0.153231 0.207927
H36   H     H_    0.045239 0.596695 0.280774 0.276882
H37   H     H_    0.974764 0.678023 0.186489 0.271778
H38   H     H_    0.021957 0.778940 0.281034 0.266148
H39   H     H_    0.461672 0.097486 0.730311 0.166990
H40   H     H_    0.374167 0.249946 0.721811 0.143733
H41   H     H_    0.429582 0.113125 0.901173 0.290338
H42   H     H_    0.323290 0.249846 0.876043 0.203294
H43   H     H_    0.197266 0.095542 0.778147 0.249333
H44   H     H_    0.206154 0.037609 0.890975 0.278190
H45   H     H_    0.112180 0.284156 0.528203 0.148961
H46   H     H_    0.300199 0.956834 0.807928 0.318883
H47   H     H_    0.552378 0.886540 0.702921 0.162262
H48   H     H_    0.635403 0.734219 0.727224 0.130352
H49   H     H_    0.552017 0.932924 0.870370 0.260659
H50   H     H_    0.656128 0.788874 0.880458 0.189347
H51   H     H_    0.809339 0.899941 0.782010 0.249496
H52   H     H_    0.775460 0.004508 0.876598 0.269533
H53   H     H_    0.707620 0.045461 0.770078 0.293543
H54   H     H_    0.682521 0.329118 0.211486 0.098329
H55   H     H_    0.643427 0.172592 0.154711 0.158718
H56   H     H_    0.887535 0.714692 0.465503 0.153780
H57   H     H_    0.643078 0.196206 0.357423 0.271312
H58   H     H_    0.642448 0.045459 0.291958 0.218933
H59   H     H_    0.858667 0.121276 0.235001 0.276888
H60   H     H_    0.852811 0.082323 0.351657 0.266769
H61   H     H_    0.854357 0.256800 0.315050 0.274891
H62   H     H_    0.886976 0.284372 0.528280 0.152484
H63   H     H_    0.113173 0.714366 0.465207 0.144859
H64   H     H_    0.600854 0.880052 0.015085 0.187254
N1    N     N_R   0.500000 0.857200 0.500000 -0.074921
N2    N     N_R   0.500000 0.142800 0.500000 -0.093034
O1    O     O_R   0.316770 0.614620 0.499990 -0.639854
O2    O     O_3   0.599729 0.303205 0.959690 -0.579699
O3    O     O_3   0.324811 0.696364 0.927140 -0.539435
O4    O     O_3   0.393033 0.265509 0.053232 -0.586916
O5    O     O_3   0.398249 0.737227 0.234484 -0.595795
O6    O     O_3   0.552270 0.262881 0.783124 -0.605244
O7    O     O_3   0.446970 0.747622 0.770516 -0.599340
O8    O     O_3   0.497022 0.254182 0.224218 -0.598396
O9    O     O_R   0.683230 0.385380 0.500010 -0.641433
O10   O     O_R   0.683230 0.614620 0.500010 -0.643022
O11   O     O_R   0.316770 0.385380 0.499990 -0.642512
O12   O     O_R   0.499990 0.614660 0.369060 -0.589679
O13   O     O_R   0.500010 0.385340 0.630940 -0.601074
O14   O     O_R   0.500010 0.614660 0.630940 -0.595292
O15   O     O_R   0.499990 0.385340 0.369060 -0.585082
O16   O     O_3   0.465577 0.754903 0.062203 -0.560654
Zn1   Zn    Zn3+2 0.500000 0.653120 0.500000 0.951973
Zn2   Zn    Zn3+2 0.500000 0.346880 0.500000 0.940401

loop_
_geom_bond_atom_site_label_1
_geom_bond_atom_site_label_2
_ccdc_geom_bond_type
O9    Zn2   S    
C21   H3    S    
C8    C13   A    
C2    C18   A    
C41   C42   S    
C28   H19   S    
C19   C50   A    
O11   Zn2   S    
C26   H13   S    
O15   Zn2   S    
O1    Zn1   S    
C42   H53   S    
C47   H12   S    
C36   H38   S    
C7    C11   A    
C37   H40   S    
C49   H34   S    
C21   C22   S    
C28   C29   S    
C28   H18   S    
C20   O16   S    
C10   C15   A    
C40   H48   S    
C38   C39   S    
C30   H24   S    
C50   H45   S    
N2    Zn2   S    
C45   H1    S    
C38   H42   S    
C3    C18   A    
C43   H55   S    
C40   O7    S    
C26   H14   S    
C43   H54   S    
C39   H43   S    
C5    C16   A    
C4    C19   A    
C11   C15   A    
C5    O16   S    
C35   C36   S    
C34   O13   A    
C16   C17   S    
C7    C17   A    
C9    O5    S    
C41   H49   S    
C25   H10   S    
C33   H32   S    
C15   C34   S    
C48   N2    A    
C29   H22   S    
C8    C16   A    
C13   C14   A    
C33   O5    S    
C22   H7    S    
C42   H52   S    
C3    C50   A    
C44   C46   S    
C31   H27   S    
C44   H58   S    
C36   H37   S    
C1    C19   S    
C7    O3    S    
C4    H63   S    
C24   C25   S    
O10   Zn1   S    
C40   H47   S    
C13   O8    S    
C35   H33   S    
C25   H11   S    
C12   O9    A    
N1    Zn1   S    
C36   H36   S    
C25   C26   S    
C38   H41   S    
C2    H56   S    
O13   Zn2   S    
C14   C23   S    
C2    C4    A    
C43   C44   S    
C39   H44   S    
C5    C9    A    
C37   C38   S    
C32   H30   S    
C47   C48   A    
C45   C49   A    
C3    H62   S    
C41   H50   S    
C23   O15   A    
C1    O1    A    
C47   N1    A    
C40   C41   S    
C49   N1    A    
C46   H60   S    
O14   Zn1   S    
C42   H51   S    
C8    O4    S    
C29   H20   S    
C44   H57   S    
C6    C17   A    
C26   H15   S    
C48   H23   S    
C31   C32   S    
C11   O7    S    
C1    O11   A    
C10   O6    S    
C6    C10   A    
C22   H6    S    
C22   H5    S    
C27   O3    S    
C24   O2    S    
C37   H39   S    
C21   H4    S    
C20   H2    S    
C27   H16   S    
O12   Zn1   S    
C32   H29   S    
C20   H64   S    
C30   H25   S    
C35   H35   S    
C45   N2    A    
C31   H26   S    
C30   C31   S    
C30   O4    S    
C24   H9    S    
C33   C35   S    
C9    C14   A    
C39   H46   S    
C27   H17   S    
C32   H28   S    
C37   O6    S    
C12   O10   A    
C20   C21   S    
C34   O14   A    
C24   H8    S    
C46   H59   S    
C12   C18   S    
C27   C28   S    
C46   H61   S    
C33   H31   S    
C43   O8    S    
C6    O2    S    
C23   O12   A    
C29   H21   S    
