data_mof_unit_3870.cif
_audit_creation_date              2013-03-05T15:55:01-0500
_audit_creation_method            fapswitch 2.2
_symmetry_space_group_name_H-M    P1
_symmetry_Int_Tables_number       1
_space_group_crystal_system       triclinic
_cell_length_a                    11.688777
_cell_length_b                    12.374662
_cell_length_c                    13.054551
_cell_angle_alpha                 116.549172
_cell_angle_beta                  78.112413
_cell_angle_gamma                 101.670381
_cell_volume                      1639.7760995

loop_
_atom_site_label
_atom_site_type_symbol
_atom_site_description
_atom_site_fract_x
_atom_site_fract_y
_atom_site_fract_z
_atom_type_partial_charge
O1    O     O_R   0.533340 0.972510 0.318140 -0.565959
O2    O     O_R   0.488570 0.806530 0.359650 -0.588938
C1    C     C_R   0.507851 0.854753 0.285847 0.821644
O3    O     O_R   0.685190 0.083000 0.479260 -0.544664
O4    O     O_R   0.640410 0.917020 0.520770 -0.593655
C2    C     C_R   0.715757 0.000280 0.500336 0.838541
Cu1   Cu    Cu3+1 0.526510 0.098270 0.475420 1.023230
Cu2   Cu    Cu3+1 0.473490 0.901730 0.524580 1.004597
O5    O     O_R   0.511430 0.193470 0.640350 -0.576553
O6    O     O_R   0.466660 0.027490 0.681860 -0.541200
O7    O     O_R   0.359590 0.082980 0.479230 -0.551803
O8    O     O_R   0.314810 0.917000 0.520740 -0.575745
C3    C     C_R   0.488033 0.144811 0.714514 0.835732
C4    C     C_R   0.284031 0.001908 0.502822 0.832443
C5    C     C_1   0.837424 0.001291 0.501604 -0.102332
C6    C     C_1   0.939885 0.002251 0.502858 0.069539
C7    C     C_1   0.059634 0.003068 0.504030 0.081365
C8    C     C_1   0.162153 0.003045 0.504174 -0.080126
C9    C     C_R   0.370581 0.271006 0.031746 -0.156478
H1    H     H_    0.317829 0.236902 0.091834 0.206525
C10   C     C_R   0.474868 0.225743 0.839412 -0.204323
C11   C     C_R   0.558978 0.815542 0.078114 -0.118055
C12   C     C_R   0.572067 0.735761 0.961593 -0.088228
C13   C     C_R   0.541603 0.610965 0.927936 -0.098455
C14   C     C_R   0.495154 0.563886 0.010632 0.102225
C15   C     C_R   0.458571 0.647342 0.124295 0.007756
C16   C     C_R   0.472517 0.436965 0.981503 0.036571
C17   C     C_R   0.398129 0.396189 0.061816 -0.010443
C18   C     C_R   0.348241 0.480668 0.168431 0.136775
C19   C     C_R   0.369982 0.604558 0.193392 0.112934
C20   C     C_R   0.522701 0.348786 0.876254 0.095208
C21   C     C_R   0.404903 0.185771 0.921002 0.317696
C22   C     C_R   0.505037 0.772358 0.161525 -0.080246
H2    H     H_    0.590351 0.911034 0.102576 0.185629
H3    H     H_    0.549678 0.552701 0.836506 0.156741
H4    H     H_    0.608872 0.770369 0.897253 0.170974
C23   C     C_R   0.691528 0.356601 0.336815 0.100153
N1    N     N_R   0.566700 0.246290 0.438210 -0.230198
C24   C     C_R   0.340996 0.760422 0.643962 0.061321
C25   C     C_R   0.295812 0.661330 0.669812 0.062698
C26   C     C_R   0.347553 0.552600 0.611274 0.284956
C27   C     C_R   0.451563 0.546663 0.529934 -0.118054
C28   C     C_R   0.490359 0.651122 0.504655 0.178238
C29   C     C_R   0.519283 0.443810 0.471641 -0.060694
C30   C     C_R   0.613342 0.445056 0.383013 -0.053565
C31   C     C_R   0.631969 0.538760 0.346527 0.281016
C32   C     C_R   0.582301 0.644454 0.415850 -0.206362
C33   C     C_R   0.502281 0.341820 0.499278 0.068234
C34   C     C_R   0.660907 0.252423 0.357711 0.289342
N2    N     N_R   0.434010 0.754320 0.561170 -0.212351
H5    H     H_    0.440814 0.336559 0.570430 0.198347
H6    H     H_    0.297741 0.841773 0.686736 0.194104
H7    H     H_    0.614450 0.718168 0.392911 0.227379
N3    N     N_R   0.370140 0.059219 0.894805 0.121246
O9    O     O_R   0.450516 0.989485 0.871300 -0.344803
O10   O     O_R   0.260749 0.021288 0.921128 -0.341109
N4    N     N_R   0.689851 0.523025 0.233008 0.143041
O11   O     O_R   0.748230 0.615815 0.215165 -0.333652
O12   O     O_R   0.667661 0.420493 0.144317 -0.319213
I1    I     I_    0.870767 0.395483 0.265654 -0.084573
N5    N     N_R   0.284761 0.447345 0.625680 0.109875
O13   O     O_R   0.235270 0.358181 0.540787 -0.316774
O14   O     O_R   0.270637 0.443374 0.725524 -0.346593
I2    I     I_    0.140366 0.678056 0.790425 -0.067643
I3    I     I_    0.237990 0.425597 0.294583 -0.194036
I4    I     I_    0.697601 0.384109 0.795713 -0.213816
I5    I     I_    0.227685 0.708632 0.286755 -0.231933
I6    I     I_    0.765339 0.106301 0.257432 -0.203502

loop_
_geom_bond_atom_site_label_1
_geom_bond_atom_site_label_2
_geom_bond_distance
_ccdc_geom_bond_type
O4    Cu2   1.914186 S    
C29   C33   1.427797 A    
C12   C13   1.392906 A    
C28   N2    1.380877 A    
C18   C19   1.396808 A    
C34   I6    2.142896 S    
C14   C16   1.421555 A    
C23   C34   1.397117 A    
C26   C27   1.430219 A    
C4    C8    1.423916 S    
C15   C22   1.421683 A    
N1    C33   1.367608 A    
C19   I5    2.130459 S    
C25   I2    2.122648 S    
C26   N5    1.430352 S    
Cu2   O8    1.914935 S    
Cu1   O5    1.927410 S    
C7    C8    1.198763 T    
C14   C15   1.413693 A    
C3    C10   1.477975 S    
Cu1   Cu2   2.707907 S    
N1    C34   1.372374 A    
O1    Cu1   1.941730 S    
C30   C31   1.402751 A    
C13   C14   1.411532 A    
Cu1   O7    1.914186 S    
C9    C17   1.401492 A    
C10   C20   1.404998 A    
N4    O11   1.301922 A    
O4    C2    1.300056 A    
C27   C29   1.455750 A    
O3    Cu1   1.914935 S    
C18   I3    2.147308 S    
C32   H7    1.059313 S    
O3    C2    1.300546 A    
C17   C18   1.407706 A    
C10   C21   1.412938 A    
Cu1   N1    2.040839 S    
O8    C4    1.302098 A    
C15   C19   1.409441 A    
O2    C1    1.305851 A    
C11   C12   1.390931 A    
C31   N4    1.440169 S    
N5    O13   1.301172 A    
C11   H2    1.080940 S    
O7    C4    1.298860 A    
N3    O10   1.301423 A    
N4    O12   1.301933 A    
C23   I1    2.161895 S    
C6    C7    1.400902 S    
C27   C28   1.438063 A    
C9    C21   1.390202 A    
C16   C20   1.417485 A    
C5    C6    1.198709 T    
C13   H3    1.079445 S    
Cu2   N2    2.028838 S    
C16   C17   1.424679 A    
C24   N2    1.353533 A    
C29   C30   1.425712 A    
Cu2   O6    1.941729 S    
C12   H4    1.082645 S    
C21   N3    1.433740 S    
C24   C25   1.389569 A    
N5    O14   1.301497 A    
C11   C22   1.403491 A    
C1    C22   1.484543 S    
N3    O9    1.301526 A    
C25   C26   1.407042 A    
O5    C3    1.311554 A    
C2    C5    1.423103 S    
C31   C32   1.378165 A    
C20   I4    2.154012 S    
C23   C30   1.408746 A    
C33   H5    1.069299 S    
O2    Cu2   1.927410 S    
C9    H1    1.079349 S    
C24   H6    1.080725 S    
C28   C32   1.393852 A    
O1    C1    1.310300 A    
O6    C3    1.302223 A    
