data_mof_unit_32.cif
_audit_creation_date              2013-03-05T15:52:43-0500
_audit_creation_method            fapswitch 2.2
_symmetry_space_group_name_H-M    P1
_symmetry_Int_Tables_number       1
_space_group_crystal_system       triclinic
_cell_length_a                    8.256974
_cell_length_b                    17.379999
_cell_length_c                    18.816436
_cell_angle_alpha                 98.915208
_cell_angle_beta                  90.928264
_cell_angle_gamma                 96.536501
_cell_volume                      2648.73568115

loop_
_atom_site_label
_atom_site_type_symbol
_atom_site_description
_atom_site_fract_x
_atom_site_fract_y
_atom_site_fract_z
_atom_type_partial_charge
P1    P     P_3+3 0.048060 0.426210 0.336320 0.456721
O1    O     O_2   0.878040 0.448040 0.325130 -0.364319
O2    O     O_3   0.126800 0.453980 0.414370 -0.412297
O3    O     O_3   0.651020 0.589120 0.368830 -0.367647
O4    O     O_2   0.764818 0.529554 0.243939 -0.390476
O5    O     O_3   0.018154 0.323647 0.318432 -0.569375
O6    O     O_3   0.710131 0.674187 0.254438 -0.520819
H1    H     H_    0.534679 0.725668 0.317561 0.090326
C1    C     C_3   0.653916 0.805084 0.251858 -0.057753
H2    H     H_    0.738075 0.832453 0.297853 0.148099
H3    H     H_    0.724699 0.801315 0.201870 0.153269
P2    P     P_3+3 0.655920 0.678120 0.556130 0.466942
P3    P     P_3+3 0.101988 0.732314 0.406189 0.495913
O7    O     O_2   0.830300 0.688050 0.534560 -0.355541
O8    O     O_3   0.068750 0.630380 0.404830 -0.384159
O9    O     O_2   0.964591 0.769812 0.448833 -0.369589
O10   O     O_3   0.670672 0.704061 0.649782 -0.558496
O11   O     O_3   0.073356 0.751765 0.318637 -0.485585
C2    C     C_3   0.121022 0.689236 0.269996 0.490093
H4    H     H_    0.033681 0.635619 0.269715 0.144395
H5    H     H_    0.245426 0.676648 0.284025 -0.020407
C3    C     C_3   0.120881 0.710624 0.194626 -0.865835
H6    H     H_    0.996326 0.721046 0.178401 0.267541
H7    H     H_    0.206253 0.764476 0.193209 0.295660
C4    C     C_3   0.218005 0.711110 0.626898 0.403868
H8    H     H_    0.343920 0.698356 0.615843 0.083538
H9    H     H_    0.134763 0.690747 0.579106 0.119277
C5    C     C_3   0.219508 0.799448 0.646074 -0.946528
H10   H     H_    0.302310 0.822172 0.693641 0.273542
H11   H     H_    0.262857 0.828398 0.600246 0.211273
H12   H     H_    0.094421 0.813966 0.658528 0.268580
Ba1   Ba    Ba6+2 0.849550 0.533890 0.465080 1.540423
C6    C     C_3   0.973499 0.293680 0.380928 0.417682
H13   H     H_    0.861798 0.317206 0.401550 0.092699
H14   H     H_    0.072450 0.308858 0.422917 0.134012
C7    C     C_3   0.941487 0.204812 0.362369 -0.928547
H15   H     H_    0.834967 0.187956 0.324091 0.276173
H16   H     H_    0.916145 0.178473 0.411492 0.224708
H17   H     H_    0.050277 0.181152 0.337443 0.269641
C8    C     C_3   0.718341 0.641912 0.681058 0.388163
H18   H     H_    0.826384 0.619722 0.654798 0.099393
H19   H     H_    0.616843 0.593643 0.676838 0.133466
C9    C     C_3   0.761513 0.671903 0.760139 -0.881328
H20   H     H_    0.878370 0.711209 0.765525 0.263503
H21   H     H_    0.773479 0.622463 0.789833 0.215044
H22   H     H_    0.664180 0.705399 0.784461 0.303060
P4    P     P_3+3 0.141640 0.573850 0.663690 0.456673
O12   O     O_2   0.311660 0.551990 0.674910 -0.367136
O13   O     O_3   0.062910 0.546080 0.585630 -0.418845
O14   O     O_3   0.538690 0.410940 0.631180 -0.390937
O15   O     O_3   0.164417 0.676436 0.685681 -0.570242
P5    P     P_3+3 0.087775 0.268342 0.596763 0.457417
O16   O     O_3   0.620260 0.406250 0.463620 -0.395762
O17   O     O_3   0.120960 0.369680 0.595180 -0.348781
O18   O     O_2   0.216716 0.230719 0.548606 -0.389635
O19   O     O_3   0.143065 0.251394 0.682992 -0.547465
Ba2   Ba    Ba6+2 0.340280 0.466170 0.534930 1.565819
P6    P     P_3+3 0.636538 0.582172 0.275077 0.449086
C10   C     C_3   0.584797 0.722633 0.262711 0.168904
H23   H     H_    0.486641 0.700480 0.221065 0.078959
O20   O     O_3   0.569440 0.593820 0.536390 -0.427039
C11   C     C_3   0.479186 0.340121 0.316114 0.435007
H24   H     H_    0.355652 0.352129 0.333647 0.092872
H25   H     H_    0.566266 0.394348 0.329308 0.122730
C12   C     C_3   0.472253 0.315785 0.234820 -0.960875
H26   H     H_    0.384029 0.262317 0.219504 0.276983
H27   H     H_    0.432776 0.363528 0.208185 0.216611
H28   H     H_    0.594810 0.303525 0.215861 0.261602
P7    P     P_3+3 0.539720 0.307832 0.442097 0.438311
O21   O     O_2   0.359400 0.311980 0.465480 -0.364488
O22   O     O_3   0.530324 0.279100 0.348585 -0.558475
H29   H     H_    0.160130 0.662202 0.155676 0.214653
C13   C     C_3   0.021408 0.268763 0.732851 0.929290
H30   H     H_    0.939165 0.309197 0.715264 -0.100510
C14   C     C_3   0.919652 0.192253 0.743613 -1.058022
H31   H     H_    0.000280 0.149755 0.758360 0.285320
H32   H     H_    0.832490 0.204155 0.787122 0.255769
H33   H     H_    0.848966 0.165330 0.693947 0.224284
P8    P     P_3+3 0.555622 0.414884 0.723625 0.498206
C15   C     C_3   0.536741 0.264837 0.689803 0.500832
H34   H     H_    0.670746 0.275164 0.684976 -0.009115
O23   O     O_2   0.430376 0.469001 0.755720 -0.321036
O24   O     O_3   0.481959 0.321762 0.742363 -0.470741
H35   H     H_    0.476453 0.265342 0.636746 0.145773
H36   H     H_    0.543593 0.139098 0.671019 0.214677
C16   C     C_3   0.494069 0.183923 0.710652 -0.927337
H37   H     H_    0.360026 0.169082 0.711432 0.292365
H38   H     H_    0.546470 0.182349 0.765010 0.258883
C17   C     C_R   0.997768 0.463412 0.050019 0.057764
C18   C     C_R   0.910632 0.419991 0.097776 -0.185652
C19   C     C_R   0.772557 0.438748 0.958759 -0.255447
C20   C     C_R   0.934905 0.467013 0.979734 0.100272
C21   C     C_R   0.711018 0.436614 0.889076 0.024369
C22   C     C_R   0.813107 0.462971 0.835472 -0.001137
C23   C     C_R   0.972803 0.500583 0.857693 0.037756
C24   C     C_R   0.032804 0.503439 0.930299 0.064164
C25   C     C_R   0.763361 0.455136 0.761298 0.132985
C26   C     C_R   0.872590 0.482371 0.711817 -0.511306
C27   C     C_R   0.022460 0.526151 0.733543 0.308071
C28   C     C_R   0.072058 0.536621 0.807867 -0.034362
C29   C     C_R   0.155905 0.500447 0.072290 0.039133
C30   C     C_R   0.216322 0.499701 0.144003 -0.001334
C31   C     C_R   0.116996 0.463261 0.193333 -0.043043
C32   C     C_R   0.969162 0.419817 0.167366 -0.044203
H39   H     H_    0.834782 0.474611 0.655598 0.172656
H40   H     H_    0.896087 0.384641 0.200223 0.164034
C33   C     C_R   0.214609 0.584821 0.834736 -0.155342
C34   C     C_R   0.268184 0.592366 0.906900 0.290373
C35   C     C_R   0.188592 0.544022 0.953553 -0.110848
C36   C     C_R   0.254742 0.537386 0.023273 0.064548
C37   C     C_R   0.420355 0.561371 0.044207 -0.114377
C38   C     C_R   0.376662 0.534393 0.166009 -0.033144
C39   C     C_R   0.478798 0.561773 0.114296 -0.182402
C40   C     C_R   0.430638 0.538331 0.238550 0.159959
C41   C     C_R   0.325951 0.507116 0.287214 -0.520285
C42   C     C_R   0.170703 0.469618 0.266403 0.245866
H41   H     H_    0.281831 0.621121 0.800973 0.194109
H42   H     H_    0.605665 0.583157 0.127145 0.177634
H43   H     H_    0.369389 0.507743 0.341601 0.163696
H44   H     H_    0.685999 0.419779 0.996590 0.128451
H45   H     H_    0.797428 0.383366 0.082476 0.131287
H46   H     H_    0.509196 0.578220 0.006382 0.162523
H47   H     H_    0.475260 0.139844 0.455918 0.160464
H48   H     H_    0.288945 0.892141 0.437829 0.175328
C43   C     C_R   0.400662 0.718461 0.472026 -0.362279
C44   C     C_R   0.549470 0.745497 0.509893 0.302509
C45   C     C_R   0.606844 0.825733 0.519123 -0.253512
C46   C     C_R   0.515311 0.878716 0.491771 0.049283
C47   C     C_R   0.362841 0.851417 0.456989 -0.207509
C48   C     C_R   0.305324 0.771312 0.447504 0.222027
C49   C     C_R   0.587028 0.163567 0.486431 -0.230014
C50   C     C_R   0.640424 0.243883 0.493356 0.277784
C51   C     C_R   0.883118 0.225406 0.559969 0.213014
C52   C     C_R   0.832105 0.144400 0.551631 -0.299651
C53   C     C_R   0.681305 0.113601 0.516565 0.071619
C54   C     C_1   0.625435 0.030542 0.508518 0.004099
C55   C     C_1   0.575864 0.961342 0.501120 0.037564
C56   C     C_R   0.783919 0.274782 0.532885 -0.496795
H49   H     H_    0.909943 0.105721 0.571512 0.157528
H50   H     H_    0.721035 0.846983 0.548644 0.158714
H51   H     H_    0.825021 0.336814 0.537581 0.166228
N1    N     N_R   0.522837 0.853601 0.246038 0.241628
O25   O     O_R   0.499048 0.881334 0.186849 -0.331531
O26   O     O_R   0.431900 0.871253 0.300553 -0.406275
N2    N     N_R   0.101255 0.308101 0.801069 0.232932
O27   O     O_R   0.185635 0.376167 0.803468 -0.376622
O28   O     O_R   0.090490 0.276678 0.859582 -0.406183
N3    N     N_3   0.541936 0.408868 0.875502 -0.123646
H52   H     H_    0.473446 0.445158 0.909425 0.135959
H53   H     H_    0.520579 0.352248 0.888413 0.170539
N4    N     N_R   0.387578 0.657436 0.933800 0.228299
O29   O     O_R   0.359534 0.705765 0.991131 -0.355509
O30   O     O_R   0.514003 0.674359 0.896382 -0.418675
N5    N     N_3   0.339203 0.637292 0.460469 -0.160914
H54   H     H_    0.420110 0.603905 0.432536 0.175706
H55   H     H_    0.305928 0.617796 0.508272 0.158239

loop_
_geom_bond_atom_site_label_1
_geom_bond_atom_site_label_2
_geom_bond_distance
_ccdc_geom_bond_type
C21   C22   1.421470 A    
C13   H30   1.112632 S    
C30   C38   1.418057 A    
C2    H4    1.110771 S    
C15   H35   1.110039 S    
O16   P7    1.746333 S    
O14   P8    1.732937 S    
C38   C40   1.418045 A    
N2    O27   1.296809 A    
O13   Ba2   2.910061 S    
C53   C54   1.448443 S    
P4    O13   1.578241 S    
H36   C16   1.110233 S    
C4    C5    1.520318 S    
C44   C45   1.403953 A    
C26   H39   1.081746 S    
O4    P6    1.541448 D    
C5    H10   1.110700 S    
C2    H5    1.110394 S    
N3    H53   1.046174 S    
Ba1   O20   2.906975 S    
O11   C2    1.405124 S    
C49   C53   1.404932 A    
P7    O21   1.565699 D    
H1    C10   1.114077 S    
C16   H38   1.109571 S    
P2    C44   1.850958 S    
C50   C56   1.395796 A    
C41   C42   1.391300 A    
C20   C24   1.417693 A    
C6    C7    1.521267 S    
P4    C27   1.891332 S    
C34   C35   1.424810 A    
C21   N3    1.429639 S    
O1    Ba1   2.845761 S    
P1    O1    1.515098 D    
C3    H29   1.108631 S    
P7    O22   1.750965 S    
C36   C37   1.414477 A    
C11   H25   1.110990 S    
C31   C32   1.398337 A    
C43   C48   1.400191 A    
C8    C9    1.520886 S    
C23   C24   1.437302 A    
C12   H27   1.109562 S    
P2    O10   1.748641 S    
H48   C47   1.083292 S    
P4    O12   1.515389 D    
C15   C16   1.522609 S    
N4    O29   1.301696 A    
P1    C42   1.871444 S    
Ba2   O21   2.816325 S    
C1    H2    1.111678 S    
O6    P6    1.748290 S    
N5    H55   1.039550 S    
P5    O18   1.545398 D    
C17   C29   1.414985 A    
C8    H19   1.108848 S    
C51   C56   1.396093 A    
C46   C47   1.406928 A    
C37   H46   1.078431 S    
P5    C51   1.845699 S    
C13   C14   1.532890 S    
C22   C23   1.428997 A    
Ba1   Ba2   4.574239 S    
C15   O24   1.405211 S    
C14   H33   1.103445 S    
O6    C10   1.402544 S    
C38   C39   1.401152 A    
N2    O28   1.302637 A    
P5    O17   1.756319 S    
C25   C26   1.403908 A    
C7    H17   1.110826 S    
P1    O5    1.750095 S    
C29   C30   1.433501 A    
O12   Ba2   2.846206 S    
C2    C3    1.520824 S    
N3    H52   1.045554 S    
C19   C20   1.402455 A    
O16   Ba2   2.906003 S    
C16   H37   1.108348 S    
C54   C55   1.211429 T    
P4    O15   1.754409 S    
C22   C25   1.430040 A    
C4    H8    1.103861 S    
P1    Ba1   3.388321 S    
C13   N2    1.465518 S    
P1    O2    1.578106 S    
O10   C8    1.397967 S    
C14   H31   1.111429 S    
C4    O15   1.394309 S    
C11   H24   1.109442 S    
C19   C21   1.392049 A    
C34   N4    1.435139 S    
C9    H21   1.107545 S    
C27   C28   1.429083 A    
P3    C48   1.848766 S    
C12   H28   1.110837 S    
C6    H13   1.103041 S    
O2    Ba1   2.909273 S    
C37   C39   1.395696 A    
C17   C20   1.425911 A    
Ba2   O20   2.743489 S    
C14   H32   1.109716 S    
C18   C32   1.388983 A    
N5    H54   1.031679 S    
O3    Ba1   2.772988 S    
C46   C55   1.448631 S    
P3    O11   1.749947 S    
C8    H18   1.105579 S    
P2    O7    1.500585 D    
C49   C50   1.400546 A    
C12   H26   1.110557 S    
C41   H43   1.076948 S    
C1    H3    1.112673 S    
C9    H20   1.110516 S    
C51   C52   1.406611 A    
C18   H45   1.077390 S    
N1    O26   1.300004 A    
C45   H50   1.083569 S    
C33   C34   1.403145 A    
C45   C46   1.405989 A    
O2    Ba2   2.816839 S    
Ba1   O16   2.744003 S    
C52   H49   1.083267 S    
C43   N5    1.425935 S    
P6    C40   1.856938 S    
C47   C48   1.401917 A    
C7    H15   1.110668 S    
C28   C33   1.402762 A    
O19   C13   1.411432 S    
C11   C12   1.520905 S    
H47   C49   1.083585 S    
C23   C28   1.425822 A    
O14   Ba2   2.772372 S    
P8    C25   1.862212 S    
C5    H12   1.110941 S    
O7    Ba1   2.816228 S    
C15   H34   1.108086 S    
C56   H51   1.082366 S    
O8    Ba1   2.708895 S    
P8    O23   1.544176 D    
C1    N1    1.458425 S    
C40   C41   1.397444 A    
C32   H40   1.079504 S    
C4    H9    1.110097 S    
C24   C35   1.422377 A    
C52   C53   1.408706 A    
O5    C6    1.396509 S    
P3    O8    1.757741 S    
C31   C42   1.421707 A    
C29   C36   1.420388 A    
C5    H11   1.108303 S    
C35   C36   1.438991 A    
P8    O24   1.753100 S    
P2    O20   1.542406 S    
C3    H6    1.110448 S    
C43   C44   1.405210 A    
P7    C50   1.836744 S    
C7    H16   1.106033 S    
C6    H14   1.107598 S    
C11   O22   1.403852 S    
C3    H7    1.109832 S    
N4    O30   1.300015 A    
C30   C31   1.422641 A    
C9    H22   1.109097 S    
Ba1   O13   2.816094 S    
C39   H42   1.081312 S    
C10   H23   1.110871 S    
C26   C27   1.396520 A    
P3    O9    1.546406 D    
O3    P6    1.750656 S    
P4    Ba2   3.388922 S    
N1    O25   1.300812 A    
C19   H44   1.077860 S    
C1    C10   1.526165 S    
C17   C18   1.414975 A    
C33   H41   1.079660 S    
P2    Ba1   3.383058 S    
P5    O19   1.755706 S    
O17   Ba2   2.709495 S    
