data_mof_unit_1181.cif
_audit_creation_date              2012-12-10T17:09:18-0500
_audit_creation_method            fapswitch 2.2
_symmetry_space_group_name_H-M    P1
_symmetry_Int_Tables_number       1
_space_group_crystal_system       triclinic
_cell_length_a                    18.19491
_cell_length_b                    18.641631
_cell_length_c                    11.736079
_cell_angle_alpha                 90.000194
_cell_angle_beta                  76.090659
_cell_angle_gamma                 89.999224
_cell_volume                      3863.95196023

loop_
_atom_site_label
_atom_site_type_symbol
_atom_type_description
_atom_site_fract_x
_atom_site_fract_y
_atom_site_fract_z
_atom_type_partial_charge
C1    C     C_R   0.398371 0.099357 0.520757 0.820053
C2    C     C_R   0.600602 0.900571 0.479021 0.815239
C3    C     C_R   0.601627 0.099357 0.479243 0.820044
C4    C     C_R   0.399392 0.900576 0.520980 0.815222
C5    C     C_R   0.898375 0.599358 0.520756 0.820061
C6    C     C_R   0.100608 0.400575 0.479019 0.815232
C7    C     C_R   0.101628 0.599358 0.479244 0.820031
C8    C     C_R   0.899397 0.400571 0.520979 0.815231
C9    C     C_R   0.535751 0.997753 0.960952 0.041026
C10   C     C_R   0.464252 0.997743 0.039045 0.041027
C11   C     C_R   0.035747 0.497729 0.960955 0.041023
C12   C     C_R   0.964248 0.497766 0.039048 0.041032
C13   C     C_R   0.409069 0.001265 0.869882 0.312912
C14   C     C_R   0.590931 0.001282 0.130119 0.312913
C15   C     C_R   0.909070 0.501304 0.869880 0.312901
C16   C     C_R   0.090931 0.501244 0.130117 0.312920
C17   C     C_R   0.401253 0.998333 0.992401 -0.335385
C18   C     C_R   0.598749 0.998360 0.007599 -0.335398
C19   C     C_R   0.901250 0.498393 0.992401 -0.335425
C20   C     C_R   0.098746 0.498300 0.007600 -0.335366
C21   C     C_R   0.542904 0.997735 0.837675 -0.004355
C22   C     C_R   0.457098 0.997724 0.162322 -0.004370
C23   C     C_R   0.042901 0.497705 0.837679 -0.004349
C24   C     C_R   0.957095 0.497754 0.162325 -0.004378
C25   C     C_R   0.657423 0.157295 0.469469 -0.113744
C26   C     C_R   0.348121 0.840488 0.528840 -0.091972
C27   C     C_R   0.342562 0.157285 0.530536 -0.113821
C28   C     C_R   0.651876 0.840486 0.471162 -0.091825
C29   C     C_R   0.157446 0.657280 0.469465 -0.113859
C30   C     C_R   0.848126 0.340484 0.528836 -0.091881
C31   C     C_R   0.842594 0.657307 0.530524 -0.113694
C32   C     C_R   0.151879 0.340488 0.471160 -0.091938
C33   C     C_R   0.326570 0.714845 0.573848 0.188621
C34   C     C_R   0.707295 0.268213 0.372231 0.194739
C35   C     C_R   0.673298 0.714782 0.426574 0.188595
C36   C     C_R   0.292588 0.268137 0.627912 0.194744
C37   C     C_R   0.826670 0.214797 0.573552 0.188607
C38   C     C_R   0.207495 0.768079 0.371993 0.194718
C39   C     C_R   0.173385 0.214825 0.426284 0.188623
C40   C     C_R   0.792820 0.768293 0.627630 0.194750
C41   C     C_R   0.367426 0.777312 0.577516 -0.261713
C42   C     C_R   0.661166 0.207855 0.380585 -0.249767
C43   C     C_R   0.632440 0.777240 0.422841 -0.261657
C44   C     C_R   0.338749 0.207800 0.619510 -0.249794
C45   C     C_R   0.867519 0.277261 0.577276 -0.261669
C46   C     C_R   0.161311 0.707759 0.380425 -0.249804
C47   C     C_R   0.132535 0.277293 0.422586 -0.261700
C48   C     C_R   0.838913 0.707910 0.619328 -0.249745
C49   C     C_R   0.290359 0.841761 0.467737 0.132638
C50   C     C_R   0.705837 0.163662 0.547298 0.110794
C51   C     C_R   0.709775 0.841851 0.531991 0.132619
C52   C     C_R   0.294192 0.163681 0.452641 0.110806
C53   C     C_R   0.790277 0.341814 0.467906 0.132645
C54   C     C_R   0.205782 0.663697 0.547411 0.110811
C55   C     C_R   0.209675 0.341786 0.532195 0.132627
C56   C     C_R   0.794153 0.663659 0.452738 0.110765
C57   C     C_R   0.253165 0.776767 0.453769 0.058591
C58   C     C_R   0.762334 0.217235 0.525062 0.066569
C59   C     C_R   0.746986 0.776876 0.546054 0.058570
C60   C     C_R   0.237677 0.217237 0.474883 0.066555
C61   C     C_R   0.753073 0.276832 0.453875 0.058572
C62   C     C_R   0.262312 0.717239 0.525166 0.066546
C63   C     C_R   0.246872 0.276795 0.546191 0.058573
C64   C     C_R   0.737670 0.717244 0.474972 0.066573
Cu1   Cu    Cu3+1 0.507800 0.000000 0.383250 0.922961
Cu2   Cu    Cu3+1 0.492200 0.000000 0.616750 0.922972
Cu3   Cu    Cu3+1 0.007800 0.500000 0.383250 0.922979
Cu4   Cu    Cu3+1 0.992200 0.500000 0.616750 0.922951
H1    H     H_    0.401602 0.996384 0.221768 0.125450
H2    H     H_    0.598402 0.996402 0.778226 0.125524
H3    H     H_    0.901598 0.496440 0.221774 0.125518
H4    H     H_    0.098397 0.496345 0.778232 0.125453
H5    H     H_    0.624760 0.202172 0.320401 0.164344
H6    H     H_    0.417081 0.775894 0.613495 0.163815
H7    H     H_    0.375116 0.202096 0.679748 0.164417
H8    H     H_    0.582691 0.775770 0.387095 0.163700
H9    H     H_    0.124974 0.702038 0.320147 0.164467
H10   H     H_    0.917236 0.275811 0.613103 0.163742
H11   H     H_    0.875351 0.702244 0.679468 0.164280
H12   H     H_    0.082854 0.275862 0.386672 0.163786
H13   H     H_    0.345402 0.997618 0.051681 0.136504
H14   H     H_    0.654602 0.997666 0.948320 0.136505
H15   H     H_    0.845397 0.497723 0.051680 0.136515
H16   H     H_    0.154597 0.497564 0.948319 0.136495
N1    N     N_R   0.519530 0.000000 0.207810 -0.190611
N2    N     N_R   0.480470 0.000000 0.792190 -0.190626
N3    N     N_R   0.019530 0.500000 0.207810 -0.190623
N4    N     N_R   0.980470 0.500000 0.792190 -0.190612
O1    O     O_R   0.430030 0.075530 0.417420 -0.578270
O2    O     O_R   0.569970 0.924470 0.582580 -0.570842
O3    O     O_R   0.569970 0.075530 0.582580 -0.578257
O4    O     O_R   0.430030 0.924470 0.417420 -0.570832
O5    O     O_R   0.930030 0.575530 0.417420 -0.578258
O6    O     O_R   0.069970 0.424470 0.582580 -0.570838
O7    O     O_R   0.069970 0.575530 0.582580 -0.578276
O8    O     O_R   0.930030 0.424470 0.417420 -0.570829
O9    O     O_R   0.416860 0.075510 0.614610 -0.599667
O10   O     O_R   0.583140 0.924490 0.385390 -0.609319
O11   O     O_R   0.583140 0.075510 0.385390 -0.599669
O12   O     O_R   0.416860 0.924490 0.614610 -0.609363
O13   O     O_R   0.916860 0.575510 0.614610 -0.599666
O14   O     O_R   0.083140 0.424490 0.385390 -0.609359
O15   O     O_R   0.083140 0.575510 0.385390 -0.599669
O16   O     O_R   0.916860 0.424490 0.614610 -0.609323
C65   C     C_3   0.665301 0.005718 0.166838 -0.368079
C66   C     C_3   0.705240 0.077789 0.130834 -0.379653
C67   C     C_3   0.776030 0.085427 0.178179 -0.828623
H17   H     H_    0.761343 0.081320 0.275421 0.254571
H18   H     H_    0.817620 0.042873 0.140995 0.249184
H19   H     H_    0.802449 0.138606 0.152915 0.249756
H20   H     H_    0.722259 0.082441 0.033661 0.210723
H21   H     H_    0.665857 0.122528 0.164670 0.231222
H22   H     H_    0.659993 0.998016 0.260304 0.252171
H23   H     H_    0.702768 0.961423 0.123592 0.164689
C68   C     C_3   0.334696 0.005688 0.833167 -0.368078
C69   C     C_3   0.294714 0.077733 0.869250 -0.379743
C70   C     C_3   0.223934 0.085371 0.821881 -0.828654
H24   H     H_    0.238642 0.081323 0.724633 0.254599
H25   H     H_    0.182369 0.042780 0.858976 0.249192
H26   H     H_    0.197476 0.138525 0.847224 0.249751
H27   H     H_    0.277676 0.082338 0.966428 0.210733
H28   H     H_    0.334077 0.122497 0.835489 0.231175
H29   H     H_    0.340010 0.998025 0.739692 0.252193
H30   H     H_    0.297255 0.961365 0.876362 0.164702
C71   C     C_3   0.165306 0.505654 0.166831 -0.368075
C72   C     C_3   0.205320 0.577676 0.130691 -0.379819
C73   C     C_3   0.276093 0.585311 0.178080 -0.828665
H31   H     H_    0.261370 0.581302 0.275332 0.254613
H32   H     H_    0.317643 0.542695 0.141043 0.249201
H33   H     H_    0.302576 0.638449 0.152690 0.249747
H34   H     H_    0.222374 0.582245 0.033510 0.210745
H35   H     H_    0.165973 0.622461 0.164397 0.231143
H36   H     H_    0.159987 0.498023 0.260313 0.252212
H37   H     H_    0.202728 0.461307 0.123676 0.164718
C74   C     C_3   0.834701 0.505760 0.833162 -0.368081
C75   C     C_3   0.794810 0.577864 0.869092 -0.379551
C76   C     C_3   0.724012 0.585514 0.821772 -0.828608
H38   H     H_    0.738678 0.581344 0.724537 0.254548
H39   H     H_    0.682392 0.543003 0.859046 0.249170
H40   H     H_    0.697640 0.638721 0.846957 0.249761
H41   H     H_    0.777813 0.582560 0.966261 0.210705
H42   H     H_    0.834218 0.622572 0.835187 0.231258
H43   H     H_    0.840001 0.498018 0.739705 0.252142
H44   H     H_    0.797207 0.461499 0.876460 0.164668
C77   C     C_3   0.690061 0.122027 0.661945 -0.847917
H45   H     H_    0.724509 0.139753 0.722511 0.233352
H46   H     H_    0.631375 0.132483 0.712980 0.249492
H47   H     H_    0.699194 0.063893 0.644449 0.225971
C78   C     C_3   0.261646 0.913663 0.436138 -0.865925
H48   H     H_    0.199052 0.913085 0.451810 0.235390
H49   H     H_    0.274159 0.957200 0.493270 0.206541
H50   H     H_    0.288491 0.927863 0.343817 0.232103
C79   C     C_3   0.310027 0.122095 0.337938 -0.847779
H51   H     H_    0.275629 0.139861 0.277326 0.233317
H52   H     H_    0.368731 0.132554 0.286980 0.249492
H53   H     H_    0.300877 0.063955 0.355351 0.225956
C80   C     C_3   0.738575 0.913803 0.563196 -0.866119
H54   H     H_    0.801194 0.913250 0.547061 0.235395
H55   H     H_    0.725849 0.957291 0.506152 0.206520
H56   H     H_    0.711970 0.928063 0.655578 0.232108
C81   C     C_3   0.189898 0.622152 0.662153 -0.847687
H57   H     H_    0.224263 0.639946 0.722795 0.233296
H58   H     H_    0.131182 0.632625 0.713050 0.249497
H59   H     H_    0.199058 0.564006 0.644795 0.225952
C82   C     C_3   0.761507 0.413747 0.436557 -0.866075
H60   H     H_    0.698897 0.413187 0.452531 0.235394
H61   H     H_    0.774158 0.457253 0.493629 0.206511
H62   H     H_    0.788197 0.427982 0.344194 0.232127
C83   C     C_3   0.809892 0.622001 0.338115 -0.847988
H63   H     H_    0.775431 0.639728 0.277568 0.233367
H64   H     H_    0.868574 0.632437 0.287046 0.249496
H65   H     H_    0.800748 0.563872 0.355639 0.225975
C84   C     C_3   0.238406 0.413702 0.563702 -0.865922
H66   H     H_    0.301007 0.413134 0.547904 0.235380
H67   H     H_    0.225831 0.457232 0.506608 0.206545
H68   H     H_    0.211627 0.427913 0.656043 0.232080
C85   C     C_3   0.861481 0.145735 0.603191 -0.884208
H69   H     H_    0.856544 0.142472 0.699200 0.231384
H70   H     H_    0.835633 0.097703 0.572904 0.246195
H71   H     H_    0.922548 0.144276 0.557735 0.228820
C86   C     C_3   0.214125 0.815282 0.265308 -0.871485
H72   H     H_    0.177387 0.863211 0.286934 0.234293
H73   H     H_    0.274009 0.830929 0.228712 0.238716
H74   H     H_    0.196079 0.786230 0.193916 0.222835
C87   C     C_3   0.138615 0.145779 0.396485 -0.884209
H75   H     H_    0.143616 0.142561 0.300457 0.231371
H76   H     H_    0.164442 0.097730 0.426757 0.246172
H77   H     H_    0.077533 0.144298 0.441850 0.228815
C88   C     C_3   0.786493 0.815712 0.733992 -0.871447
H78   H     H_    0.823157 0.863654 0.711852 0.234354
H79   H     H_    0.726637 0.831324 0.770939 0.238648
H80   H     H_    0.804852 0.786854 0.805282 0.222795
C89   C     C_3   0.361305 0.645811 0.603777 -0.884226
H81   H     H_    0.356246 0.642632 0.699824 0.231365
H82   H     H_    0.335496 0.597751 0.573506 0.246174
H83   H     H_    0.422402 0.644312 0.558496 0.228818
C90   C     C_3   0.713731 0.315553 0.265751 -0.871447
H84   H     H_    0.677048 0.363496 0.287707 0.234332
H85   H     H_    0.773598 0.331169 0.228921 0.238674
H86   H     H_    0.695476 0.286627 0.194430 0.222807
C91   C     C_3   0.638475 0.645707 0.397024 -0.884172
H87   H     H_    0.643381 0.642415 0.301026 0.231393
H88   H     H_    0.664340 0.597688 0.427321 0.246187
H89   H     H_    0.577415 0.644254 0.442526 0.228818
C92   C     C_3   0.286038 0.315397 0.734514 -0.871473
H90   H     H_    0.322756 0.363330 0.712755 0.234304
H91   H     H_    0.226162 0.331036 0.771206 0.238689
H92   H     H_    0.304168 0.286396 0.805879 0.222822

loop_
_geom_bond_atom_site_label_1
_geom_bond_atom_site_label_2
_ccdc_geom_bond_type
C71   H37   S    
Cu1   O4    S    
C6    C32   S    
C82   H60   S    
C7    C29   S    
C56   C83   S    
C44   H7    S    
C91   H88   S    
C83   H63   S    
C14   C18   A    
C30   C45   A    
C34   C42   A    
C77   H47   S    
C87   H76   S    
C81   H57   S    
Cu3   O15   S    
C57   C62   A    
Cu2   O2    S    
C66   H21   S    
C86   H72   S    
C10   C22   A    
Cu1   O1    S    
C76   H39   S    
C59   C64   A    
C72   C73   S    
C38   C86   S    
C69   H28   S    
C65   C66   S    
C60   C63   A    
C48   H11   S    
C65   H22   S    
C32   C47   A    
Cu1   O10   S    
C78   H49   S    
C28   C51   A    
C92   H92   S    
C15   C74   S    
C66   C67   S    
C26   C41   A    
C10   C17   A    
C68   C69   S    
C49   C57   A    
C69   C70   S    
C3    O3    A    
C91   H87   S    
C22   N1    A    
Cu2   O12   S    
C88   H79   S    
C25   C50   A    
C55   C84   S    
C75   H42   S    
C8    O8    A    
C52   C60   A    
C77   H46   S    
C41   H6    S    
C53   C61   A    
C27   C44   A    
C14   C65   S    
C40   C88   S    
C88   H80   S    
C33   C62   A    
C85   H70   S    
C55   C63   A    
C13   N2    A    
C67   H19   S    
C16   N3    A    
C67   H17   S    
C56   C64   A    
C45   H10   S    
C72   H35   S    
C31   C56   A    
C79   H52   S    
C36   C63   A    
C35   C43   A    
C16   C71   S    
C22   H1    S    
C37   C58   A    
C89   H81   S    
C1    C27   S    
C85   H71   S    
C58   C61   A    
C74   H43   S    
C33   C89   S    
C82   H61   S    
C40   C59   A    
C7    O15   A    
C70   H26   S    
C80   H54   S    
C83   H64   S    
C90   H84   S    
C47   H12   S    
C19   H15   S    
C81   H58   S    
C77   H45   S    
C66   H20   S    
C86   H73   S    
C76   H40   S    
C5    O13   A    
C11   C20   A    
Cu4   O7    S    
C68   H29   S    
C69   H27   S    
Cu3   Cu4   S    
C50   C58   A    
C65   H23   S    
C74   C75   S    
Cu4   O13   S    
Cu1   O11   S    
C26   C49   A    
C1    O9    A    
C35   C91   S    
C87   H77   S    
C90   H85   S    
C54   C62   A    
C6    O6    A    
C52   C79   S    
C92   H90   S    
C51   C80   S    
C34   C61   A    
Cu4   O6    S    
C90   H86   S    
C15   C19   A    
C73   H32   S    
C75   H41   S    
C38   C57   A    
C4    C26   S    
C3    C25   S    
C16   C20   A    
C89   H83   S    
C89   H82   S    
C30   C53   A    
C79   H53   S    
C8    O16   A    
Cu3   O8    S    
C13   C68   S    
C84   H67   S    
C32   C55   A    
C50   C77   S    
C53   C82   S    
C74   H44   S    
Cu1   Cu2   S    
C82   H62   S    
C23   N4    A    
C20   H16   S    
C71   C72   S    
Cu4   N4    S    
C91   H89   S    
C35   C64   A    
C78   H50   S    
C51   C59   A    
C24   H3    S    
C37   C45   A    
C73   H31   S    
C81   H59   S    
C37   C85   S    
C27   C52   A    
Cu2   O9    S    
C39   C47   A    
C29   C46   A    
C9    C10   A    
C84   H68   S    
C71   H36   S    
C43   H8    S    
C40   C48   A    
C21   N2    A    
C42   H5    S    
C1    O1    A    
C68   H30   S    
C86   H74   S    
C23   H4    S    
Cu4   O16   S    
C14   N1    A    
C75   C76   S    
C2    O2    A    
C25   C42   A    
Cu2   N2    S    
C46   H9    S    
C5    O5    A    
C11   C12   A    
Cu1   N1    S    
Cu2   O3    S    
C49   C78   S    
C80   H56   S    
C7    O7    A    
C76   H38   S    
C12   C24   A    
C28   C43   A    
Cu3   N3    S    
C4    O12   A    
C13   C17   A    
C21   H2    S    
C31   C48   A    
C8    C30   S    
C70   H25   S    
C73   H33   S    
C33   C41   A    
C70   H24   S    
C34   C90   S    
C9    C21   A    
C87   H75   S    
C67   H18   S    
C72   H34   S    
C39   C60   A    
C12   C19   A    
C11   C23   A    
C18   H14   S    
C17   H13   S    
C36   C92   S    
C6    O14   A    
C54   C81   S    
C88   H78   S    
C24   N3    A    
C38   C46   A    
C36   C44   A    
C84   H66   S    
C39   C87   S    
C3    O11   A    
C9    C18   A    
C2    O10   A    
C80   H55   S    
C85   H69   S    
C29   C54   A    
Cu3   O5    S    
C2    C28   S    
C83   H65   S    
C5    C31   S    
C79   H51   S    
C78   H48   S    
C92   H91   S    
Cu3   O14   S    
C15   N4    A    
C4    O4    A    
