data_mof_unit_2292.cif
_audit_creation_date              2012-12-10T18:16:24-0500
_audit_creation_method            fapswitch 2.2
_symmetry_space_group_name_H-M    P1
_symmetry_Int_Tables_number       1
_space_group_crystal_system       triclinic
_cell_length_a                    12.588507
_cell_length_b                    13.129222
_cell_length_c                    27.730567
_cell_angle_alpha                 90.688887
_cell_angle_beta                  103.05679
_cell_angle_gamma                 82.205381
_cell_volume                      4422.66668808

loop_
_atom_site_label
_atom_site_type_symbol
_atom_type_description
_atom_site_fract_x
_atom_site_fract_y
_atom_site_fract_z
_atom_type_partial_charge
C1    C     C_R   0.438596 0.691248 0.492350 0.860865
C2    C     C_R   0.602582 0.519485 0.731683 0.448697
C3    C     C_R   0.508985 0.501633 0.747934 0.238211
C4    C     C_R   0.506367 0.500571 0.898877 -0.048649
C5    C     C_R   0.471290 0.591896 0.870240 -0.029229
C6    C     C_R   0.433560 0.681845 0.891987 -0.122180
C7    C     C_R   0.543873 0.409932 0.876558 -0.031272
C8    C     C_R   0.503914 0.500986 0.646918 -0.108504
C9    C     C_R   0.496727 0.498970 0.353280 -0.037159
C10   C     C_R   0.471736 0.592766 0.023324 0.046476
C11   C     C_R   0.526675 0.404479 0.027571 0.046202
C12   C     C_R   0.501156 0.500339 0.593902 0.902280
C13   C     C_R   0.497843 0.498233 0.050534 0.072663
C14   C     C_R   0.450022 0.684609 0.048726 -0.208381
C15   C     C_R   0.449451 0.683080 0.098630 -0.134447
C16   C     C_R   0.471047 0.590193 0.125184 -0.023754
C17   C     C_R   0.495334 0.497481 0.101358 -0.051930
C18   C     C_R   0.517432 0.404063 0.128515 -0.016758
C19   C     C_R   0.515602 0.405219 0.178784 0.498119
C20   C     C_R   0.470103 0.587847 0.175484 0.507337
C21   C     C_R   0.579858 0.534670 0.285869 -0.119669
C22   C     C_R   0.581051 0.536278 0.336040 -0.260756
C23   C     C_R   0.561212 0.308676 0.504908 0.870077
C24   C     C_R   0.411030 0.460430 0.319657 -0.211568
C25   C     C_R   0.410014 0.459028 0.269429 -0.101423
C26   C     C_R   0.494324 0.496265 0.252581 0.322200
C27   C     C_R   0.469086 0.592669 0.971971 0.045476
C28   C     C_R   0.503631 0.499820 0.949672 0.077349
C29   C     C_R   0.535288 0.406192 0.977524 0.044916
C30   C     C_R   0.432118 0.682398 0.941821 -0.204191
C31   C     C_R   0.579406 0.319355 0.904727 -0.122446
C32   C     C_R   0.545097 0.311788 0.055573 -0.210790
C33   C     C_R   0.540816 0.311847 0.105097 -0.136346
C34   C     C_R   0.498888 0.499744 0.406146 0.844863
C35   C     C_R   0.575564 0.317355 0.954273 -0.206334
C36   C     C_R   0.700088 0.064317 0.463641 -0.181653
C37   C     C_R   0.596747 0.200023 0.500313 -0.060445
C38   C     C_R   0.299806 0.838642 0.499491 -0.185179
C39   C     C_R   0.271374 0.943586 0.503990 -0.130257
C40   C     C_R   0.344858 0.010715 0.498948 -0.183224
C41   C     C_R   0.446580 0.973615 0.486777 0.085563
C42   C     C_R   0.466668 0.869502 0.474594 0.084502
C43   C     C_R   0.529086 0.036313 0.486283 0.078874
C44   C     C_R   0.620620 0.000133 0.465813 0.163716
C45   C     C_R   0.473633 0.590672 0.820052 0.557934
C46   C     C_R   0.630357 0.901209 0.447174 -0.241836
C47   C     C_R   0.554513 0.836394 0.451595 -0.188999
C48   C     C_R   0.523909 0.133650 0.506579 -0.242558
C49   C     C_R   0.687054 0.165032 0.480060 -0.190600
C50   C     C_R   0.399032 0.800902 0.486482 -0.112182
C51   C     C_R   0.087940 0.345739 0.431431 -0.253551
C52   C     C_R   0.800067 0.630851 0.558108 0.037865
C53   C     C_R   0.904423 0.660619 0.569321 -0.236437
C54   C     C_R   0.985293 0.611748 0.546822 -0.174394
C55   C     C_R   0.961978 0.532032 0.512884 0.013705
C56   C     C_R   0.545112 0.412250 0.826273 0.563267
C57   C     C_R   0.854251 0.504852 0.502741 0.184496
C58   C     C_R   0.040890 0.478178 0.488969 -0.082145
C59   C     C_R   0.010210 0.399301 0.454957 0.083582
C60   C     C_R   0.902604 0.375098 0.444668 0.400762
C61   C     C_R   0.827206 0.426460 0.469540 -0.342942
C62   C     C_R   0.150244 0.498713 0.497713 -0.014091
C63   C     C_R   0.194277 0.369925 0.441779 -0.019121
C64   C     C_R   0.413335 0.483774 0.713978 -0.169294
C65   C     C_R   0.410599 0.483425 0.663657 -0.204128
C66   C     C_R   0.599849 0.519124 0.681239 -0.252181
H1    H     H_    0.672631 0.532978 0.669051 0.193705
H2    H     H_    0.341188 0.470144 0.726738 0.158753
H3    H     H_    0.610442 0.249170 0.888567 0.194036
H4    H     H_    0.560930 0.237141 0.040135 0.144790
H5    H     H_    0.345332 0.430937 0.332135 0.160447
H6    H     H_    0.556131 0.238884 0.125005 0.190513
H7    H     H_    0.343721 0.429488 0.243540 0.142586
H8    H     H_    0.607136 0.245033 0.973542 0.145611
H9    H     H_    0.743926 0.216393 0.474733 0.180450
H10   H     H_    0.697759 0.873206 0.430022 0.152121
H11   H     H_    0.769570 0.037969 0.447546 0.150221
H12   H     H_    0.460714 0.161657 0.525935 0.152953
H13   H     H_    0.245924 0.786848 0.507747 0.152773
H14   H     H_    0.318782 0.091288 0.503490 0.137563
H15   H     H_    0.194217 0.972694 0.513523 0.150370
H16   H     H_    0.564561 0.760518 0.436198 0.172270
H17   H     H_    0.255198 0.329107 0.424022 0.137815
H18   H     H_    0.067173 0.285677 0.405259 0.191534
H19   H     H_    0.181251 0.556319 0.522943 0.120618
H20   H     H_    0.736664 0.668868 0.575256 0.144122
H21   H     H_    0.404497 0.752579 0.870494 0.193057
H22   H     H_    0.064604 0.638161 0.556701 0.135259
H23   H     H_    0.922550 0.721594 0.595261 0.162023
H24   H     H_    0.748027 0.402420 0.462759 0.216357
H25   H     H_    0.647858 0.566645 0.361243 0.160416
H26   H     H_    0.645183 0.563316 0.272739 0.140093
H27   H     H_    0.432295 0.755506 0.116379 0.191283
H28   H     H_    0.435513 0.759757 0.031475 0.144791
H29   H     H_    0.398980 0.754327 0.955220 0.145640
H30   H     H_    0.335558 0.469418 0.637986 0.174397
N1    N     N_R   0.510055 0.501687 0.799372 -0.342195
N2    N     N_R   0.492643 0.496310 0.201044 -0.356104
N3    N     N_R   0.222180 0.444690 0.474320 -0.100520
N4    N     N_R   0.776980 0.554780 0.525420 -0.118758
O1    O     O_R   0.366730 0.627160 0.487740 -0.614474
O2    O     O_2   0.446563 0.676129 0.198755 -0.555712
O3    O     O_2   0.580511 0.326016 0.804262 -0.535681
O4    O     O_2   0.537736 0.316395 0.205414 -0.576726
O5    O     O_R   0.544830 0.662520 0.504140 -0.618834
O6    O     O_R   0.410970 0.482310 0.563040 -0.622592
O7    O     O_R   0.589070 0.517670 0.579450 -0.615924
O8    O     O_R   0.455170 0.337480 0.495860 -0.615226
O9    O     O_R   0.633270 0.372840 0.512260 -0.629721
O10   O     O_R   0.410930 0.482330 0.420550 -0.613551
O11   O     O_R   0.589030 0.517690 0.436960 -0.651586
O12   O     O_2   0.439775 0.677397 0.792016 -0.540935
Zn1   Zn    Zn3+2 0.381080 0.476390 0.489050 0.946065
Zn2   Zn    Zn3+2 0.618920 0.523610 0.510950 0.936453
Cl1   Cl    Cl    0.723466 0.542614 0.773961 -0.567476
O13   O     O_3   0.875045 0.294262 0.413666 -0.623985
C67   C     C_3   0.788311 0.329959 0.373067 0.070679
H31   H     H_    0.803424 0.401929 0.356294 0.144383
H32   H     H_    0.708637 0.343349 0.384598 0.151965
C68   C     C_3   0.778880 0.248520 0.333473 -0.763486
H33   H     H_    0.761643 0.176139 0.348651 0.253857
H34   H     H_    0.710607 0.275781 0.301472 0.244981
H35   H     H_    0.856853 0.233216 0.320628 0.249545

loop_
_geom_bond_atom_site_label_1
_geom_bond_atom_site_label_2
_ccdc_geom_bond_type
C10   C27   A    
C58   C62   A    
C12   O6    A    
C21   C26   A    
C35   H8    S    
C8    C66   A    
O1    Zn1   S    
C41   C42   A    
C46   H10   S    
C45   O12   S    
C53   C54   A    
C61   H24   S    
C64   H2    S    
C28   C29   A    
C36   H11   S    
C67   H32   S    
C5    C6    A    
C9    C22   A    
C20   O2    S    
C38   H13   S    
C15   C16   A    
O13   C67   S    
C18   C19   A    
C2    Cl1   S    
C47   H16   S    
C48   H12   S    
C63   N3    A    
C33   H6    S    
C54   C55   A    
C65   H30   S    
C44   C46   A    
C16   C17   A    
C22   H25   S    
C40   H14   S    
C43   C48   A    
C68   H35   S    
C16   C20   A    
C66   H1    S    
C59   C60   A    
C21   C22   A    
C27   C30   A    
C34   O11   A    
C41   C43   A    
C56   N1    A    
C4    C7    A    
C4    C28   A    
C19   N2    A    
C68   H34   S    
C23   O9    A    
C62   H19   S    
C7    C31   A    
O6    Zn1   S    
O5    Zn2   S    
N4    Zn2   S    
C24   C25   A    
C39   H15   S    
C10   C14   A    
C67   C68   S    
C39   C40   A    
C32   H4    S    
C58   C59   A    
C23   C37   S    
C57   N4    A    
C5    C45   A    
C52   N4    A    
C6    H21   S    
C63   H17   S    
C60   C61   A    
O8    Zn1   S    
C43   C44   A    
O7    Zn2   S    
C15   H27   S    
C30   H29   S    
C37   C49   A    
C19   O4    S    
C3    N1    S    
C31   H3    S    
C8    C12   S    
C49   H9    S    
C17   C18   A    
C68   H33   S    
C51   C63   A    
C37   C48   A    
O10   Zn1   S    
O9    Zn2   S    
C26   N2    S    
C40   C41   A    
C6    C30   A    
C42   C50   A    
C11   C32   A    
C55   C57   A    
C53   H23   S    
C9    C34   S    
C34   O10   A    
C31   C35   A    
C36   C44   A    
C51   C59   A    
C1    O1    A    
C52   C53   A    
C1    C50   S    
C46   C47   A    
C56   O3    S    
C4    C5    A    
C2    C66   A    
C10   C13   A    
N3    Zn1   S    
C12   O7    A    
C9    C24   A    
C57   C61   A    
C38   C50   A    
C29   C35   A    
C7    C56   A    
C13   C17   A    
C64   C65   A    
C52   H20   S    
C2    C3    A    
C25   C26   A    
C45   N1    A    
C67   H31   S    
C32   C33   A    
C54   H22   S    
C11   C13   A    
C38   C39   A    
C23   O8    A    
O11   Zn2   S    
C25   H7    S    
C42   C47   A    
C3    C64   A    
C18   C33   A    
C60   O13   S    
C62   N3    A    
C8    C65   A    
C20   N2    A    
C11   C29   A    
C55   C58   A    
C27   C28   A    
C14   C15   A    
C51   H18   S    
C14   H28   S    
C36   C49   A    
C24   H5    S    
C1    O5    A    
C21   H26   S    
