data_mof_unit_224.cif
_audit_creation_date              2012-12-11T15:52:26-0500
_audit_creation_method            fapswitch 2.2
_symmetry_space_group_name_H-M    P1
_symmetry_Int_Tables_number       1
_space_group_crystal_system       triclinic
_cell_length_a                    11.452802
_cell_length_b                    11.468863
_cell_length_c                    18.792799
_cell_angle_alpha                 89.488695
_cell_angle_beta                  90.509928
_cell_angle_gamma                 119.078137
_cell_volume                      2157.20195199

loop_
_atom_site_label
_atom_site_type_symbol
_atom_type_description
_atom_site_fract_x
_atom_site_fract_y
_atom_site_fract_z
_atom_type_partial_charge
Br1   Br    Br    0.818291 0.103222 0.058081 -0.411814
Br2   Br    Br    0.184154 0.670440 0.413054 -0.489054
Br3   Br    Br    0.857310 0.991231 0.452127 -0.222432
Br4   Br    Br    0.174816 0.181391 0.383359 -0.293790
Br5   Br    Br    0.897596 0.717592 0.057056 -0.417225
Br6   Br    Br    0.286391 0.183507 0.057712 -0.415965
Br7   Br    Br    0.849980 0.640469 0.888079 -0.379364
Br8   Br    Br    0.783805 0.151571 0.889043 -0.360239
Br9   Br    Br    0.368506 0.214192 0.889488 -0.363810
Br10  Br    Br    0.669616 0.193711 0.567786 -0.501107
Br11  Br    Br    0.007902 0.842259 0.569900 -0.227531
Br12  Br    Br    0.179390 0.185185 0.625498 -0.282781
C1    C     C_R   0.521807 0.449296 0.145363 0.556072
C2    C     C_3   0.040984 0.695033 0.455102 0.050779
C3    C     C_3   0.726654 0.048722 0.467106 0.113988
C4    C     C_3   0.295233 0.257282 0.464728 0.154582
C5    C     C_R   0.520297 0.452991 0.353511 0.544906
C6    C     C_R   0.542707 0.058221 0.350977 0.548635
C7    C     C_R   0.877880 0.453605 0.360801 0.558465
C8    C     C_R   0.449420 0.523011 0.644888 0.571281
C9    C     C_R   0.059414 0.542479 0.648836 0.560153
C10   C     C_R   0.453902 0.877573 0.639146 0.576156
C11   C     C_R   0.499853 0.998879 0.921099 0.019102
C12   C     C_R   0.550209 0.072059 0.145287 0.564221
C13   C     C_R   0.999531 0.501103 0.920882 0.020601
C14   C     C_R   0.500151 0.498238 0.920899 0.018738
C15   C     C_R   0.966433 0.498774 0.069949 -0.018829
C16   C     C_R   0.531839 0.032995 0.070103 -0.017768
C17   C     C_R   0.500975 0.467191 0.069934 -0.019059
C18   C     C_R   0.390748 0.963554 0.966254 0.049503
C19   C     C_R   0.033969 0.425062 0.966433 0.049641
C20   C     C_R   0.573698 0.606983 0.965890 0.052410
C21   C     C_R   0.013237 0.420102 0.039002 0.037288
C22   C     C_R   0.406885 0.984946 0.038734 0.040087
C23   C     C_R   0.927654 0.477992 0.145237 0.568775
C24   C     C_R   0.578083 0.591066 0.038558 0.038666
C25   C     C_R   0.645005 0.071952 0.024513 0.130333
C26   C     C_R   0.928018 0.575076 0.023972 0.131716
C27   C     C_R   0.427707 0.354186 0.024526 0.129193
C28   C     C_R   0.931173 0.563326 0.949716 0.156657
C29   C     C_R   0.628925 0.068467 0.950233 0.156885
C30   C     C_R   0.440824 0.369401 0.950344 0.154103
C31   C     C_3   0.263699 0.835219 0.974794 -0.235221
C32   C     C_3   0.162605 0.423029 0.975252 -0.232318
C33   C     C_3   0.572281 0.735781 0.973271 -0.231627
C34   C     C_R   0.456056 0.520717 0.851819 0.563113
C35   C     C_3   0.140721 0.418895 0.054838 -0.252617
C36   C     C_3   0.281997 0.857638 0.054421 -0.252500
C37   C     C_3   0.575729 0.717817 0.053052 -0.256868
C38   C     C_R   0.455391 0.900229 0.561223 -0.030636
C39   C     C_R   0.978866 0.494463 0.583931 0.028585
C40   C     C_R   0.469735 0.510377 0.570234 -0.017018
C41   C     C_R   0.901265 0.453554 0.438535 -0.021386
C42   C     C_R   0.494717 0.972226 0.414564 0.018097
C43   C     C_R   0.493794 0.490810 0.422539 -0.000807
C44   C     C_R   0.566480 0.919192 0.525912 -0.010797
C45   C     C_R   0.064895 0.544114 0.851993 0.569229
C46   C     C_R   0.956934 0.585735 0.545319 0.059939
C47   C     C_R   0.360490 0.426702 0.528518 -0.055940
C48   C     C_R   0.923106 0.566046 0.473707 0.017992
C49   C     C_R   0.585190 0.944893 0.452967 0.053270
C50   C     C_R   0.382238 0.403817 0.460264 -0.022649
C51   C     C_R   0.382732 0.961741 0.450301 -0.002436
C52   C     C_R   0.946243 0.372863 0.473140 -0.005986
C53   C     C_R   0.589110 0.602460 0.459166 -0.001622
C54   C     C_R   0.967400 0.382364 0.548317 -0.000745
C55   C     C_R   0.380030 0.949815 0.526478 -0.011083
C56   C     C_R   0.478707 0.934754 0.852046 0.581745
C57   C     C_R   0.586268 0.602494 0.534552 -0.013798
C58   C     C_2   0.268897 0.955974 0.406882 0.629702
C59   C     C_2   0.022999 0.331739 0.428179 0.633393
C60   C     C_2   0.691751 0.708021 0.417352 0.651756
C61   C     C_2   0.954075 0.266938 0.590801 0.602706
C62   C     C_2   0.347406 0.036287 0.568260 0.632647
C63   C     C_2   0.703043 0.685596 0.577735 0.653353
C64   C     C_3   0.693276 0.039396 0.543194 0.044904
C65   C     C_3   0.064508 0.723653 0.532352 0.101032
C66   C     C_3   0.244528 0.288930 0.534014 0.147941
Cr1   Cr    Cr6+3 0.769160 0.541570 0.250690 1.102754
Cr2   Cr    Cr6+3 0.458430 0.227590 0.250690 1.121071
Cr3   Cr    Cr6+3 0.772410 0.230840 0.250690 1.133702
Cr4   Cr    Cr6+3 0.541570 0.769160 0.749310 1.108830
Cr5   Cr    Cr6+3 0.227590 0.458430 0.749310 1.126350
Cr6   Cr    Cr6+3 0.230840 0.772410 0.749310 1.129385
H1    H     H_    0.271658 0.747255 0.957039 0.093001
H2    H     H_    0.215579 0.510561 0.082573 0.118210
H3    H     H_    0.301508 0.783150 0.082688 0.119223
H4    H     H_    0.482730 0.700999 0.080055 0.115630
H5    H     H_    0.750675 0.013912 0.581460 0.266882
H6    H     H_    0.163887 0.741749 0.550449 0.124429
H7    H     H_    0.162680 0.305395 0.519849 0.200658
H8    H     H_    0.012306 0.756579 0.422772 0.270118
H9    H     H_    0.752123 0.146947 0.444755 0.160537
H10   H     H_    0.364923 0.216727 0.470363 0.144852
H11   H     H_    0.167250 0.910868 0.313102 0.359353
H12   H     H_    0.250449 0.516830 0.957043 0.094661
H13   H     H_    0.186571 0.418247 0.366187 0.382616
H14   H     H_    0.731958 0.824819 0.329651 0.364479
H15   H     H_    0.900575 0.162132 0.683317 0.370744
H16   H     H_    0.403909 0.181674 0.644225 0.379288
H17   H     H_    0.807215 0.684921 0.665316 0.375177
H18   H     H_    0.477541 0.729865 0.954174 0.093459
H19   H     H_    0.122736 0.323828 0.080209 0.231203
H20   H     H_    0.204397 0.875527 0.079106 0.229183
H21   H     H_    0.669758 0.793902 0.078425 0.227450
H22   H     H_    0.176290 0.841759 0.953383 0.228525
H23   H     H_    0.156131 0.329680 0.954411 0.230113
H24   H     H_    0.665060 0.821583 0.952425 0.228317
O1    O     O_R   0.911480 0.572650 0.170990 -0.461957
O2    O     O_R   0.528970 0.640340 0.824320 -0.489100
O3    O     O_R   0.111370 0.471030 0.824320 -0.477899
O4    O     O_R   0.359660 0.888630 0.824320 -0.479843
O5    O     O_R   0.909980 0.572450 0.331530 -0.469898
O6    O     O_R   0.427550 0.337530 0.331530 -0.487837
O7    O     O_R   0.662470 0.090020 0.331530 -0.505424
O8    O     O_R   0.572450 0.909980 0.668470 -0.462627
O9    O     O_R   0.337530 0.427550 0.668470 -0.474584
O10   O     O_R   0.090020 0.662470 0.668470 -0.509644
O11   O     O_R   0.638950 0.528780 0.324500 -0.496790
O12   O     O_R   0.427350 0.338830 0.170990 -0.460854
O13   O     O_R   0.471220 0.110170 0.324500 -0.470934
O14   O     O_R   0.889830 0.361050 0.324500 -0.455924
O15   O     O_R   0.528780 0.638950 0.675500 -0.497648
O16   O     O_R   0.110170 0.471220 0.675500 -0.467822
O17   O     O_R   0.361050 0.889830 0.675500 -0.440884
O18   O     O_3   0.666667 0.333333 0.250560 -0.359803
O19   O     O_3   0.333333 0.666667 0.749440 -0.376482
O20   O     O_2   0.179250 0.964432 0.435178 -0.427508
O21   O     O_R   0.251552 0.917668 0.335074 -0.619020
O22   O     O_2   0.966002 0.235533 0.389788 -0.409631
O23   O     O_R   0.661170 0.088520 0.170990 -0.467594
O24   O     O_R   0.157104 0.421025 0.416571 -0.669893
O25   O     O_2   0.805971 0.730002 0.423363 -0.486225
O26   O     O_R   0.654571 0.765894 0.361832 -0.652315
O27   O     O_2   0.961168 0.177690 0.561273 -0.484825
O28   O     O_R   0.911950 0.248491 0.661892 -0.591182
O29   O     O_2   0.254805 0.047466 0.549330 -0.426249
O30   O     O_R   0.423088 0.109826 0.626942 -0.585824
O31   O     O_2   0.743322 0.804949 0.580678 -0.460607
O32   O     O_R   0.747784 0.622849 0.626661 -0.645316
O33   O     O_R   0.572650 0.911480 0.829010 -0.472510
O34   O     O_R   0.338830 0.427350 0.829010 -0.467602
O35   O     O_R   0.088520 0.661170 0.829010 -0.477928
O36   O     O_R   0.640340 0.528970 0.175680 -0.475364
O37   O     O_R   0.471030 0.111370 0.175680 -0.461919
O38   O     O_R   0.888630 0.359660 0.175680 -0.468254

loop_
_geom_bond_atom_site_label_1
_geom_bond_atom_site_label_2
_ccdc_geom_bond_type
C13   C19   A    
Cr2   O12   S    
C7    O14   A    
C14   C20   A    
C44   C64   S    
Cr3   O18   S    
C20   C33   S    
C34   O34   A    
C15   C21   A    
C62   O30   S    
C17   C24   A    
Br9   C30   S    
Cr6   O4    S    
C13   C45   S    
Cr4   O2    S    
C1    C17   S    
C63   O32   S    
C13   C28   A    
C41   C52   A    
C1    O36   A    
C42   C51   A    
C7    O5    A    
C15   C26   A    
C46   C48   A    
C36   H20   S    
C43   C50   A    
C56   O4    A    
C52   C59   S    
C8    O15   A    
C40   C57   A    
Br11  C65   S    
C46   C65   S    
C59   O24   S    
C5    O11   A    
Br10  C64   S    
C41   C48   A    
C61   O27   D    
Br12  C66   S    
Br7   C28   S    
C19   C21   A    
Cr5   O16   S    
C38   C55   A    
C5    C43   S    
C23   O1    A    
C32   C35   S    
Br1   C25   S    
C64   H5    S    
C10   C38   S    
C7    C41   S    
Cr6   O19   S    
C10   O8    A    
C3    C64   S    
C16   C22   A    
Br5   C26   S    
C37   H4    S    
C17   C27   A    
C4    C50   S    
Cr4   O33   S    
C47   C66   S    
C8    O9    A    
C43   C53   A    
H17   O32   S    
C5    O6    A    
C27   C30   A    
Cr2   O13   S    
C62   O29   D    
C51   C55   A    
C65   H6    S    
C35   H19   S    
C19   C32   S    
Cr1   O1    S    
C31   H1    S    
C35   H2    S    
Br8   C29   S    
C39   C46   A    
C18   C22   A    
C10   O17   A    
C37   H21   S    
Cr6   O35   S    
C15   C23   S    
C54   C61   S    
C58   O21   S    
C38   C44   A    
Cr1   O11   S    
C23   O38   A    
C52   C54   A    
C11   C56   S    
Br4   C4    S    
C11   C18   A    
C9    O10   A    
C32   H12   S    
C40   C47   A    
C60   O26   S    
Cr1   O36   S    
C51   C58   S    
C33   C37   S    
Cr3   O7    S    
C3    C49   S    
C36   H3    S    
C56   O33   A    
C55   C62   S    
C2    H8    S    
H16   O30   S    
Cr2   O37   S    
Cr1   O18   S    
Cr2   O6    S    
Cr1   O5    S    
C21   C35   S    
Cr5   O3    S    
C18   C31   S    
C22   C36   S    
C39   C54   A    
C20   C24   A    
Cr4   O15   S    
C9    C39   S    
C1    O12   A    
Br3   C3    S    
C14   C30   A    
H11   O21   S    
C31   C36   S    
C32   H23   S    
C58   O20   D    
Cr6   O17   S    
C47   C50   A    
C44   C49   A    
C12   C16   S    
H13   O24   S    
Cr5   O19   S    
C6    O7    A    
C3    H9    S    
Cr5   O34   S    
C33   H24   S    
C42   C49   A    
C66   H7    S    
C53   C60   S    
C2    C48   S    
H14   O26   S    
C4    H10   S    
C11   C29   A    
Cr3   O14   S    
C12   O37   A    
Cr5   O9    S    
C9    O16   A    
C34   O2    A    
Cr4   O8    S    
C8    C40   S    
C63   O31   D    
C59   O22   D    
C26   C28   A    
C12   O23   A    
C60   O25   D    
C45   O3    A    
Cr2   O18   S    
C16   C25   A    
C53   C57   A    
H15   O28   S    
C57   C63   S    
C4    C66   S    
C25   C29   A    
Br2   C2    S    
Cr4   O19   S    
Cr3   O23   S    
C33   H18   S    
C6    C42   S    
C6    O13   A    
Cr6   O10   S    
Cr3   O38   S    
C61   O28   S    
C2    C65   S    
Br6   C27   S    
C14   C34   S    
C31   H22   S    
C24   C37   S    
C45   O35   A    
