data_mof_unit_759.cif
_audit_creation_date              2012-12-11T15:44:47-0500
_audit_creation_method            fapswitch 2.2
_symmetry_space_group_name_H-M    P1
_symmetry_Int_Tables_number       1
_space_group_crystal_system       triclinic
_cell_length_a                    19.087175
_cell_length_b                    11.001987
_cell_length_c                    18.75233
_cell_angle_alpha                 89.900632
_cell_angle_beta                  89.987095
_cell_angle_gamma                 90.017681
_cell_volume                      3937.92404288

loop_
_atom_site_label
_atom_site_type_symbol
_atom_type_description
_atom_site_fract_x
_atom_site_fract_y
_atom_site_fract_z
_atom_type_partial_charge
C1    C     C_R   0.759870 0.535891 0.647300 0.541612
C2    C     C_R   0.239982 0.537323 0.352025 0.535995
C3    C     C_R   0.263573 0.022712 0.642581 0.539090
C4    C     C_R   0.740177 0.037484 0.351900 0.543168
C5    C     C_R   0.834287 0.119641 0.518104 -0.163783
C6    C     C_R   0.223556 0.972282 0.450002 -0.152126
C7    C     C_R   0.321872 0.691766 0.510665 -0.152280
C8    C     C_R   0.669743 0.588968 0.476275 -0.161498
C9    C     C_R   0.823295 0.102210 0.445316 -0.164024
C10   C     C_R   0.227675 0.954379 0.523316 -0.149760
C11   C     C_R   0.309182 0.661210 0.438923 -0.151773
C12   C     C_R   0.678759 0.569436 0.548358 -0.168807
C13   C     C_3   0.650325 0.234758 0.456911 -0.274700
C14   C     C_3   0.291313 0.268639 0.552909 -0.274721
C15   C     C_3   0.133710 0.541481 0.487305 -0.260617
C16   C     C_3   0.806848 0.799186 0.561744 -0.266531
C17   C     C_3   0.661931 0.255000 0.535585 -0.263881
C18   C     C_3   0.284188 0.289385 0.473589 -0.238733
C19   C     C_3   0.148331 0.570302 0.565171 -0.274031
C20   C     C_3   0.794678 0.826807 0.484256 -0.252298
C21   C     C_R   0.777692 0.144011 0.563396 0.011732
C22   C     C_R   0.251578 0.078469 0.420617 0.014452
C23   C     C_R   0.278177 0.646425 0.564920 0.020948
C24   C     C_R   0.720654 0.650022 0.437141 0.010286
C25   C     C_R   0.988832 0.327699 0.420308 -0.045631
C26   C     C_R   0.994089 0.347188 0.570233 -0.042297
C27   C     C_R   0.488121 0.833082 0.420005 -0.048945
C28   C     C_R   0.497203 0.843055 0.570588 -0.042216
C29   C     C_R   0.011085 0.105903 0.432613 -0.077627
C30   C     C_R   0.036833 0.136043 0.577519 -0.092040
C31   C     C_R   0.484864 0.609966 0.426693 -0.091577
C32   C     C_R   0.512381 0.620593 0.572423 -0.080456
C33   C     C_R   0.033167 0.007520 0.473762 -0.130331
C34   C     C_R   0.047754 0.023303 0.545706 -0.122229
C35   C     C_R   0.490334 0.503309 0.466407 -0.133011
C36   C     C_R   0.505967 0.509112 0.538756 -0.133507
C37   C     C_R   0.011209 0.235648 0.537434 -0.016993
C38   C     C_R   0.003609 0.223209 0.462711 0.004534
C39   C     C_R   0.501361 0.729732 0.534872 -0.000210
C40   C     C_R   0.492665 0.724332 0.459743 0.000739
C41   C     C_R   0.978549 0.451050 0.526390 0.018148
C42   C     C_R   0.965229 0.434228 0.453326 0.003166
C43   C     C_R   0.490913 0.951070 0.528531 0.020715
C44   C     C_R   0.473815 0.941429 0.455862 0.011988
C45   C     C_R   0.790576 0.168862 0.638430 0.560109
C46   C     C_R   0.227584 0.123580 0.352783 0.542117
C47   C     C_R   0.291987 0.672443 0.638987 0.555123
C48   C     C_R   0.708871 0.670576 0.361302 0.566313
C49   C     C_R   0.980835 0.573368 0.551188 -0.073118
C50   C     C_R   0.938032 0.531165 0.412269 -0.065572
C51   C     C_R   0.498219 0.069645 0.556637 -0.069865
C52   C     C_R   0.448257 0.043660 0.418624 -0.069169
C53   C     C_R   0.963260 0.670575 0.506906 -0.145782
C54   C     C_R   0.939426 0.649089 0.438250 -0.108849
C55   C     C_R   0.474550 0.170272 0.518736 -0.140342
C56   C     C_R   0.449449 0.157475 0.449818 -0.120742
C57   C     C_R   0.729302 0.002574 0.063206 0.004270
C58   C     C_R   0.246629 0.075732 0.923059 0.013500
C59   C     C_R   0.245489 0.572786 0.074435 0.009954
C60   C     C_R   0.751313 0.564144 0.927082 0.002607
C61   C     C_R   0.790053 0.970371 0.027230 0.007503
C62   C     C_R   0.212780 0.994268 0.968235 -0.000208
C63   C     C_R   0.311142 0.584193 0.043303 0.004485
C64   C     C_R   0.712119 0.486474 0.970704 0.002008
C65   C     C_R   0.799343 0.996487 0.956434 0.027747
C66   C     C_R   0.210630 0.010347 0.039981 -0.000488
C67   C     C_R   0.317281 0.590108 0.970716 0.030844
C68   C     C_R   0.711699 0.497717 0.043501 -0.000421
C69   C     C_R   0.682257 0.073327 0.948633 -0.158958
C70   C     C_R   0.264305 0.205713 0.025373 -0.135744
C71   C     C_R   0.192161 0.586308 0.955848 -0.177151
C72   C     C_R   0.786621 0.672326 0.033166 -0.121336
C73   C     C_R   0.672409 0.044790 0.021719 -0.150512
C74   C     C_R   0.269313 0.186834 0.951235 -0.179069
C75   C     C_R   0.185462 0.580094 0.030290 -0.155545
C76   C     C_R   0.787857 0.660052 0.958814 -0.173275
C77   C     C_3   0.864913 0.993475 0.045110 -0.280366
C78   C     C_3   0.221345 0.861241 0.976039 -0.234549
C79   C     C_3   0.377008 0.511717 0.050998 -0.280113
C80   C     C_3   0.713298 0.351494 0.975438 -0.238849
C81   C     C_3   0.875595 0.020869 0.966909 -0.272439
C82   C     C_3   0.219715 0.879316 0.056165 -0.274893
C83   C     C_3   0.382180 0.514677 0.970396 -0.268572
C84   C     C_3   0.713573 0.364205 0.055796 -0.269772
C85   C     C_R   0.748959 0.060537 0.917595 0.003037
C86   C     C_R   0.239945 0.111366 0.070695 0.060828
C87   C     C_R   0.259053 0.588070 0.925404 0.005743
C88   C     C_R   0.749203 0.589382 0.076381 0.027525
C89   C     C_R   0.970067 0.347869 0.645543 0.525556
C90   C     C_R   0.026350 0.343882 0.351545 0.526199
C91   C     C_R   0.471028 0.846960 0.645776 0.522891
C92   C     C_R   0.525932 0.844753 0.351241 0.524621
C93   C     C_R   0.020019 0.337304 0.068308 0.018424
C94   C     C_R   0.007627 0.343882 0.919876 0.018792
C95   C     C_R   0.500874 0.829302 0.075881 0.013343
C96   C     C_R   0.486137 0.845126 0.928025 0.060820
C97   C     C_R   0.016825 0.446469 0.031855 -0.030963
C98   C     C_R   0.011526 0.451267 0.959617 0.002164
C99   C     C_R   0.460041 0.919957 0.045961 -0.002747
C100  C     C_R   0.452097 0.927205 0.973607 0.015555
C101  C     C_R   0.026079 0.233651 0.952781 0.057331
C102  C     C_R   0.029733 0.228769 0.028292 0.066136
C103  C     C_R   0.521279 0.745529 0.956580 0.047335
C104  C     C_R   0.525565 0.733726 0.031158 0.051967
C105  C     C_3   0.971913 0.555354 0.044195 -0.000518
C106  C     C_3   0.965068 0.562033 0.963591 0.006507
C107  C     C_3   0.458546 0.054515 0.056138 -0.016303
C108  C     C_3   0.448488 0.064097 0.975735 0.008393
C109  C     C_R   0.761093 0.528960 0.853330 0.546255
C110  C     C_R   0.238359 0.529257 0.146760 0.541749
C111  C     C_R   0.259631 0.034003 0.851158 0.544045
C112  C     C_R   0.725655 0.981861 0.140519 0.561277
C113  C     C_R   0.771435 0.122083 0.851751 0.537255
C114  C     C_R   0.225725 0.132620 0.145018 0.555284
C115  C     C_R   0.272052 0.623317 0.852080 0.541746
C116  C     C_R   0.728595 0.625221 0.147712 0.549164
C117  C     C_R   0.971530 0.347397 0.852240 0.565730
C118  C     C_R   0.034053 0.346269 0.144021 0.557824
C119  C     C_R   0.468286 0.848113 0.854102 0.592647
C120  C     C_R   0.530644 0.845529 0.146177 0.551514
C121  C     C_R   0.755008 0.103564 0.417255 0.006315
C122  C     C_R   0.260119 0.042323 0.567103 0.026801
C123  C     C_R   0.250397 0.590527 0.421623 0.014179
C124  C     C_R   0.741678 0.600664 0.582244 0.010379
C125  C     C_R   0.698949 0.129056 0.462443 0.022317
C126  C     C_R   0.296926 0.136691 0.536131 0.027079
C127  C     C_R   0.210361 0.543372 0.476734 -0.007479
C128  C     C_R   0.790956 0.669351 0.545304 0.036216
C129  C     C_R   0.710128 0.149035 0.534657 0.020237
C130  C     C_R   0.291479 0.155637 0.463786 0.015159
C131  C     C_R   0.224334 0.567865 0.546850 0.029970
C132  C     C_R   0.779539 0.695832 0.472992 0.026432
Cr1   Cr    Cr6+3 0.885860 0.491680 0.749630 0.994907
Cr2   Cr    Cr6+3 0.114140 0.491680 0.250370 1.000857
Cr3   Cr    Cr6+3 0.385860 0.991680 0.749630 0.998680
Cr4   Cr    Cr6+3 0.614140 0.991680 0.250370 0.996052
Cr5   Cr    Cr6+3 0.730490 0.332970 0.748720 1.001313
Cr6   Cr    Cr6+3 0.269510 0.332970 0.251280 0.991029
Cr7   Cr    Cr6+3 0.230490 0.832970 0.748720 1.000533
Cr8   Cr    Cr6+3 0.769510 0.832970 0.251280 0.996305
Cr9   Cr    Cr6+3 0.887570 0.179310 0.750150 1.018093
Cr10  Cr    Cr6+3 0.112430 0.179310 0.249850 1.024375
Cr11  Cr    Cr6+3 0.387570 0.679310 0.750150 1.014329
Cr12  Cr    Cr6+3 0.612430 0.679310 0.249850 1.011678
H1    H     H_    0.886749 0.113110 0.539262 0.152256
H2    H     H_    0.193497 0.909404 0.417793 0.130590
H3    H     H_    0.363729 0.753420 0.523818 0.123282
H4    H     H_    0.623553 0.553900 0.450696 0.163027
H5    H     H_    0.968574 0.762859 0.525922 0.095873
H6    H     H_    0.924622 0.723997 0.404010 0.111500
H7    H     H_    0.474638 0.257655 0.543497 0.098547
H8    H     H_    0.431086 0.235256 0.420071 0.103451
H9    H     H_    0.640396 0.114650 0.918469 0.158194
H10   H     H_    0.279746 0.292300 0.047183 0.135408
H11   H     H_    0.145888 0.592381 0.922658 0.154042
H12   H     H_    0.815746 0.745127 0.057354 0.155893
H13   H     H_    0.893029 0.910466 0.063036 0.135514
H14   H     H_    0.272981 0.830350 0.955656 0.150247
H15   H     H_    0.369680 0.418591 0.072295 0.147689
H16   H     H_    0.762679 0.312207 0.954198 0.143698
H17   H     H_    0.871924 0.074687 0.079670 0.159513
H18   H     H_    0.174124 0.815374 0.954648 0.166804
H19   H     H_    0.418620 0.564839 0.078070 0.155319
H20   H     H_    0.663736 0.313382 0.954224 0.145023
H21   H     H_    0.908141 0.951755 0.939295 0.128916
H22   H     H_    0.270546 0.859143 0.082668 0.148310
H23   H     H_    0.374265 0.424325 0.945213 0.130313
H24   H     H_    0.763159 0.333121 0.081069 0.135946
H25   H     H_    0.000221 0.632826 0.069160 0.171495
H26   H     H_    0.911299 0.547328 0.942770 0.178582
H27   H     H_    0.507885 0.095354 0.076369 0.159058
H28   H     H_    0.397194 0.100785 0.958561 0.169408
H29   H     H_    0.112983 0.448507 0.478645 0.150261
H30   H     H_    0.861766 0.813299 0.579133 0.142707
H31   H     H_    0.596336 0.205916 0.443348 0.161068
H32   H     H_    0.340750 0.305825 0.575354 0.152961
H33   H     H_    0.671411 0.309363 0.422996 0.147871
H34   H     H_    0.243087 0.291736 0.583334 0.138004
H35   H     H_    0.106665 0.615820 0.458008 0.160856
H36   H     H_    0.767282 0.841864 0.597397 0.150437
H37   H     H_    0.614839 0.239069 0.568999 0.131393
H38   H     H_    0.328388 0.341885 0.450456 0.159049
H39   H     H_    0.133537 0.495193 0.601947 0.139535
H40   H     H_    0.842677 0.856683 0.455896 0.149231
H41   H     H_    0.997472 0.087769 0.377710 0.130239
H42   H     H_    0.049757 0.145061 0.633428 0.135264
H43   H     H_    0.472270 0.602372 0.370619 0.128772
H44   H     H_    0.528938 0.619952 0.627551 0.134463
O1    O     O_R   0.957020 0.451640 0.669920 -0.528859
O2    O     O_R   0.042980 0.451640 0.330080 -0.517888
O3    O     O_R   0.457020 0.951640 0.669920 -0.523857
O4    O     O_R   0.542980 0.951640 0.330080 -0.513777
O5    O     O_R   0.736470 0.210100 0.823360 -0.506821
O6    O     O_R   0.263530 0.210100 0.176640 -0.515233
O7    O     O_R   0.236470 0.710100 0.823360 -0.501921
O8    O     O_R   0.763530 0.710100 0.176640 -0.518266
O9    O     O_R   0.831960 0.093290 0.830130 -0.510439
O10   O     O_R   0.168040 0.093290 0.169870 -0.505708
O11   O     O_R   0.331960 0.593290 0.830130 -0.514652
O12   O     O_R   0.668040 0.593290 0.169870 -0.491688
O13   O     O_R   0.945600 0.250580 0.824860 -0.469369
O14   O     O_R   0.054400 0.250580 0.175140 -0.461748
O15   O     O_R   0.445600 0.750580 0.824860 -0.479853
O16   O     O_R   0.554400 0.750580 0.175140 -0.462989
O17   O     O_3   0.834640 0.334650 0.749500 -0.268393
O18   O     O_3   0.165360 0.334650 0.250500 -0.250588
O19   O     O_3   0.334640 0.834650 0.749500 -0.276004
O20   O     O_3   0.665360 0.834650 0.250500 -0.285691
O21   O     O_R   0.821450 0.543440 0.674610 -0.490314
O22   O     O_R   0.178550 0.543440 0.325390 -0.497206
O23   O     O_R   0.321450 0.043440 0.674610 -0.495188
O24   O     O_R   0.678550 0.043440 0.325390 -0.487476
O25   O     O_R   0.715320 0.458650 0.668100 -0.544686
O26   O     O_R   0.284680 0.458650 0.331900 -0.526840
O27   O     O_R   0.215320 0.958650 0.668100 -0.538791
O28   O     O_R   0.784680 0.958650 0.331900 -0.537285
O29   O     O_R   0.737170 0.209590 0.674530 -0.499208
O30   O     O_R   0.262830 0.209590 0.325470 -0.507266
O31   O     O_R   0.237170 0.709590 0.674530 -0.511814
O32   O     O_R   0.762830 0.709590 0.325470 -0.500253
O33   O     O_R   0.832710 0.092740 0.669580 -0.520470
O34   O     O_R   0.167290 0.092740 0.330420 -0.517577
O35   O     O_R   0.332710 0.592740 0.669580 -0.507224
O36   O     O_R   0.667290 0.592740 0.330420 -0.524321
O37   O     O_R   0.946290 0.250060 0.676040 -0.515281
O38   O     O_R   0.053710 0.250060 0.323960 -0.507379
O39   O     O_R   0.446290 0.750060 0.676040 -0.518435
O40   O     O_R   0.553710 0.750060 0.323960 -0.522362
O41   O     O_R   0.956270 0.452200 0.830470 -0.543602
O42   O     O_R   0.043730 0.452200 0.169530 -0.542248
O43   O     O_R   0.456270 0.952200 0.830470 -0.530970
O44   O     O_R   0.543730 0.952200 0.169530 -0.554075
O45   O     O_R   0.820760 0.543950 0.823440 -0.513863
O46   O     O_R   0.179240 0.543950 0.176560 -0.513054
O47   O     O_R   0.320760 0.043950 0.823440 -0.509913
O48   O     O_R   0.679240 0.043950 0.176560 -0.506959
O49   O     O_R   0.714570 0.459210 0.828640 -0.510596
O50   O     O_R   0.285430 0.459210 0.171360 -0.528474
O51   O     O_R   0.214570 0.959210 0.828640 -0.510496
O52   O     O_R   0.785430 0.959210 0.171360 -0.519249
H45   H     H_    0.622445 0.062797 0.046397 0.142425
H46   H     H_    0.292417 0.255487 0.917170 0.115213
H47   H     H_    0.133599 0.575251 0.053042 0.153479
H48   H     H_    0.819297 0.721512 0.926934 0.126980
H49   H     H_    0.889827 0.117369 0.956752 0.162131
H50   H     H_    0.172581 0.839394 0.081976 0.146231
H51   H     H_    0.427590 0.566250 0.950318 0.162638
H52   H     H_    0.664747 0.330128 0.081242 0.149219
N1    N     N_3   0.041087 0.129393 0.909553 -0.610131
H53   H     H_    0.011823 0.055396 0.927229 0.222375
H54   H     H_    0.093933 0.107988 0.916111 0.239330
N2    N     N_3   0.040026 0.114855 0.063855 -0.586891
H55   H     H_    0.084705 0.074422 0.043185 0.242472
H56   H     H_    0.998152 0.057913 0.051870 0.213231
N3    N     N_3   0.557681 0.663802 0.909631 -0.621960
H57   H     H_    0.542921 0.574232 0.920248 0.221983
H58   H     H_    0.611411 0.672332 0.918892 0.237292
N4    N     N_3   0.562669 0.632967 0.060522 -0.577884
H59   H     H_    0.613556 0.641687 0.041959 0.244395
H60   H     H_    0.541135 0.551929 0.041550 0.211863
N5    N     N_3   0.905711 0.525875 0.079665 -0.656661
H61   H     H_    0.885147 0.444290 0.059991 0.224383
H62   H     H_    0.915239 0.513980 0.134082 0.248468
N6    N     N_3   0.999654 0.669646 0.934496 -0.661124
H63   H     H_    0.999612 0.662552 0.878939 0.252841
H64   H     H_    0.968447 0.744764 0.946920 0.215609
N7    N     N_3   0.396992 0.092452 0.096100 -0.642858
H65   H     H_    0.403274 0.063074 0.148774 0.242899
H66   H     H_    0.397484 0.187423 0.097681 0.223517
N8    N     N_3   0.508105 0.123133 0.941179 -0.665883
H67   H     H_    0.494772 0.140296 0.888122 0.254172
H68   H     H_    0.514341 0.209017 0.964175 0.204216
H69   H     H_    0.867336 0.078187 0.411909 0.130725
H70   H     H_    0.202709 0.874765 0.545935 0.134900
H71   H     H_    0.343546 0.694721 0.397394 0.113039
H72   H     H_    0.639109 0.518299 0.576194 0.141664
H73   H     H_    0.691375 0.338724 0.547257 0.162526
H74   H     H_    0.231017 0.318868 0.457280 0.152916
H75   H     H_    0.129988 0.662211 0.581254 0.136844
H76   H     H_    0.747250 0.883064 0.475626 0.145881
H77   H     H_    0.039467 0.918944 0.449546 0.102143
H78   H     H_    0.066646 0.947547 0.577201 0.114052
H79   H     H_    0.486034 0.416545 0.440160 0.103246
H80   H     H_    0.516622 0.428471 0.569356 0.092758
H81   H     H_    0.921280 0.516980 0.357696 0.128335
H82   H     H_    0.002819 0.598020 0.602119 0.141076
H83   H     H_    0.428684 0.035675 0.364582 0.121005
H84   H     H_    0.522504 0.086499 0.607732 0.137832

loop_
_geom_bond_atom_site_label_1
_geom_bond_atom_site_label_2
_ccdc_geom_bond_type
N3    H58   S    
Cr2   O22   S    
Cr3   O23   S    
C52   H83   S    
Cr1   O1    S    
C107  H27   S    
C2    C123  S    
C105  H25   S    
Cr4   O4    S    
C82   H22   S    
C6    H2    S    
C94   C117  S    
C95   C99   A    
C3    O27   A    
C29   C33   A    
Cr8   O52   S    
Cr12  O16   S    
Cr8   O32   S    
C70   C74   A    
C9    C121  A    
C87   C115  S    
C119  O43   A    
C20   H40   S    
C97   C105  S    
C15   C127  S    
C22   C130  A    
Cr9   O37   S    
Cr9   O9    S    
C20   C132  S    
C41   C49   A    
Cr7   O7    S    
C63   C67   A    
N1    H54   S    
C15   H29   S    
C51   H84   S    
C62   C66   A    
C5    H1    S    
C82   H50   S    
C17   C129  S    
C60   C76   A    
C7    H3    S    
C93   C102  A    
C43   C44   A    
C37   C38   A    
C84   H24   S    
C66   C82   S    
C78   C82   S    
Cr12  O12   S    
C16   C20   S    
C106  N6    S    
C55   H7    S    
C2    O26   A    
C34   H78   S    
N8    H68   S    
C18   C130  S    
C13   H31   S    
C47   O35   A    
C114  O6    A    
C90   O38   A    
Cr11  O39   S    
C10   C122  A    
C98   C106  S    
C57   C61   A    
C59   C63   A    
C14   C126  S    
C60   C64   A    
C1    C124  S    
C83   H23   S    
C49   C53   A    
C51   C55   A    
Cr10  O18   S    
Cr5   O49   S    
C46   O34   A    
C127  C131  A    
C80   H16   S    
C74   H46   S    
C61   C65   A    
C5    C21   A    
C83   H51   S    
C94   C98   A    
Cr9   O33   S    
N2    H55   S    
C109  O45   A    
Cr11  O15   S    
C67   C83   S    
C72   H12   S    
C15   H35   S    
Cr1   O21   S    
C120  O44   A    
C97   C98   A    
C54   H6    S    
C53   C54   A    
C5    C9    A    
C25   C90   S    
C64   C68   A    
C9    H69   S    
N5    H61   S    
C57   C73   A    
C60   C109  S    
Cr4   O24   S    
C27   C44   A    
C78   H14   S    
C61   C77   S    
N6    H63   S    
C112  O52   A    
C29   C38   A    
C107  C108  S    
C44   C52   A    
C53   H5    S    
C106  H26   S    
C118  O14   A    
C21   C45   S    
C3    O23   A    
C49   H82   S    
C100  C108  S    
C23   C47   S    
C30   C34   A    
C1    O21   A    
C24   C48   S    
C88   C116  S    
C39   C40   A    
C48   O36   A    
C110  O46   A    
C115  O11   A    
Cr5   O5    S    
C121  C125  A    
C125  C129  A    
C25   C38   A    
Cr8   O8    S    
C123  C127  A    
C27   C40   A    
C8    C12   A    
Cr2   O46   S    
C23   C131  A    
C104  N4    S    
C21   C129  A    
C14   H34   S    
Cr7   O19   S    
C42   C50   A    
C108  H28   S    
C50   H81   S    
C120  O16   A    
Cr5   O29   S    
C93   C97   A    
C69   C85   A    
C58   C74   A    
Cr3   O19   S    
C90   O2    A    
C16   H30   S    
C62   C78   S    
C101  N1    S    
C20   H76   S    
C66   C86   A    
N7    H65   S    
C110  O50   A    
C13   C17   S    
C84   H52   S    
C45   O33   A    
C108  N8    S    
N4    H59   S    
C13   C125  S    
C7    C23   A    
C96   C100  A    
C117  O41   A    
C8    C24   A    
C29   H41   S    
C28   C91   S    
Cr2   O42   S    
Cr9   O17   S    
C116  O8    A    
C17   H37   S    
C114  O10   A    
C17   H73   S    
C16   H36   S    
C58   C62   A    
C19   H75   S    
C55   C56   A    
C101  C102  A    
C46   O30   A    
C103  N3    S    
C41   C42   A    
C96   C119  S    
C35   C36   A    
C80   C84   S    
Cr6   O18   S    
C15   C19   S    
C50   C54   A    
C4    O28   A    
Cr10  O14   S    
C79   H15   S    
Cr2   O18   S    
C126  C130  A    
C6    C22   A    
C31   C40   A    
C32   C39   A    
C80   H20   S    
C14   H32   S    
Cr11  O19   S    
Cr7   O27   S    
C111  O47   A    
C69   C73   A    
C56   H8    S    
C124  C128  A    
Cr3   O43   S    
C64   C80   S    
C8    H4    S    
C10   H70   S    
Cr8   O20   S    
Cr10  O38   S    
Cr6   O6    S    
C77   H17   S    
C58   C111  S    
C68   C84   S    
C119  O15   A    
Cr4   O20   S    
C63   C79   S    
C28   C39   A    
C112  O48   A    
C69   H9    S    
C30   C37   A    
C24   C132  A    
C65   C81   S    
C77   C81   S    
C71   H11   S    
N1    H53   S    
Cr1   O45   S    
Cr3   O3    S    
C71   C87   A    
C22   C46   S    
C1    O25   A    
Cr3   O47   S    
C32   C36   A    
N2    H56   S    
C48   O32   A    
C115  O7    A    
Cr6   O26   S    
C91   O39   A    
C113  O5    A    
C11   C123  A    
C89   O37   A    
C25   C42   A    
C6    C10   A    
C26   C37   A    
C95   C120  S    
C99   C107  S    
C105  C106  S    
C28   C43   A    
C79   C83   S    
N7    H66   S    
C43   C51   A    
C91   O3    A    
C13   H33   S    
C85   C113  S    
C4    C121  S    
Cr1   O41   S    
C73   H45   S    
C92   O40   A    
N6    H64   S    
C96   C103  A    
C103  C104  A    
C89   O1    A    
N8    H67   S    
C92   O4    A    
Cr12  O20   S    
C45   O29   A    
C14   C18   S    
C72   C76   A    
C12   H72   S    
Cr5   O17   S    
C26   C89   S    
C7    C11   A    
Cr4   O44   S    
C102  N2    S    
C30   H42   S    
C76   H48   S    
Cr9   O13   S    
Cr11  O35   S    
C116  O12   A    
C57   C112  S    
C18   H38   S    
Cr1   O17   S    
Cr4   O48   S    
C59   C110  S    
C18   H74   S    
C94   C101  A    
C35   H79   S    
C3    C122  S    
Cr10  O10   S    
C117  O13   A    
C128  C132  A    
C72   C88   A    
C19   C131  S    
C33   H77   S    
C2    O22   A    
C32   H44   S    
Cr7   O51   S    
C81   H49   S    
C36   H80   S    
C19   H39   S    
N5    H62   S    
C47   O31   A    
C111  O51   A    
C122  C126  A    
N4    H60   S    
Cr7   O31   S    
C99   C100  A    
C12   C124  A    
C33   C34   A    
C27   C92   S    
C16   C128  S    
C11   H71   S    
C78   H18   S    
C107  N7    S    
C68   C88   A    
C93   C118  S    
N3    H57   S    
C70   C86   A    
C59   C75   A    
C95   C104  A    
C113  O9    A    
Cr5   O25   S    
C70   H10   S    
C79   H19   S    
C65   C85   A    
C109  O49   A    
Cr11  O11   S    
C67   C87   A    
C4    O24   A    
C86   C114  S    
Cr2   O2    S    
C71   C75   A    
C118  O42   A    
Cr6   O50   S    
C31   C35   A    
Cr12  O36   S    
C75   H47   S    
Cr8   O28   S    
Cr6   O30   S    
C105  N5    S    
C81   H21   S    
Cr12  O40   S    
C31   H43   S    
Cr10  O34   S    
C52   C56   A    
C26   C41   A    
C77   H13   S    
