data_mof_unit_4905.cif
_audit_creation_date              2012-12-11T15:08:40-0500
_audit_creation_method            fapswitch 2.2
_symmetry_space_group_name_H-M    P1
_symmetry_Int_Tables_number       1
_space_group_crystal_system       triclinic
_cell_length_a                    19.576631
_cell_length_b                    11.31062
_cell_length_c                    18.707844
_cell_angle_alpha                 90.694459
_cell_angle_beta                  90.423715
_cell_angle_gamma                 89.749204
_cell_volume                      4141.90693378

loop_
_atom_site_label
_atom_site_type_symbol
_atom_type_description
_atom_site_fract_x
_atom_site_fract_y
_atom_site_fract_z
_atom_type_partial_charge
C1    C     C_R   0.272195 0.045555 0.853398 0.527674
C2    C     C_R   0.727893 0.045211 0.146606 0.526047
C3    C     C_R   0.772195 0.545555 0.853397 0.527697
C4    C     C_R   0.227893 0.545210 0.146606 0.526048
C5    C     C_3   0.519703 0.719613 0.964128 -0.115561
C6    C     C_3   0.479772 0.720068 0.034647 -0.117933
C7    C     C_3   0.019702 0.219614 0.964128 -0.115560
C8    C     C_3   0.979771 0.220069 0.034647 -0.117933
C9    C     C_3   0.310394 0.526098 0.043699 -0.248340
C10   C     C_3   0.689807 0.526570 0.955369 -0.248404
C11   C     C_3   0.810394 0.026098 0.043699 -0.248340
C12   C     C_3   0.189806 0.026569 0.955369 -0.248404
C13   C     C_3   0.320522 0.549165 0.963342 -0.236455
C14   C     C_3   0.679650 0.548214 0.036088 -0.238378
C15   C     C_3   0.820522 0.049166 0.963342 -0.236455
C16   C     C_3   0.179649 0.048214 0.036089 -0.238379
C17   C     C_3   0.177651 0.541601 0.026076 -0.007773
C18   C     C_3   0.822721 0.540097 0.973334 -0.008060
C19   C     C_3   0.677651 0.041601 0.026077 -0.007774
C20   C     C_3   0.322721 0.040096 0.973336 -0.008057
C21   C     C_3   0.250802 0.713384 0.059662 -0.240080
C22   C     C_3   0.749661 0.713218 0.942741 -0.241774
C23   C     C_3   0.750802 0.213385 0.059663 -0.240080
C24   C     C_3   0.249661 0.213218 0.942742 -0.241774
C25   C     C_3   0.242137 0.580672 0.071458 0.064478
C26   C     C_3   0.758224 0.580639 0.928808 0.065083
C27   C     C_3   0.742138 0.080673 0.071458 0.064479
C28   C     C_3   0.258225 0.080639 0.928809 0.065087
C29   C     C_3   0.257251 0.614547 0.933304 0.039681
C30   C     C_3   0.742784 0.612791 0.067110 0.038767
C31   C     C_3   0.757251 0.114547 0.933304 0.039679
C32   C     C_3   0.242784 0.112790 0.067111 0.038766
C33   C     C_3   0.194264 0.537236 0.946147 -0.240899
C34   C     C_3   0.805982 0.535040 0.053145 -0.241183
C35   C     C_3   0.694264 0.037236 0.946147 -0.240900
C36   C     C_3   0.305981 0.035038 0.053146 -0.241181
C37   C     C_3   0.247895 0.731899 0.977158 -0.213128
C38   C     C_3   0.751824 0.730592 0.025515 -0.211980
C39   C     C_3   0.747896 0.231899 0.977158 -0.213127
C40   C     C_3   0.251824 0.230592 0.025516 -0.211980
C41   C     C_3   0.501013 0.701190 0.460189 -0.239593
C42   C     C_3   0.503045 0.701084 0.540115 -0.246534
C43   C     C_3   0.001022 0.201194 0.460192 -0.239575
C44   C     C_3   0.003056 0.201093 0.540116 -0.246552
C45   C     C_R   0.444690 0.817360 0.862339 0.535131
C46   C     C_R   0.555394 0.816170 0.137733 0.535570
C47   C     C_R   0.944690 0.317360 0.862339 0.535134
C48   C     C_R   0.055393 0.316170 0.137733 0.535569
C49   C     C_3   0.564871 0.903345 0.476130 -0.193508
C50   C     C_3   0.432403 0.890526 0.525901 -0.227354
C51   C     C_3   0.064860 0.403380 0.476124 -0.193497
C52   C     C_3   0.932396 0.390515 0.525900 -0.227333
C53   C     C_3   0.443809 0.896759 0.443421 0.132810
C54   C     C_3   0.553567 0.902757 0.558664 0.145291
C55   C     C_3   0.943800 0.396744 0.443418 0.132810
C56   C     C_3   0.053559 0.402792 0.558658 0.145282
C57   C     C_3   0.511346 0.829670 0.431421 0.053944
C58   C     C_3   0.489912 0.828346 0.569720 0.046667
C59   C     C_3   0.011343 0.329676 0.431418 0.053979
C60   C     C_3   0.989913 0.328352 0.569718 0.046672
C61   C     C_3   0.176945 0.641143 0.461180 -0.230556
C62   C     C_3   0.813992 0.661900 0.544732 -0.238096
C63   C     C_3   0.676945 0.141158 0.461179 -0.230543
C64   C     C_3   0.313974 0.161940 0.544742 -0.238100
C65   C     C_3   0.179595 0.641265 0.541047 -0.243527
C66   C     C_3   0.811156 0.671074 0.465092 -0.241169
C67   C     C_3   0.679593 0.141267 0.541048 -0.243515
C68   C     C_3   0.311149 0.171084 0.465098 -0.241179
C69   C     C_3   0.262998 0.464185 0.467562 -0.211108
C70   C     C_3   0.756608 0.463826 0.517385 -0.251841
C71   C     C_3   0.762983 0.964175 0.467562 -0.211103
C72   C     C_3   0.256598 0.963865 0.517419 -0.251714
C73   C     C_3   0.297955 0.665337 0.443451 -0.238835
C74   C     C_3   0.689155 0.625573 0.564606 -0.229831
C75   C     C_3   0.797960 0.165314 0.443456 -0.238846
C76   C     C_3   0.189128 0.125619 0.564597 -0.229910
C77   C     C_3   0.241089 0.579127 0.428964 0.045401
C78   C     C_3   0.759434 0.570882 0.569762 0.048532
C79   C     C_3   0.741086 0.079123 0.428965 0.045409
C80   C     C_3   0.259408 0.070945 0.569779 0.048550
C81   C     C_3   0.252303 0.605836 0.567722 0.058609
C82   C     C_3   0.739153 0.633328 0.437608 0.047372
C83   C     C_3   0.752299 0.105824 0.567724 0.058595
C84   C     C_3   0.239150 0.133333 0.437609 0.047362
C85   C     C_3   0.264487 0.476354 0.549760 -0.269235
C86   C     C_3   0.734751 0.498521 0.441474 -0.230603
C87   C     C_3   0.764473 0.976340 0.549762 -0.269247
C88   C     C_3   0.234752 0.998528 0.441494 -0.230639
C89   C     C_R   0.263240 0.645005 0.855862 0.527082
C90   C     C_R   0.737055 0.643260 0.144639 0.530668
C91   C     C_R   0.763240 0.145005 0.855862 0.527085
C92   C     C_R   0.237055 0.143259 0.144640 0.530670
C93   C     C_3   0.306391 0.674994 0.526039 -0.200856
C94   C     C_3   0.682871 0.679547 0.489774 -0.245599
C95   C     C_3   0.806393 0.174970 0.526045 -0.200863
C96   C     C_3   0.182859 0.179571 0.489756 -0.245577
C97   C     C_R   0.276090 0.035271 0.643274 0.533510
C98   C     C_R   0.727928 0.047526 0.352761 0.519751
C99   C     C_R   0.776131 0.535168 0.643244 0.533580
C100  C     C_R   0.227929 0.547526 0.352760 0.519752
C101  C     C_R   0.466221 0.822205 0.644507 0.531474
C102  C     C_R   0.535151 0.822988 0.356471 0.527702
C103  C     C_R   0.966222 0.322206 0.644507 0.531460
C104  C     C_R   0.035134 0.322991 0.356461 0.527717
C105  C     C_R   0.260402 0.637977 0.644389 0.524377
C106  C     C_R   0.729396 0.675273 0.363370 0.532014
C107  C     C_R   0.760400 0.137970 0.644391 0.524352
C108  C     C_R   0.229399 0.175263 0.363368 0.532023
C109  C     C_3   0.480003 0.913204 0.036387 -0.066850
C110  C     C_3   0.520719 0.912706 0.965413 -0.068613
C111  C     C_3   0.980003 0.413204 0.036387 -0.066853
C112  C     C_3   0.020718 0.412707 0.965413 -0.068613
C113  C     C_3   0.432257 0.816928 0.005801 -0.163610
C114  C     C_3   0.567784 0.814706 0.994535 -0.164510
C115  C     C_3   0.932257 0.316928 0.005801 -0.163612
C116  C     C_3   0.067783 0.314706 0.994535 -0.164508
C117  C     C_3   0.472833 0.818245 0.935850 0.054157
C118  C     C_3   0.527202 0.816788 0.064397 0.052987
C119  C     C_3   0.972833 0.318245 0.935850 0.054157
C120  C     C_3   0.027201 0.316789 0.064397 0.052988
Cr1   Cr    Cr6+3 0.229620 0.836040 0.749110 0.987589
Cr2   Cr    Cr6+3 0.770380 0.836040 0.250890 0.985215
Cr3   Cr    Cr6+3 0.729620 0.336040 0.749110 0.987592
Cr4   Cr    Cr6+3 0.270380 0.336040 0.250890 0.985231
Cr5   Cr    Cr6+3 0.387630 0.990680 0.750730 1.008940
Cr6   Cr    Cr6+3 0.612370 0.990680 0.249270 1.010547
Cr7   Cr    Cr6+3 0.887630 0.490680 0.750730 1.008926
Cr8   Cr    Cr6+3 0.112370 0.490680 0.249270 1.010546
Cr9   Cr    Cr6+3 0.386020 0.676590 0.749210 0.995978
Cr10  Cr    Cr6+3 0.613980 0.676590 0.250790 0.995813
Cr11  Cr    Cr6+3 0.886020 0.176590 0.749210 0.995973
Cr12  Cr    Cr6+3 0.113980 0.176590 0.250790 0.995818
H1    H     H_    0.377841 0.811333 0.015511 0.089347
H2    H     H_    0.622276 0.807453 0.985838 0.089169
H3    H     H_    0.877841 0.311334 0.015511 0.089347
H4    H     H_    0.122276 0.307452 0.985838 0.089169
H5    H     H_    0.211066 0.766747 0.087167 0.156467
H6    H     H_    0.789724 0.766150 0.916700 0.156604
H7    H     H_    0.711066 0.266747 0.087167 0.156466
H8    H     H_    0.289724 0.266150 0.916701 0.156603
H9    H     H_    0.299673 0.743394 0.083683 0.090456
H10   H     H_    0.701268 0.744202 0.918405 0.089957
H11   H     H_    0.799673 0.243395 0.083683 0.090453
H12   H     H_    0.201269 0.244202 0.918405 0.089956
H13   H     H_    0.283417 0.799230 0.959282 0.087924
H14   H     H_    0.715939 0.798009 0.044502 0.089410
H15   H     H_    0.783416 0.299230 0.959282 0.087923
H16   H     H_    0.215940 0.298008 0.044503 0.089409
H17   H     H_    0.195961 0.762149 0.964411 0.171636
H18   H     H_    0.803652 0.759757 0.039428 0.174268
H19   H     H_    0.695961 0.262149 0.964411 0.171636
H20   H     H_    0.303652 0.259756 0.039429 0.174270
H21   H     H_    0.149756 0.570119 0.915525 0.152857
H22   H     H_    0.850418 0.566607 0.084727 0.151953
H23   H     H_    0.649756 0.070119 0.915527 0.152857
H24   H     H_    0.350416 0.066600 0.084732 0.151957
H25   H     H_    0.535056 0.630591 0.440097 0.126869
H26   H     H_    0.465858 0.633919 0.557253 0.126796
H27   H     H_    0.035067 0.130599 0.440104 0.126863
H28   H     H_    0.965875 0.133921 0.557255 0.126803
H29   H     H_    0.450869 0.668089 0.441842 0.154324
H30   H     H_    0.552825 0.668492 0.559828 0.159362
H31   H     H_    0.950878 0.168079 0.441850 0.154335
H32   H     H_    0.052837 0.168516 0.559827 0.159339
H33   H     H_    0.617405 0.886297 0.459519 0.127327
H34   H     H_    0.389866 0.836382 0.536381 0.137262
H35   H     H_    0.117404 0.386360 0.459518 0.127355
H36   H     H_    0.889858 0.336377 0.536390 0.137222
H37   H     H_    0.464084 0.990483 0.069247 0.169253
H38   H     H_    0.537187 0.989254 0.933604 0.168043
H39   H     H_    0.964084 0.490483 0.069248 0.169253
H40   H     H_    0.037186 0.489255 0.933605 0.168042
H41   H     H_    0.448212 0.991580 0.429522 0.099715
H42   H     H_    0.542650 0.995079 0.576220 0.094840
H43   H     H_    0.948193 0.491566 0.429515 0.099708
H44   H     H_    0.042629 0.495113 0.576212 0.094843
H45   H     H_    0.422911 0.980112 0.547502 0.082865
H46   H     H_    0.554663 0.994754 0.460735 0.049741
H47   H     H_    0.922910 0.480105 0.547498 0.082832
H48   H     H_    0.054631 0.494786 0.460726 0.049723
H49   H     H_    0.129086 0.604879 0.442935 0.145665
H50   H     H_    0.867397 0.640226 0.559168 0.133615
H51   H     H_    0.629077 0.104929 0.442929 0.145654
H52   H     H_    0.367378 0.140249 0.559181 0.133655
H53   H     H_    0.173185 0.734085 0.442236 0.105887
H54   H     H_    0.803481 0.748783 0.570229 0.123066
H55   H     H_    0.673202 0.234105 0.442242 0.105869
H56   H     H_    0.303466 0.248829 0.570229 0.123035
H57   H     H_    0.162494 0.730495 0.558843 0.135027
H58   H     H_    0.826258 0.760399 0.450123 0.125152
H59   H     H_    0.662493 0.230493 0.558848 0.135039
H60   H     H_    0.326259 0.260399 0.450118 0.125164
H61   H     H_    0.142118 0.578719 0.561534 0.144182
H62   H     H_    0.850695 0.612023 0.441503 0.133950
H63   H     H_    0.642114 0.078724 0.561529 0.144117
H64   H     H_    0.350688 0.112022 0.441519 0.133966
H65   H     H_    0.731717 0.893231 0.446446 0.112455
H66   H     H_    0.308085 0.934114 0.511233 0.151384
H67   H     H_    0.231737 0.393227 0.446455 0.112465
H68   H     H_    0.808088 0.434062 0.511177 0.151426
H69   H     H_    0.726124 0.920244 0.574890 0.171696
H70   H     H_    0.267908 0.955890 0.400841 0.151732
H71   H     H_    0.226144 0.420242 0.574887 0.171688
H72   H     H_    0.767894 0.455889 0.400809 0.151714
H73   H     H_    0.345205 0.633599 0.417237 0.137031
H74   H     H_    0.648887 0.557895 0.572646 0.119623
H75   H     H_    0.845211 0.133564 0.417248 0.137043
H76   H     H_    0.148865 0.057927 0.572630 0.119587
H77   H     H_    0.283290 0.751791 0.421068 0.164243
H78   H     H_    0.684192 0.692024 0.607593 0.154984
H79   H     H_    0.783303 0.251769 0.421071 0.164271
H80   H     H_    0.184145 0.192075 0.607581 0.154973
H81   H     H_    0.535278 0.638668 0.934369 0.134634
H82   H     H_    0.463859 0.639601 0.063256 0.133686
H83   H     H_    0.035277 0.138669 0.934369 0.134634
H84   H     H_    0.963859 0.139601 0.063256 0.133686
H85   H     H_    0.298591 0.763643 0.544844 0.109760
H86   H     H_    0.687521 0.771511 0.501268 0.153442
H87   H     H_    0.798589 0.263616 0.544851 0.109756
H88   H     H_    0.187502 0.271534 0.501236 0.153420
H89   H     H_    0.357944 0.644359 0.541261 0.127534
H90   H     H_    0.633219 0.662412 0.466459 0.127787
H91   H     H_    0.857946 0.144327 0.541269 0.127551
H92   H     H_    0.133220 0.162428 0.466427 0.127797
H93   H     H_    0.316092 0.443829 0.450657 0.120122
H94   H     H_    0.721533 0.395485 0.537327 0.121308
H95   H     H_    0.816076 0.943808 0.450658 0.120125
H96   H     H_    0.221527 0.895520 0.537364 0.121342
H97   H     H_    0.315344 0.448557 0.570721 0.108155
H98   H     H_    0.681654 0.467784 0.430638 0.124453
H99   H     H_    0.815326 0.948525 0.570723 0.108152
H100  H     H_    0.181660 0.967780 0.430650 0.124441
H101  H     H_    0.313318 0.432860 0.054355 0.141760
H102  H     H_    0.686527 0.433424 0.942372 0.143918
H103  H     H_    0.813319 0.932861 0.054356 0.141760
H104  H     H_    0.186527 0.933424 0.942372 0.143919
H105  H     H_    0.354080 0.563821 0.074453 0.118253
H106  H     H_    0.646227 0.566005 0.925521 0.117449
H107  H     H_    0.854080 0.063823 0.074453 0.118252
H108  H     H_    0.146228 0.066005 0.925520 0.117448
H109  H     H_    0.367034 0.603430 0.955893 0.147739
H110  H     H_    0.632940 0.602524 0.044713 0.148416
H111  H     H_    0.867035 0.103430 0.955893 0.147739
H112  H     H_    0.132940 0.102526 0.044713 0.148416
H113  H     H_    0.328657 0.464133 0.934213 0.139298
H114  H     H_    0.671907 0.462737 0.063457 0.139271
H115  H     H_    0.828657 0.964133 0.934214 0.139299
H116  H     H_    0.171905 0.962737 0.063458 0.139272
H117  H     H_    0.659824 0.955964 0.044396 0.116109
H118  H     H_    0.340610 0.954500 0.953090 0.115636
H119  H     H_    0.159824 0.455963 0.044396 0.116109
H120  H     H_    0.840610 0.454500 0.953089 0.115635
H121  H     H_    0.704074 0.945349 0.928050 0.083627
H122  H     H_    0.296052 0.943263 0.069539 0.083658
H123  H     H_    0.204074 0.445349 0.928049 0.083625
H124  H     H_    0.796056 0.443266 0.069541 0.083662
O1    O     O_R   0.214130 0.708570 0.829890 -0.527660
O2    O     O_R   0.785870 0.708570 0.170110 -0.525383
O3    O     O_R   0.714130 0.208570 0.829890 -0.527658
O4    O     O_R   0.285870 0.208570 0.170110 -0.525350
O5    O     O_R   0.446360 0.919990 0.675230 -0.530692
O6    O     O_R   0.553640 0.919990 0.324770 -0.526660
O7    O     O_R   0.946360 0.419990 0.675230 -0.530715
O8    O     O_R   0.053640 0.419990 0.324770 -0.526682
O9    O     O_R   0.457170 0.717300 0.668380 -0.537195
O10   O     O_R   0.542830 0.717300 0.331620 -0.541312
O11   O     O_R   0.957170 0.217300 0.668380 -0.537190
O12   O     O_R   0.042830 0.217300 0.331620 -0.541304
O13   O     O_R   0.320870 0.624890 0.673130 -0.508756
O14   O     O_R   0.679130 0.624890 0.326870 -0.508342
O15   O     O_R   0.820870 0.124890 0.673130 -0.508753
O16   O     O_R   0.179130 0.124890 0.326870 -0.508342
O17   O     O_3   0.334430 0.834430 0.749680 -0.286429
O18   O     O_3   0.665570 0.834430 0.250320 -0.295258
O19   O     O_3   0.834430 0.334430 0.749680 -0.286461
O20   O     O_3   0.165570 0.334430 0.250320 -0.295252
O21   O     O_R   0.236050 0.959150 0.825270 -0.519420
O22   O     O_R   0.763950 0.959150 0.174730 -0.518864
O23   O     O_R   0.736050 0.459150 0.825270 -0.519409
O24   O     O_R   0.263950 0.459150 0.174730 -0.518866
O25   O     O_R   0.332100 0.076650 0.832310 -0.482262
O26   O     O_R   0.667900 0.076650 0.167690 -0.482660
O27   O     O_R   0.832100 0.576650 0.832310 -0.482251
O28   O     O_R   0.167900 0.576650 0.167690 -0.482659
O29   O     O_R   0.446500 0.918620 0.826240 -0.491872
O30   O     O_R   0.553500 0.918620 0.173760 -0.491807
O31   O     O_R   0.946500 0.418620 0.826240 -0.491876
O32   O     O_R   0.053500 0.418620 0.173760 -0.491812
O33   O     O_R   0.457310 0.715830 0.831280 -0.530543
O34   O     O_R   0.542690 0.715830 0.168720 -0.529609
O35   O     O_R   0.957310 0.215830 0.831280 -0.530539
O36   O     O_R   0.042690 0.215830 0.168720 -0.529610
O37   O     O_R   0.321000 0.623520 0.824130 -0.513968
O38   O     O_R   0.679000 0.623520 0.175870 -0.509676
O39   O     O_R   0.821000 0.123520 0.824130 -0.513965
O40   O     O_R   0.179000 0.123520 0.175870 -0.509681
O41   O     O_R   0.213990 0.710040 0.667000 -0.547369
O42   O     O_R   0.786010 0.710040 0.333000 -0.544676
O43   O     O_R   0.713990 0.210040 0.667000 -0.547365
O44   O     O_R   0.286010 0.210040 0.333000 -0.544681
O45   O     O_R   0.235920 0.960520 0.674260 -0.512070
O46   O     O_R   0.764080 0.960520 0.325740 -0.520734
O47   O     O_R   0.735920 0.460520 0.674260 -0.512080
O48   O     O_R   0.264080 0.460520 0.325740 -0.520730
O49   O     O_R   0.331960 0.078120 0.669410 -0.535105
O50   O     O_R   0.668040 0.078120 0.330590 -0.532158
O51   O     O_R   0.831960 0.578120 0.669410 -0.535115
O52   O     O_R   0.168040 0.578120 0.330590 -0.532157
I1    I     I_    0.588226 0.158190 0.042299 -0.435152
I2    I     I_    0.412002 0.155760 0.959437 -0.436255
I3    I     I_    0.088226 0.658190 0.042299 -0.435152
I4    I     I_    0.912003 0.655761 0.959435 -0.436259
O53   O     O_3   0.613354 0.859849 0.592974 -0.636961
C121  C     C_3   0.614628 0.864769 0.669107 -0.021909
H125  H     H_    0.667294 0.840005 0.685778 0.133784
H126  H     H_    0.582642 0.794984 0.692440 0.165090
C122  C     C_3   0.601456 0.986851 0.703058 -0.274644
H127  H     H_    0.637627 0.050288 0.681302 0.183261
H128  H     H_    0.549694 0.020959 0.692206 0.175594
C123  C     C_3   0.611337 0.982962 0.783637 -0.444127
H129  H     H_    0.579742 0.912333 0.807108 0.167371
H130  H     H_    0.595644 0.069384 0.807075 0.172366
H131  H     H_    0.665845 0.965596 0.796675 0.140041
O54   O     O_3   0.386067 0.847955 0.407915 -0.634398
C124  C     C_3   0.385019 0.851869 0.331995 -0.019236
H132  H     H_    0.334046 0.819050 0.314723 0.135312
H133  H     H_    0.420431 0.786875 0.307801 0.170183
C125  C     C_3   0.392448 0.975681 0.300656 -0.271186
H134  H     H_    0.353495 0.034044 0.324401 0.193493
H135  H     H_    0.443115 0.014181 0.312325 0.172667
C126  C     C_3   0.382562 0.972737 0.219926 -0.444428
H136  H     H_    0.417485 0.907116 0.194754 0.165647
H137  H     H_    0.394271 0.061468 0.198695 0.174335
H138  H     H_    0.328962 0.949376 0.206161 0.140361
O55   O     O_3   0.113356 0.359920 0.592967 -0.636964
C127  C     C_3   0.114627 0.364831 0.669099 -0.021916
H139  H     H_    0.167296 0.340083 0.685770 0.133769
H140  H     H_    0.082650 0.295031 0.692429 0.165065
C128  C     C_3   0.101441 0.486903 0.703056 -0.274639
H141  H     H_    0.137604 0.550354 0.681305 0.183279
H142  H     H_    0.049676 0.520999 0.692203 0.175594
C129  C     C_3   0.111320 0.483006 0.783633 -0.444111
H143  H     H_    0.079732 0.412363 0.807101 0.167374
H144  H     H_    0.095619 0.569421 0.807077 0.172365
H145  H     H_    0.165830 0.465649 0.796672 0.140045
O56   O     O_3   0.886068 0.347918 0.407910 -0.634407
C130  C     C_3   0.885013 0.351861 0.331989 -0.019250
H146  H     H_    0.834040 0.319045 0.314720 0.135320
H147  H     H_    0.920424 0.286878 0.307783 0.170170
C131  C     C_3   0.892443 0.475682 0.300663 -0.271220
H148  H     H_    0.853511 0.534058 0.324437 0.193480
H149  H     H_    0.943123 0.514154 0.312306 0.172667
C132  C     C_3   0.882511 0.472771 0.219938 -0.444390
H150  H     H_    0.917465 0.407186 0.194726 0.165604
H151  H     H_    0.894164 0.561562 0.198721 0.174404
H152  H     H_    0.828909 0.449318 0.206203 0.140374

loop_
_geom_bond_atom_site_label_1
_geom_bond_atom_site_label_2
_ccdc_geom_bond_type
C82   C94   S    
C55   C59   S    
C83   C87   S    
C73   C93   S    
C47   O35   A    
C42   C58   S    
C29   C89   S    
C75   C95   S    
C48   C120  S    
Cr5   O17   S    
C24   H8    S    
C57   C102  S    
C59   C104  S    
Cr1   O21   S    
Cr2   O18   S    
C5    C6    S    
Cr10  O14   S    
Cr3   O23   S    
Cr11  O11   S    
C22   C38   S    
C29   C33   S    
C30   C38   S    
C77   C100  S    
C9    C13   S    
C92   O4    A    
C75   H75   S    
C12   C16   S    
Cr3   O19   S    
O54   C124  S    
C95   H87   S    
C102  O6    A    
C99   O51   A    
C103  O11   A    
C60   C103  S    
C83   C107  S    
C113  H1    S    
C23   H11   S    
C66   H62   S    
C109  C118  S    
C15   H111  S    
C16   H116  S    
C11   H103  S    
Cr5   O29   S    
C50   C53   S    
C63   H51   S    
C9    H101  S    
C46   O30   A    
C123  H131  S    
Cr7   O31   S    
C33   H123  S    
C85   H97   S    
Cr8   O32   S    
C62   C66   S    
C129  H143  S    
C20   C28   S    
Cr3   O3    S    
C121  H125  S    
C96   H88   S    
C90   O38   A    
Cr12  O40   S    
C54   O53   S    
C100  O48   A    
C122  C123  S    
C43   C44   S    
C1    O21   A    
C66   C82   S    
C3    O23   A    
C11   C27   S    
C5    H81   S    
C58   C101  S    
C106  O42   A    
C88   H100  S    
C65   H57   S    
C4    O24   A    
C90   O2    A    
C17   I3    S    
C70   H68   S    
Cr2   O46   S    
C3    C26   S    
Cr3   O43   S    
C70   H94   S    
C31   C91   S    
Cr7   O19   S    
C127  H139  S    
C8    H84   S    
C129  H145  S    
Cr12  O16   S    
Cr11  O35   S    
Cr10  O38   S    
C18   I4    S    
C17   C25   S    
C19   I1    S    
C19   C35   S    
C76   C96   S    
C1    O25   A    
C54   H42   S    
C32   C92   S    
C131  H148  S    
C98   O46   A    
C36   H122  S    
C21   H9    S    
O55   C127  S    
C61   C65   S    
C12   H108  S    
C78   C99   S    
C73   C77   S    
C104  O8    A    
C88   H70   S    
C75   C79   S    
C76   H76   S    
C123  H130  S    
Cr12  O20   S    
C67   C83   S    
Cr8   O52   S    
C80   C97   S    
C51   H35   S    
C111  C112  S    
C71   C79   S    
C4    C25   S    
Cr4   O24   S    
C53   H41   S    
C7    C8    S    
C56   H44   S    
C64   C68   S    
C73   H77   S    
C35   H23   S    
C43   H27   S    
C33   H21   S    
Cr12  O12   S    
C39   H19   S    
C49   C57   S    
C40   H20   S    
C93   H85   S    
C124  H133  S    
C38   H14   S    
C52   C60   S    
C14   H110  S    
C61   C77   S    
C110  C114  S    
C43   C59   S    
C62   H54   S    
C76   H80   S    
C10   H106  S    
Cr6   O18   S    
C11   C15   S    
C127  C128  S    
Cr2   O22   S    
C109  H37   S    
C81   C105  S    
C30   C34   S    
C10   C14   S    
C95   H91   S    
C116  C120  S    
C84   C88   S    
C7    C116  S    
C126  H137  S    
C22   H10   S    
C61   H53   S    
C114  H2    S    
C50   C58   S    
C21   C37   S    
C44   C60   S    
C64   H56   S    
C113  C117  S    
C16   H112  S    
Cr5   O25   S    
C63   H55   S    
Cr6   O30   S    
C9    H105  S    
Cr8   O28   S    
C112  C116  S    
C69   C85   S    
C45   C117  S    
C53   O54   S    
C21   C25   S    
C45   O33   A    
C62   C78   S    
C24   C28   S    
C125  H134  S    
C2    O22   A    
C42   H30   S    
C15   C31   S    
C16   C32   S    
C115  C119  S    
C52   H47   S    
C72   C80   S    
C107  O43   A    
C130  C131  S    
C115  H3    S    
C66   H58   S    
C4    O28   A    
C111  H39   S    
C82   C106  S    
Cr5   O49   S    
C126  H138  S    
C91   O3    A    
C64   H52   S    
C128  C129  S    
C51   C59   S    
Cr5   O5    S    
C94   H90   S    
C81   C85   S    
Cr1   O1    S    
C13   H113  S    
C41   H29   S    
C41   C42   S    
C74   C94   S    
Cr9   O17   S    
C18   C26   S    
C30   C90   S    
C132  H150  S    
C9    C25   S    
C2    O26   A    
C75   H79   S    
C23   C39   S    
C12   C28   S    
C13   C29   S    
C74   H74   S    
C129  H144  S    
C98   O50   A    
C121  H126  S    
C45   O29   A    
C46   C118  S    
C122  H128  S    
C73   H73   S    
C132  H151  S    
C69   C77   S    
C50   H34   S    
C1    C28   S    
Cr1   O41   S    
C2    C27   S    
Cr10  O18   S    
Cr4   O44   S    
C52   C55   S    
C121  C122  S    
C64   C80   S    
C42   H26   S    
C17   C33   S    
C125  C126  S    
C110  C117  S    
C38   H18   S    
C65   H61   S    
C34   H22   S    
C105  O13   A    
C10   H102  S    
C40   H16   S    
C107  O15   A    
C68   C84   S    
C76   C80   S    
C108  O16   A    
C50   H45   S    
C127  H140  S    
C130  H146  S    
C53   C57   S    
C19   H117  S    
C131  C132  S    
C82   C86   S    
C17   H119  S    
C56   C60   S    
C86   H98   S    
C126  H136  S    
C49   H33   S    
C48   O36   A    
C7    C119  S    
C62   H50   S    
C65   C81   S    
C128  H141  S    
C6    H82   S    
Cr7   O51   S    
C68   H64   S    
C131  H149  S    
C56   O55   S    
C41   H25   S    
C110  H38   S    
C15   H115  S    
C44   H28   S    
C31   C35   S    
C32   C36   S    
C132  H152  S    
Cr9   O9    S    
C36   H24   S    
C49   H46   S    
C101  O9    A    
C97   O49   A    
C37   H17   S    
C69   H93   S    
C112  C119  S    
C116  H4    S    
C22   H6    S    
C61   H49   S    
C41   C57   S    
C47   O31   A    
C109  C110  S    
C48   O32   A    
C89   O37   A    
O53   C121  S    
C112  H40   S    
C24   H12   S    
Cr6   O26   S    
C91   O39   A    
C84   C108  S    
Cr7   O7    S    
Cr8   O8    S    
C124  H132  S    
Cr1   O17   S    
C85   H71   S    
C72   H66   S    
Cr10  O10   S    
Cr11  O15   S    
Cr4   O4    S    
C20   I2    S    
C22   C26   S    
C29   C37   S    
C44   H32   S    
C87   H69   S    
C7    H83   S    
C43   H31   S    
C101  O5    A    
C5    C114  S    
C70   C78   S    
C79   C98   S    
C63   C79   S    
C74   H78   S    
C23   H7    S    
Cr6   O50   S    
C84   C96   S    
C67   H59   S    
C68   H60   S    
C11   H107  S    
C49   C54   S    
C94   H86   S    
Cr6   O6    S    
C51   C56   S    
C46   O34   A    
Cr7   O27   S    
Cr8   O20   S    
C8    C115  S    
C20   H118  S    
Cr2   O2    S    
C13   H109  S    
C18   H120  S    
C96   H92   S    
Cr12  O36   S    
Cr9   O37   S    
C19   C27   S    
C74   C78   S    
C109  C113  S    
C10   C26   S    
C47   C119  S    
Cr9   O33   S    
C105  O41   A    
C14   C30   S    
C67   H63   S    
C72   C88   S    
C71   H65   S    
C108  O44   A    
C63   C67   S    
C89   O1    A    
C125  H135  S    
C20   C36   S    
Cr1   O45   S    
C21   H5    S    
C34   H124  S    
C5    C117  S    
C111  C120  S    
Cr2   O42   S    
C124  C125  S    
Cr3   O47   S    
C6    C113  S    
Cr11  O19   S    
Cr4   O48   S    
C130  H147  S    
C81   C93   S    
C83   C95   S    
Cr10  O34   S    
Cr11  O39   S    
C18   C34   S    
C55   H43   S    
C114  C118  S    
C128  H142  S    
C106  O14   A    
C55   O56   S    
C23   C27   S    
C71   C87   S    
C97   O45   A    
C51   H48   S    
C70   C86   S    
C86   H72   S    
C99   O47   A    
C8    C120  S    
C35   H121  S    
C54   C58   S    
C12   H104  S    
C92   O40   A    
C71   H95   S    
C104  O12   A    
C111  C115  S    
C72   H96   S    
C123  H129  S    
C52   H36   S    
Cr4   O20   S    
O56   C130  S    
C87   H99   S    
C3    O27   A    
C24   C40   S    
C31   C39   S    
C32   C40   S    
C122  H127  S    
Cr9   O13   S    
C100  O52   A    
C102  O10   A    
C39   H15   S    
C69   H67   S    
C103  O7    A    
C93   H89   S    
C37   H13   S    
C6    C118  S    
C14   H114  S    
