data_mof_unit_62.cif
_audit_creation_date              2012-12-10T17:19:24-0500
_audit_creation_method            fapswitch 2.2
_symmetry_space_group_name_H-M    P1
_symmetry_Int_Tables_number       1
_space_group_crystal_system       triclinic
_cell_length_a                    14.970073
_cell_length_b                    10.768411
_cell_length_c                    9.616061
_cell_angle_alpha                 90.193061
_cell_angle_beta                  90.170847
_cell_angle_gamma                 92.558492
_cell_volume                      1548.58488962

loop_
_atom_site_label
_atom_site_type_symbol
_atom_type_description
_atom_site_fract_x
_atom_site_fract_y
_atom_site_fract_z
_atom_type_partial_charge
C1    C     C_R   0.497130 0.262650 0.499853 0.783857
C2    C     C_R   0.909741 0.614870 0.484302 -0.000989
C3    C     C_R   0.945970 0.275777 0.526024 -0.213169
C4    C     C_R   0.039086 0.275544 0.525848 -0.218617
C5    C     C_R   0.089787 0.387375 0.512291 0.140022
C6    C     C_R   0.046697 0.500846 0.497946 0.055206
C7    C     C_R   0.097407 0.613820 0.484433 0.034770
C8    C     C_R   0.054360 0.726090 0.472064 -0.283430
C9    C     C_R   0.960955 0.727390 0.469530 0.466054
C10   C     C_R   0.182967 0.387973 0.513165 -0.257604
C11   C     C_R   0.232672 0.500054 0.499184 -0.036852
C12   C     C_R   0.329092 0.499657 0.499796 0.779099
C13   C     C_R   0.190568 0.612452 0.484224 -0.219314
C14   C     C_R   0.353887 0.120953 0.642699 -0.195714
C15   C     C_R   0.286701 0.052105 0.711742 -0.146786
C16   C     C_R   0.287072 0.922997 0.712681 -0.134731
C17   C     C_R   0.354615 0.862002 0.644558 -0.186404
C18   C     C_R   0.423777 0.929878 0.574368 0.100608
C19   C     C_R   0.423455 0.061151 0.573617 0.102245
C20   C     C_R   0.491189 0.128471 0.499585 -0.098765
C21   C     C_R   0.555089 0.067291 0.423192 -0.196998
C22   C     C_R   0.555335 0.939211 0.423688 -0.205297
C23   C     C_R   0.497542 0.737072 0.500216 0.758993
C24   C     C_R   0.491703 0.870533 0.500643 -0.085723
C25   C     C_R   0.618923 0.665288 0.144837 -0.133295
C26   C     C_R   0.676933 0.746117 0.073236 -0.216591
C27   C     C_R   0.676861 0.746135 0.929918 -0.190489
C28   C     C_R   0.618753 0.665354 0.857259 -0.126862
C29   C     C_R   0.558338 0.581297 0.925789 0.204205
C30   C     C_R   0.558371 0.581244 0.075263 0.213049
C31   C     C_R   0.444491 0.422680 0.073272 -0.052305
C32   C     C_R   0.444513 0.422707 0.925505 -0.050453
C33   C     C_R   0.670829 0.500283 0.500169 0.783570
C34   C     C_R   0.816243 0.613130 0.486046 -0.246200
C35   C     C_R   0.767140 0.500682 0.500466 -0.042097
C36   C     C_R   0.809512 0.388567 0.513952 -0.225390
C37   C     C_R   0.902575 0.387840 0.512707 0.138853
C38   C     C_R   0.953000 0.501257 0.498033 -0.001652
Cu1   Cu    Cu3+1 0.499990 0.499990 0.640660 0.931229
Cu2   Cu    Cu3+1 0.500010 0.500010 0.359340 0.937760
H1    H     H_    0.781017 0.698500 0.476304 0.142236
H2    H     H_    0.349536 0.220811 0.642031 0.134578
H3    H     H_    0.233639 0.099144 0.763519 0.135492
H4    H     H_    0.234286 0.869746 0.765182 0.142538
H5    H     H_    0.350769 0.761640 0.645547 0.153920
H6    H     H_    0.606709 0.893421 0.366145 0.131812
H7    H     H_    0.398946 0.359210 0.127828 0.140125
H8    H     H_    0.624702 0.673036 0.254483 0.188575
H9    H     H_    0.722309 0.809275 0.129698 0.131359
H10   H     H_    0.722240 0.809249 0.874274 0.155686
H11   H     H_    0.624304 0.673007 0.747653 0.196416
H12   H     H_    0.769844 0.302338 0.524847 0.124779
H13   H     H_    0.398978 0.359241 0.870016 0.135996
H14   H     H_    0.907873 0.188387 0.536863 0.159919
H15   H     H_    0.071460 0.188026 0.536626 0.151425
H16   H     H_    0.216906 0.301653 0.523844 0.120687
H17   H     H_    0.230404 0.698356 0.472636 0.127977
H18   H     H_    0.093208 0.813181 0.464517 0.167024
H19   H     H_    0.606312 0.119215 0.365420 0.149376
N1    N     N_R   0.500860 0.501210 0.147910 -0.199990
N2    N     N_R   0.500890 0.501290 0.852040 -0.199945
O1    O     O_R   0.499990 0.319640 0.618810 -0.577106
O2    O     O_R   0.500000 0.319660 0.381240 -0.574551
O3    O     O_R   0.370250 0.499960 0.618800 -0.588270
O4    O     O_R   0.370260 0.499980 0.381230 -0.570021
O5    O     O_R   0.500000 0.680340 0.618760 -0.602426
O6    O     O_R   0.500010 0.680360 0.381190 -0.590747
O7    O     O_R   0.629740 0.500020 0.618770 -0.588316
O8    O     O_R   0.629750 0.500040 0.381200 -0.594179
O9    O     O_3   0.920527 0.840340 0.463148 -0.592324
C39   C     C_3   0.897739 0.866875 0.323680 0.042402
H20   H     H_    0.833409 0.914420 0.324649 0.156170
H21   H     H_    0.886836 0.782733 0.256391 0.132610
C40   C     C_3   0.968462 0.954883 0.259070 -0.811086
H22   H     H_    0.032492 0.907779 0.247855 0.236899
H23   H     H_    0.945910 0.983851 0.154444 0.211143
H24   H     H_    0.979324 0.038881 0.325372 0.256025

loop_
_geom_bond_atom_site_label_1
_geom_bond_atom_site_label_2
_ccdc_geom_bond_type
Cu2   N1    S    
Cu1   O7    S    
C35   C36   A    
C1    O1    A    
C7    C8    A    
Cu1   O3    S    
C26   C27   A    
C29   C30   A    
Cu2   O2    S    
C40   H23   S    
C18   C24   A    
C23   O5    A    
C28   C29   A    
C17   H5    S    
C32   N2    A    
C21   H19   S    
C5    C6    A    
C12   O3    A    
C28   H11   S    
C13   H17   S    
C15   C16   A    
C34   C35   A    
C23   O6    A    
C8    H18   S    
C19   C20   A    
C8    C9    A    
C40   H24   S    
C30   N1    A    
C23   C24   S    
C6    C38   A    
O9    C39   S    
C10   H16   S    
C16   H4    S    
C36   H12   S    
C27   H10   S    
C33   O8    A    
C14   H2    S    
C2    C34   A    
C31   H7    S    
C21   C22   A    
C34   H1    S    
C1    O2    A    
Cu1   N2    S    
C29   N2    A    
C40   H22   S    
C9    O9    S    
Cu2   O8    S    
C26   H9    S    
Cu1   Cu2   S    
C39   H21   S    
C18   C19   A    
C25   C26   A    
Cu2   O6    S    
C31   N1    A    
C37   C38   A    
C2    C38   A    
C31   C32   A    
C17   C18   A    
C25   H8    S    
C3    H14   S    
C22   H6    S    
Cu2   O4    S    
C4    H15   S    
Cu1   O5    S    
C22   C24   A    
C3    C4    A    
C32   H13   S    
C25   C30   A    
Cu1   O1    S    
C36   C37   A    
C1    C20   S    
C14   C19   A    
C4    C5    A    
C39   C40   S    
C11   C12   S    
C6    C7    A    
C12   O4    A    
C15   H3    S    
C5    C10   A    
C11   C13   A    
C16   C17   A    
C33   C35   S    
C10   C11   A    
C7    C13   A    
C39   H20   S    
C20   C21   A    
C3    C37   A    
C27   C28   A    
C14   C15   A    
C2    C9    A    
C33   O7    A    
