data_mof_unit_3655.cif
_audit_creation_date              2012-12-11T17:09:30-0500
_audit_creation_method            fapswitch 2.2
_symmetry_space_group_name_H-M    P1
_symmetry_Int_Tables_number       1
_space_group_crystal_system       triclinic
_cell_length_a                    14.81138
_cell_length_b                    6.935915
_cell_length_c                    13.508465
_cell_angle_alpha                 90.011963
_cell_angle_beta                  99.824692
_cell_angle_gamma                 89.982895
_cell_volume                      1367.37908392

loop_
_atom_site_label
_atom_site_type_symbol
_atom_type_description
_atom_site_fract_x
_atom_site_fract_y
_atom_site_fract_z
_atom_type_partial_charge
O1    O     O_R   0.586930 0.505770 0.416350 -0.538131
O2    O     O_R   0.413070 0.005770 0.583650 -0.537864
O3    O     O_R   0.397900 0.173100 0.389630 -0.535983
O4    O     O_R   0.602100 0.673100 0.610370 -0.536797
C1    C     C_R   0.364263 0.345417 0.362886 0.726697
C2    C     C_R   0.635728 0.845407 0.637127 0.722754
O5    O     O_R   0.585280 0.175870 0.404330 -0.543928
O6    O     O_R   0.414720 0.675870 0.595670 -0.544193
O7    O     O_R   0.601790 0.008380 0.598460 -0.534583
O8    O     O_R   0.398210 0.508380 0.401540 -0.533520
C3    C     C_R   0.614719 0.344715 0.382852 0.694511
C4    C     C_R   0.385333 0.844822 0.617191 0.695497
O9    O     O_3   0.505200 0.340120 0.563670 -0.369124
O10   O     O_3   0.494800 0.840120 0.436330 -0.368008
V1    V     V_3+5 0.499040 0.064180 0.488190 1.409490
V2    V     V_3+5 0.500960 0.564180 0.511810 1.408725
C5    C     C_R   0.252296 0.006749 0.676918 0.101991
C6    C     C_R   0.683392 0.508708 0.246754 0.100321
C7    C     C_R   0.314244 0.852829 0.682242 -0.111564
C8    C     C_R   0.680897 0.352657 0.312013 -0.110613
C9    C     C_R   0.303777 0.701571 0.748901 -0.178897
C10   C     C_R   0.742896 0.200570 0.306454 -0.175601
H1    H     H_    0.349769 0.579573 0.755591 0.132257
H2    H     H_    0.743917 0.077795 0.355782 0.129409
C11   C     C_R   0.238118 0.712713 0.812913 -0.175969
C12   C     C_R   0.808862 0.212233 0.242753 -0.179968
H3    H     H_    0.235295 0.598409 0.866688 0.126118
H4    H     H_    0.858185 0.097030 0.243935 0.129180
C13   C     C_R   0.181184 0.875759 0.812484 -0.110506
C14   C     C_R   0.815209 0.376954 0.183282 -0.109253
C15   C     C_R   0.187611 0.018225 0.740584 0.100538
C16   C     C_R   0.748906 0.520683 0.184046 0.101157
C17   C     C_3   0.201099 0.229988 0.754275 -0.407521
C18   C     C_3   0.761457 0.731553 0.202075 -0.414385
C19   C     C_3   0.271169 0.217602 0.684473 -0.398540
C20   C     C_3   0.689716 0.718612 0.269854 -0.395476
H5    H     H_    0.231698 0.267423 0.832831 0.166402
H6    H     H_    0.738699 0.817613 0.132901 0.172638
H7    H     H_    0.138861 0.313264 0.722085 0.175926
H8    H     H_    0.831074 0.765901 0.243364 0.170653
H9    H     H_    0.342371 0.248658 0.722246 0.170741
H10   H     H_    0.625267 0.796418 0.239643 0.174529
H11   H     H_    0.249263 0.292942 0.611710 0.167925
H12   H     H_    0.717504 0.746399 0.350345 0.166404
C21   C     C_1   0.783488 0.877123 0.782847 -0.192134
C22   C     C_1   0.216503 0.377106 0.217167 -0.191988
C23   C     C_1   0.716207 0.860110 0.716784 -0.189148
C24   C     C_1   0.283782 0.360124 0.283234 -0.189753
O11   O     O_R   0.101720 0.231700 0.098560 -0.535968
O12   O     O_R   0.898280 0.731700 0.901440 -0.534760
O13   O     O_R   0.914700 0.558980 0.095690 -0.540822
O14   O     O_R   0.085300 0.058980 0.904310 -0.540857
C25   C     C_R   0.885521 0.389762 0.117438 0.694824
C26   C     C_R   0.114843 0.889700 0.882963 0.694576
O15   O     O_R   0.102080 0.561590 0.110390 -0.537608
O16   O     O_R   0.897920 0.061590 0.889610 -0.536499
O17   O     O_R   0.086950 0.728940 0.916330 -0.540882
O18   O     O_R   0.913050 0.228940 0.083670 -0.540632
C27   C     C_R   0.136055 0.391909 0.137473 0.728963
C28   C     C_R   0.863942 0.891921 0.862531 0.734773
O19   O     O_3   0.994770 0.394510 0.936380 -0.368048
O20   O     O_3   0.005230 0.894510 0.063620 -0.369882
V3    V     V_3+5 0.000970 0.670520 0.011800 1.410723
V4    V     V_3+5 0.999030 0.170520 0.988200 1.411686

loop_
_geom_bond_atom_site_label_1
_geom_bond_atom_site_label_2
_ccdc_geom_bond_type
C7    C9    A    
O4    V2    S    
O19   V4    S    
O5    C3    A    
C25   O18   A    
O16   V4    S    
C21   C28   S    
C12   C14   A    
O20   V3    S    
O2    V1    S    
O15   C27   A    
C22   C27   S    
C11   H3    S    
C19   H11   S    
C20   H10   S    
O1    C3    A    
O9    V1    S    
O6    C4    A    
O12   C28   A    
C2    O7    A    
O5    V1    S    
O7    V1    S    
O13   V3    S    
C1    O8    A    
O6    V2    S    
O11   V4    S    
O8    V2    S    
C14   C25   S    
C14   C16   A    
O12   V3    S    
C16   C18   S    
C17   H7    S    
C6    C20   S    
C13   C15   A    
C19   H9    S    
C4    C7    S    
O15   V3    S    
C2    C23   S    
C17   C19   S    
O14   C26   A    
O17   V3    S    
C18   C20   S    
C21   C23   T    
C9    H1    S    
C11   C13   A    
C5    C15   A    
C1    C24   S    
O10   V2    S    
C3    C8    S    
C20   H12   S    
C6    C16   A    
C13   C26   S    
O13   C25   A    
C10   C12   A    
C22   C24   T    
O3    V1    S    
C6    C8    A    
O4    C2    A    
O2    C4    A    
O14   V4    S    
C10   H2    S    
O1    V2    S    
C9    C11   A    
O9    V2    S    
C18   H8    S    
C15   C17   S    
O20   V4    S    
C5    C19   S    
O18   V4    S    
C5    C7    A    
C18   H6    S    
O10   V1    S    
C12   H4    S    
O19   V3    S    
C17   H5    S    
O16   C28   A    
C8    C10   A    
O3    C1    A    
C26   O17   A    
O11   C27   A    
