data_mof_unit_1340.cif
_audit_creation_date              2013-03-05T15:52:21-0500
_audit_creation_method            fapswitch 2.2
_symmetry_space_group_name_H-M    P1
_symmetry_Int_Tables_number       1
_space_group_crystal_system       triclinic
_cell_length_a                    14.514636
_cell_length_b                    15.826025
_cell_length_c                    10.159115
_cell_angle_alpha                 90.166022
_cell_angle_beta                  88.387628
_cell_angle_gamma                 90.678239
_cell_volume                      2332.54497937

loop_
_atom_site_label
_atom_site_type_symbol
_atom_site_description
_atom_site_fract_x
_atom_site_fract_y
_atom_site_fract_z
_atom_type_partial_charge
O1    O     O_R   0.408390 0.908380 0.614690 -0.678934
O2    O     O_R   0.408390 0.091620 0.614690 -0.654036
O3    O     O_R   0.908390 0.408380 0.614690 -0.671952
O4    O     O_R   0.908390 0.591620 0.614690 -0.674415
O5    O     O_R   0.408370 0.908380 0.385360 -0.536223
O6    O     O_R   0.408370 0.091620 0.385360 -0.566548
O7    O     O_R   0.908370 0.408380 0.385360 -0.538794
O8    O     O_R   0.908370 0.591620 0.385360 -0.533696
C1    C     C_R   0.385773 0.875809 0.502436 0.949629
C2    C     C_R   0.388672 0.125927 0.500725 0.934858
C3    C     C_R   0.892879 0.371755 0.501011 0.944252
C4    C     C_R   0.884477 0.623801 0.501483 0.914630
Zn1   Zn    Zn3+2 0.500010 0.000000 0.653130 0.936640
Zn2   Zn    Zn3+2 0.000010 0.500000 0.653130 0.952192
Zn3   Zn    Zn3+2 0.499980 0.000000 0.346870 1.134667
Zn4   Zn    Zn3+2 0.999980 0.500000 0.346870 1.155327
O9    O     O_R   0.591620 0.091610 0.614640 -0.667884
O10   O     O_R   0.591620 0.908390 0.614640 -0.659469
O11   O     O_R   0.091620 0.591610 0.614640 -0.611035
O12   O     O_R   0.091620 0.408390 0.614640 -0.645635
O13   O     O_R   0.591610 0.091610 0.385310 -0.565915
O14   O     O_R   0.591610 0.908390 0.385310 -0.551485
O15   O     O_R   0.091610 0.591610 0.385310 -0.558866
O16   O     O_R   0.091610 0.408390 0.385310 -0.544593
C5    C     C_R   0.618448 0.122148 0.500253 0.863393
C6    C     C_R   0.612680 0.875438 0.499672 0.901288
C7    C     C_R   0.117296 0.621290 0.498262 0.865687
C8    C     C_R   0.115745 0.376466 0.499913 0.869625
C9    C     C_R   0.351010 0.241202 0.733618 -0.246687
C10   C     C_R   0.279223 0.818500 0.748540 -0.265348
C11   C     C_R   0.815617 0.711386 0.743993 -0.214056
C12   C     C_R   0.850311 0.271161 0.745482 -0.227165
H1    H     H_    0.423872 0.227368 0.727853 0.191486
H2    H     H_    0.347602 0.832831 0.781635 0.231508
H3    H     H_    0.889005 0.702945 0.749961 0.218899
H4    H     H_    0.923434 0.285538 0.746604 0.192023
C13   C     C_R   0.314365 0.279515 0.847531 0.249413
C14   C     C_R   0.207215 0.819959 0.842835 0.226735
C15   C     C_R   0.766055 0.726183 0.859746 0.235949
C16   C     C_R   0.804347 0.254092 0.863916 0.235344
C17   C     C_R   0.671180 0.744622 0.856109 0.170152
C18   C     C_R   0.709144 0.236858 0.864923 0.249650
C19   C     C_R   0.217905 0.291373 0.858573 0.213840
C20   C     C_R   0.117597 0.798073 0.805104 0.230998
C21   C     C_R   0.634421 0.762846 0.733244 -0.221654
C22   C     C_R   0.666277 0.222452 0.744112 -0.241526
C23   C     C_R   0.166444 0.283560 0.744555 -0.247010
C24   C     C_R   0.105427 0.761496 0.681751 -0.252169
H5    H     H_    0.562775 0.780402 0.728207 0.213140
H6    H     H_    0.593117 0.209197 0.746016 0.207799
H7    H     H_    0.092899 0.293217 0.751225 0.209876
H8    H     H_    0.037675 0.738285 0.656864 0.164989
C25   C     C_R   0.691000 0.760429 0.617927 0.041454
C26   C     C_R   0.718288 0.224791 0.623968 0.049207
C27   C     C_R   0.211760 0.272890 0.621509 0.040163
C28   C     C_R   0.181779 0.749213 0.595477 0.064270
C29   C     C_R   0.297986 0.234863 0.620435 0.010681
C30   C     C_R   0.263905 0.791656 0.618454 0.015301
C31   C     C_R   0.775576 0.719616 0.622518 -0.007471
C32   C     C_R   0.804864 0.263829 0.626163 0.002528
C33   C     C_R   0.333579 0.202517 0.501458 -0.209367
C34   C     C_R   0.328574 0.800408 0.511773 -0.192530
C35   C     C_R   0.821066 0.695492 0.504862 -0.209597
C36   C     C_R   0.847315 0.288702 0.507336 -0.210351
C37   C     C_R   0.303787 0.236167 0.382367 0.318026
C38   C     C_R   0.327213 0.742901 0.405927 0.303347
C39   C     C_R   0.793854 0.731779 0.387178 0.313581
C40   C     C_R   0.832445 0.239113 0.395449 0.330082
H9    H     H_    0.699885 0.809272 0.291368 0.257473
H10   H     H_    0.737968 0.153662 0.306642 0.249925
H11   H     H_    0.205286 0.313823 0.292792 0.266616
H12   H     H_    0.258125 0.634753 0.330710 0.247639
C41   C     C_R   0.718661 0.783086 0.384623 -0.113258
C42   C     C_R   0.751231 0.191354 0.392651 -0.131532
C43   C     C_R   0.226255 0.286320 0.383564 -0.102265
C44   C     C_R   0.254882 0.685483 0.401631 -0.156639
C45   C     C_R   0.669712 0.801396 0.499885 -0.125280
C46   C     C_R   0.691387 0.186415 0.503457 -0.136189
C47   C     C_R   0.179747 0.305808 0.501511 -0.151729
C48   C     C_R   0.181676 0.690049 0.493429 -0.120802
C49   C     C_R   0.324727 0.023195 0.134093 0.286657
C50   C     C_R   0.818577 0.487979 0.126921 0.339271
C51   C     C_R   0.251334 0.052698 0.056656 0.328568
C52   C     C_R   0.741011 0.495211 0.045067 0.321814
C53   C     C_R   0.258827 0.047949 0.920971 -0.291179
C54   C     C_R   0.752204 0.497412 0.911277 -0.332897
H13   H     H_    0.200352 0.061953 0.861085 0.211805
H14   H     H_    0.692998 0.501484 0.848976 0.211366
C55   C     C_R   0.338024 0.018992 0.860699 -0.190175
C56   C     C_R   0.838062 0.493858 0.855069 -0.176205
H15   H     H_    0.334772 0.005982 0.758030 0.237236
H16   H     H_    0.839135 0.498130 0.751482 0.250163
C57   C     C_R   0.418688 0.008457 0.929616 0.128303
C58   C     C_R   0.918245 0.492738 0.927818 0.120395
C59   C     C_R   0.415960 0.008920 0.073103 0.019744
C60   C     C_R   0.914479 0.491933 0.071732 0.041508
N1    N     N_R   0.498810 1.000000 0.142780 -0.167586
N2    N     N_R   0.998810 0.500000 0.142780 -0.149830
C61   C     C_R   0.579495 0.998805 0.068400 0.405368
C62   C     C_R   0.076451 0.520683 0.067777 0.381902
C63   C     C_R   0.579712 0.996895 0.925657 0.207067
C64   C     C_R   0.075813 0.522152 0.925144 0.173003
N3    N     N_R   0.498740 1.000000 0.857170 -0.156770
N4    N     N_R   0.998740 0.500000 0.857170 -0.139871
N5    N     N_R   0.356808 0.227132 0.262311 0.239105
O17   O     O_R   0.315389 0.217154 0.151857 -0.353024
O18   O     O_R   0.445714 0.239143 0.261034 -0.281819
N6    N     N_R   0.402102 0.736782 0.310513 0.252281
O19   O     O_R   0.486604 0.748507 0.346443 -0.373670
O20   O     O_R   0.387906 0.704820 0.194551 -0.211415
N7    N     N_R   0.836971 0.711439 0.266031 0.263148
O21   O     O_R   0.797322 0.653215 0.197446 -0.321146
O22   O     O_R   0.923133 0.731752 0.243163 -0.260974
N8    N     N_R   0.905327 0.222898 0.299762 0.263143
O23   O     O_R   0.903035 0.153080 0.231925 -0.231252
O24   O     O_R   0.983030 0.264503 0.302555 -0.319883
N9    N     N_2   0.666036 0.001649 0.854449 -0.314123
H17   H     H_    0.664623 0.014571 0.756739 0.287150
C65   C     C_3   0.736373 0.941297 0.882765 -0.536577
H18   H     H_    0.797950 0.974808 0.920090 0.311355
H19   H     H_    0.757407 0.906610 0.791785 0.208732
H20   H     H_    0.710399 0.895476 0.956425 0.262493
N10   N     N_2   0.149740 0.561276 0.852819 -0.277690
H21   H     H_    0.160754 0.623818 0.876504 0.259952
C66   C     C_3   0.233366 0.513982 0.835993 -0.557397
H22   H     H_    0.282964 0.550036 0.771957 0.226208
H23   H     H_    0.218896 0.453080 0.787008 0.230620
H24   H     H_    0.264932 0.504016 0.932429 0.300091
N11   N     N_R   0.376700 0.312182 0.942343 0.278496
O25   O     O_R   0.448250 0.268486 0.970976 -0.257908
O26   O     O_R   0.378398 0.392686 0.967748 -0.297914
N12   N     N_R   0.226869 0.842687 0.975450 0.226395
O27   O     O_R   0.307660 0.827301 0.021565 -0.306457
O28   O     O_R   0.166228 0.881997 0.048629 -0.264125
N13   N     N_R   0.817558 0.731432 0.975951 0.281181
O29   O     O_R   0.887897 0.681851 0.986341 -0.338901
O30   O     O_R   0.814451 0.800259 0.045913 -0.290307
N14   N     N_R   0.857623 0.245610 0.978563 0.256502
O31   O     O_R   0.924199 0.191269 0.975847 -0.245971
O32   O     O_R   0.860384 0.307529 0.062283 -0.336609
N15   N     N_R   0.614088 0.751006 0.973973 0.225070
O33   O     O_R   0.638457 0.715928 0.082878 -0.266917
O34   O     O_R   0.534189 0.787358 0.971168 -0.353777
N16   N     N_R   0.657088 0.227789 0.986163 0.268576
O35   O     O_R   0.677208 0.272289 0.089307 -0.251074
O36   O     O_R   0.587485 0.175690 0.993472 -0.351650
N17   N     N_R   0.171931 0.315862 0.979693 0.220340
O37   O     O_R   0.215754 0.356764 0.069598 -0.326039
O38   O     O_R   0.083504 0.304068 0.996131 -0.316336
N18   N     N_R   0.040390 0.804499 0.894510 0.250226
O39   O     O_R   0.041564 0.767703 0.008745 -0.215488
O40   O     O_R   0.967341 0.844616 0.859672 -0.353353
N19   N     N_R   0.665232 0.010686 0.133149 0.213094
O41   O     O_R   0.718124 0.074649 0.101345 -0.338391
O42   O     O_R   0.701576 0.947933 0.193801 -0.376563
N20   N     N_R   0.157169 0.549336 0.132652 0.203222
O43   O     O_R   0.189180 0.625383 0.111831 -0.359792
O44   O     O_R   0.199237 0.499834 0.212503 -0.334566
N21   N     N_R   0.293999 0.983443 0.254120 0.231311
O45   O     O_R   0.271359 0.903888 0.248096 -0.285038
O46   O     O_R   0.252482 0.027677 0.345568 -0.365794
N22   N     N_R   0.790726 0.461427 0.255677 0.230604
O47   O     O_R   0.756569 0.385268 0.265948 -0.328860
O48   O     O_R   0.759798 0.516495 0.340547 -0.336477
N23   N     N_R   0.162503 0.073612 0.114335 0.276674
O49   O     O_R   0.155886 0.129756 0.207667 -0.262935
O50   O     O_R   0.087478 0.049088 0.057423 -0.243602
N24   N     N_R   0.647862 0.492959 0.098084 0.264202
O51   O     O_R   0.621371 0.547199 0.187345 -0.214603
O52   O     O_R   0.585778 0.446287 0.041894 -0.263589

loop_
_geom_bond_atom_site_label_1
_geom_bond_atom_site_label_2
_geom_bond_distance
_ccdc_geom_bond_type
C30   C34   1.419639 A    
N23   O49   1.299910 A    
C49   N21   1.431349 S    
N17   O37   1.295125 A    
O10   C6    1.307564 A    
O3    C3    1.314550 A    
H12   C44   1.077743 S    
C57   N3    1.365519 A    
N8    O23   1.301135 A    
C25   C31   1.395887 A    
N10   H21   1.029649 S    
C15   C17   1.412563 A    
C26   C32   1.394412 A    
O7    C3    1.323985 A    
N5    O18   1.301838 A    
Zn1   O10   2.008991 S    
C36   C40   1.399706 A    
N20   O43   1.300695 A    
N17   O38   1.300969 A    
C52   C54   1.364812 A    
N11   O25   1.294802 A    
N9    C65   1.441698 S    
C49   C59   1.465812 A    
C54   H14   1.084143 S    
N24   O52   1.301626 A    
N10   C66   1.439383 S    
C40   C42   1.393661 A    
C9    H1    1.082461 S    
N6    O19   1.300553 A    
C10   C14   1.398092 A    
N13   O30   1.299455 A    
C18   C22   1.408354 A    
C11   C31   1.385919 A    
C8    C47   1.462624 S    
O2    Zn1   2.025230 S    
O14   C6    1.320069 A    
N1    C61   1.376040 A    
O6    Zn3   2.009106 S    
C10   C30   1.409787 A    
Zn2   N4    2.072429 S    
Zn3   O14   2.025213 S    
N7    O21   1.293087 A    
N6    O20   1.301497 A    
N12   O27   1.300851 A    
C60   N2    1.442579 A    
H10   C42   1.077080 S    
C66   H24   1.105667 S    
C44   C48   1.396284 A    
N21   O46   1.300392 A    
H9    C41   1.078442 S    
C39   C41   1.368889 A    
O15   C7    1.301216 A    
C28   C30   1.386502 A    
Zn1   N3    2.072429 S    
O11   C7    1.315914 A    
O4    C4    1.316280 A    
C62   N20   1.428907 S    
C16   C18   1.405084 A    
C58   N4    1.357751 A    
O8    Zn4   2.009106 S    
O4    Zn2   2.025230 S    
N23   O50   1.301880 A    
Zn3   N1    2.073921 S    
C37   N5    1.431460 S    
C49   C51   1.425750 A    
C14   C20   1.405545 A    
C56   C58   1.396424 A    
N22   O48   1.299054 A    
C65   H19   1.110848 S    
C35   C39   1.396814 A    
C6    C45   1.442720 S    
C50   C60   1.486642 A    
C10   H2    1.078209 S    
C53   H13   1.083470 S    
C1    C34   1.447410 S    
Zn2   O12   2.008991 S    
N13   O29   1.301789 A    
O1    C1    1.299096 A    
N16   O36   1.297075 A    
C7    C48   1.425983 S    
C54   C56   1.357822 A    
C4    C35   1.469115 S    
C34   C38   1.407151 A    
C15   N13   1.416691 S    
O12   C8    1.309246 A    
C20   N18   1.426881 S    
C5    C46   1.460349 S    
C16   N14   1.423591 S    
N8    O24   1.300177 A    
C14   N12   1.429073 S    
C13   C19   1.416078 A    
C25   C45   1.408551 A    
O5    C1    1.328728 A    
C52   N24   1.441288 S    
C27   C47   1.419410 A    
C56   H16   1.054390 S    
N21   O45   1.299158 A    
C21   H5    1.082206 S    
O8    C4    1.322506 A    
C38   C44   1.381885 A    
C22   C26   1.417319 A    
C62   C64   1.449565 A    
N7    O22   1.302263 A    
C58   C60   1.461604 A    
C51   N23   1.442837 S    
O3    Zn2   2.000924 S    
N14   O32   1.296685 A    
N12   O28   1.299199 A    
O7    Zn4   1.987912 S    
C51   C53   1.381574 A    
C9    C29   1.404211 A    
C3    C36   1.465150 S    
Zn4   O15   2.000905 S    
C50   C52   1.424226 A    
C27   C29   1.394883 A    
C18   N16   1.433395 S    
C66   H22   1.110449 S    
N18   O40   1.300353 A    
C2    C33   1.459887 S    
N19   O42   1.295562 A    
C12   C32   1.400129 A    
C64   N10   1.420264 S    
O2    C2    1.320278 A    
C12   H4    1.083193 S    
C23   C27   1.406729 A    
N22   O47   1.301190 A    
N5    O17   1.296221 A    
C65   H20   1.099437 S    
C39   N7    1.403263 S    
C24   C28   1.408409 A    
O13   C5    1.329193 A    
N24   O51   1.300265 A    
C53   C55   1.370231 A    
C61   C63   1.450288 A    
Zn2   O11   1.987795 S    
O16   C8    1.328171 A    
C38   N6    1.439849 S    
N16   O35   1.298975 A    
C37   C43   1.384506 A    
O6    C2    1.315772 A    
C23   H7    1.080367 S    
C65   H18   1.109318 S    
C59   N1    1.421119 A    
C29   C33   1.399082 A    
C50   N22   1.421400 S    
C17   N15   1.440861 S    
C22   H6    1.079617 S    
C31   C35   1.403324 A    
C28   C48   1.394963 A    
C63   N3    1.383971 A    
Zn1   O9    1.987795 S    
C32   C36   1.395361 A    
C63   N9    1.430368 S    
N15   O34   1.301712 A    
O9    C5    1.307266 A    
C17   C21   1.403233 A    
N9    H17   1.014904 S    
H11   C43   1.074114 S    
Zn4   N2    2.073921 S    
C57   C59   1.457127 A    
Zn3   O13   2.000905 S    
C19   C23   1.400197 A    
C64   N4    1.372602 A    
C61   N19   1.434046 S    
N20   O44   1.299053 A    
C11   C15   1.382019 A    
C11   H3    1.078539 S    
C12   C16   1.384970 A    
C55   C57   1.392914 A    
N2    C62   1.379171 A    
O5    Zn3   1.987912 S    
C19   N17   1.437605 S    
N14   O31   1.300830 A    
C21   C25   1.412321 A    
C33   C37   1.404634 A    
C24   H8    1.082046 S    
O1    Zn1   2.000924 S    
Zn4   O16   2.025213 S    
C55   H15   1.064815 S    
C42   C46   1.404161 A    
C9    C13   1.399555 A    
C66   H23   1.104118 S    
C41   C45   1.384186 A    
N18   O39   1.300578 A    
N11   O26   1.299284 A    
N19   O41   1.299245 A    
N15   O33   1.299080 A    
C43   C47   1.394216 A    
C13   N11   1.431341 S    
C20   C24   1.393745 A    
C40   N8    1.441186 S    
C26   C46   1.427294 A    
