data_mof_unit_4834.cif
_audit_creation_date              2012-12-10T19:42:54-0500
_audit_creation_method            fapswitch 2.2
_symmetry_space_group_name_H-M    P1
_symmetry_Int_Tables_number       1
_space_group_crystal_system       triclinic
_cell_length_a                    10.830879
_cell_length_b                    12.996427
_cell_length_c                    11.654301
_cell_angle_alpha                 99.890203
_cell_angle_beta                  93.921662
_cell_angle_gamma                 90.511597
_cell_volume                      1611.97043301

loop_
_atom_site_label
_atom_site_type_symbol
_atom_type_description
_atom_site_fract_x
_atom_site_fract_y
_atom_site_fract_z
_atom_type_partial_charge
C1    C     C_R   0.498332 0.299010 0.478584 0.804262
C2    C     C_R   0.501668 0.700990 0.521416 0.804263
C3    C     C_R   0.871694 0.494410 0.499961 -0.091325
C4    C     C_R   0.128306 0.505590 0.500039 -0.091325
C5    C     C_R   0.945475 0.463520 0.592648 0.017537
C6    C     C_R   0.054525 0.536480 0.407352 0.017537
C7    C     C_R   0.501706 0.814387 0.533842 -0.056638
C8    C     C_R   0.498294 0.185613 0.466158 -0.056638
C9    C     C_R   0.503314 0.015082 0.344535 -0.209917
C10   C     C_R   0.496686 0.984918 0.655465 -0.209917
C11   C     C_R   0.501542 0.123205 0.355447 -0.188448
C12   C     C_R   0.498458 0.876795 0.644553 -0.188448
C13   C     C_R   0.495888 0.139276 0.565902 -0.271142
C14   C     C_R   0.504112 0.860723 0.434098 -0.271142
C15   C     C_R   0.498095 0.031286 0.555777 0.174451
C16   C     C_R   0.501905 0.968714 0.444223 0.174451
C17   C     C_R   0.383109 0.400435 0.020838 0.298304
C18   C     C_R   0.616891 0.599565 0.979162 0.298304
C19   C     C_R   0.395013 0.410606 0.144087 -0.014753
C20   C     C_R   0.604987 0.589394 0.855913 -0.014754
C21   C     C_R   0.549642 0.542826 0.157578 0.065751
C22   C     C_R   0.450358 0.457174 0.842422 0.065751
C23   C     C_R   0.262215 0.503143 0.500270 0.800160
C24   C     C_R   0.737785 0.496856 0.499730 0.800160
C25   C     C_R   0.542196 0.536119 0.034521 -0.003917
C26   C     C_R   0.457804 0.463881 0.965479 -0.003918
C27   C     C_R   0.232584 0.707944 0.240733 -0.216416
C28   C     C_R   0.767416 0.292055 0.759267 -0.216416
C29   C     C_R   0.179603 0.670842 0.332261 -0.139366
C30   C     C_R   0.820397 0.329158 0.667739 -0.139366
C31   C     C_R   0.106873 0.578627 0.310057 0.129850
C32   C     C_R   0.893127 0.421373 0.689943 0.129850
C33   C     C_R   0.085314 0.525634 0.194753 -0.248389
C34   C     C_R   0.914686 0.474366 0.805247 -0.248389
C35   C     C_R   0.138264 0.562863 0.103314 -0.137186
C36   C     C_R   0.861736 0.437137 0.896686 -0.137186
C37   C     C_R   0.212926 0.653494 0.125393 0.472929
C38   C     C_R   0.787074 0.346505 0.874607 0.472930
C39   C     C_R   0.926753 0.529351 0.408125 -0.224903
C40   C     C_R   0.073247 0.470649 0.591875 -0.224903
Cu1   Cu    Cu3+1 0.509250 0.507730 0.615930 0.954001
Cu2   Cu    Cu3+1 0.490750 0.492270 0.384070 0.954001
H1    H     H_    0.386207 0.402327 0.787798 0.172371
H2    H     H_    0.613793 0.597673 0.212201 0.172371
H3    H     H_    0.661766 0.637394 0.812295 0.126196
H4    H     H_    0.338234 0.362606 0.187705 0.126196
H5    H     H_    0.289023 0.778747 0.259762 0.122628
H6    H     H_    0.710977 0.221253 0.740238 0.122628
H7    H     H_    0.196513 0.713128 0.420600 0.126547
H8    H     H_    0.803486 0.286872 0.579400 0.126547
H9    H     H_    0.029387 0.454437 0.175990 0.159563
H10   H     H_    0.970613 0.545563 0.824010 0.159563
H11   H     H_    0.122627 0.520306 0.015048 0.164829
H12   H     H_    0.877373 0.479694 0.984952 0.164829
H13   H     H_    0.869980 0.554706 0.338236 0.169599
H14   H     H_    0.130020 0.445294 0.661764 0.169599
H15   H     H_    0.507821 0.812966 0.348450 0.155726
H16   H     H_    0.492179 0.187033 0.651550 0.155726
H17   H     H_    0.496671 0.842147 0.722591 0.164150
H18   H     H_    0.503329 0.157853 0.277409 0.164149
H19   H     H_    0.506005 0.967879 0.258525 0.141503
H20   H     H_    0.493995 0.032121 0.741475 0.141503
N1    N     N_R   0.523180 0.519350 0.790130 -0.208522
N2    N     N_R   0.476820 0.480650 0.209870 -0.208522
O1    O     O_R   0.506570 0.354460 0.582000 -0.590803
O2    O     O_R   0.493430 0.645540 0.418000 -0.590803
O3    O     O_R   0.490940 0.341410 0.386200 -0.586478
O4    O     O_R   0.509060 0.658590 0.613800 -0.586478
O5    O     O_R   0.327460 0.506540 0.597900 -0.583905
O6    O     O_R   0.672540 0.493460 0.402100 -0.583905
O7    O     O_R   0.311830 0.493480 0.402100 -0.574335
O8    O     O_R   0.688170 0.506520 0.597900 -0.574335
O9    O     O_3   0.265373 0.686486 0.033093 -0.746561
H21   H     H_    0.316999 0.750013 0.063415 0.314872
O10   O     O_3   0.734627 0.313514 0.966907 -0.746561
H22   H     H_    0.683001 0.249987 0.936585 0.314872
O11   O     O_3   0.299421 0.330078 0.954054 -0.761329
H23   H     H_    0.253949 0.293206 0.006499 0.319105
O12   O     O_3   0.700579 0.669922 0.045946 -0.761329
H24   H     H_    0.746051 0.706794 0.993501 0.319105

loop_
_geom_bond_atom_site_label_1
_geom_bond_atom_site_label_2
_ccdc_geom_bond_type
C8    C13   A    
C27   C29   A    
C1    C8    S    
O9    H21   S    
C23   O5    A    
C2    C7    S    
C19   H4    S    
C24   O6    A    
C29   H7    S    
O11   H23   S    
C9    H19   S    
C17   C26   A    
C35   C37   A    
C9    C16   A    
C2    O4    A    
C10   C15   A    
C33   C35   A    
C35   H11   S    
C15   C16   A    
Cu2   O6    S    
Cu1   Cu2   S    
C21   N2    A    
C37   O9    S    
C17   C19   A    
C22   N1    A    
C12   H17   S    
C7    C14   A    
C39   H13   S    
C4    C40   A    
C18   O12   S    
C40   H14   S    
C1    O1    A    
C31   C33   A    
C34   C36   A    
C20   H3    S    
C5    C32   S    
C6    C31   S    
C30   H8    S    
C3    C39   A    
C3    C24   S    
C10   H20   S    
C18   C25   A    
Cu1   O4    S    
C38   O10   S    
C7    C12   A    
C23   O7    A    
C4    C6    A    
C4    C23   S    
Cu1   O1    S    
C13   H16   S    
C3    C5    A    
C25   C26   A    
C32   C34   A    
O10   H22   S    
C21   H2    S    
C22   H1    S    
C28   C38   A    
C19   N2    A    
C17   O11   S    
C9    C11   A    
C10   C12   A    
Cu1   O8    S    
C13   C15   A    
Cu2   O3    S    
C14   C16   A    
Cu1   N1    S    
C11   H18   S    
Cu2   N2    S    
C24   O8    A    
Cu1   O5    S    
C27   H5    S    
C14   H15   S    
C21   C25   A    
C28   H6    S    
C2    O2    A    
C33   H9    S    
C34   H10   S    
C20   N1    A    
C28   C30   A    
C29   C31   A    
C30   C32   A    
C27   C37   A    
C8    C11   A    
C36   C38   A    
Cu2   O7    S    
C1    O3    A    
C18   C20   A    
C36   H12   S    
O12   H24   S    
C22   C26   A    
C5    C40   A    
Cu2   O2    S    
C6    C39   A    
