data_mof_unit_4943.cif
_audit_creation_date              2012-10-26T20:48:49-0400
_audit_creation_method            fapswitch 2.2
_symmetry_space_group_name_H-M    P1
_symmetry_Int_Tables_number       1
_space_group_crystal_system       triclinic
_cell_length_a                    15.080046
_cell_length_b                    13.914303
_cell_length_c                    9.030116
_cell_angle_alpha                 89.942223
_cell_angle_beta                  91.706979
_cell_angle_gamma                 90.017789
_cell_volume                      1893.9322896

loop_
_atom_site_label
_atom_site_type_symbol
_atom_type_description
_atom_site_fract_x
_atom_site_fract_y
_atom_site_fract_z
_atom_type_partial_charge
C1    C     C_R   0.329784 0.499986 0.498870 0.542902
C2    C     C_R   0.562481 0.891939 0.584068 -0.156335
C3    C     C_R   0.499722 0.500019 0.220703 0.546400
C4    C     C_R   0.499903 0.499958 0.779284 0.544844
C5    C     C_R   0.499662 0.054769 0.499550 -0.050883
C6    C     C_R   0.499852 0.945232 0.499107 -0.048775
C7    C     C_1   0.499558 0.499968 0.065623 -0.069071
C8    C     C_1   0.499554 0.499876 0.934354 -0.069433
C9    C     C_R   0.093175 0.581057 0.442982 0.241267
C10   C     C_R   0.901828 0.436225 0.406123 0.256554
C11   C     C_R   0.907753 0.568135 0.586781 0.256626
C12   C     C_R   0.669927 0.500027 0.501133 0.537776
C13   C     C_R   0.094137 0.417733 0.546458 0.256248
C14   C     C_R   0.185982 0.581538 0.449354 -0.146416
C15   C     C_R   0.810030 0.433945 0.413111 -0.148131
C16   C     C_R   0.814098 0.567133 0.586655 -0.175704
C17   C     C_R   0.187179 0.417872 0.542024 -0.169763
C18   C     C_R   0.232868 0.499858 0.496725 -0.082140
C19   C     C_R   0.766247 0.500167 0.500760 -0.090425
C20   C     C_R   0.047899 0.499680 0.494583 0.110053
C21   C     C_R   0.950636 0.501123 0.496206 0.103740
C22   C     C_3   0.695093 0.236235 0.690670 0.012932
C23   C     C_R   0.551987 0.209527 0.600905 0.379733
C24   C     C_3   0.731047 0.196289 0.838499 -0.272218
C25   C     C_3   0.826482 0.161450 0.826040 -0.499183
C26   C     C_3   0.393321 0.762686 0.166249 0.001734
C27   C     C_3   0.303704 0.791645 0.096557 -0.279573
C28   C     C_3   0.311899 0.816852 0.932905 -0.480263
C29   C     C_3   0.307979 0.239243 0.296971 0.010035
C30   C     C_3   0.274499 0.202722 0.145694 -0.274771
C31   C     C_3   0.174403 0.185801 0.143801 -0.487639
C32   C     C_3   0.602566 0.762508 0.832286 0.004921
C33   C     C_3   0.663813 0.701192 0.931677 -0.265295
C34   C     C_R   0.442013 0.790169 0.408011 0.376774
C35   C     C_3   0.650471 0.721714 0.095455 -0.476345
C36   C     C_3   0.067747 0.693575 0.258060 0.001213
C37   C     C_3   0.996202 0.762095 0.196981 -0.240423
C38   C     C_3   0.907349 0.711471 0.169596 -0.423003
C39   C     C_3   0.961290 0.419309 0.177206 -0.001164
C40   C     C_3   0.896710 0.382956 0.055850 -0.283905
C41   C     C_3   0.909204 0.435950 0.909925 -0.464726
C42   C     C_3   0.920548 0.708833 0.737036 0.021996
C43   C     C_3   0.896207 0.785026 0.619251 -0.244054
C44   C     C_3   0.853703 0.872930 0.688959 -0.497625
C45   C     C_R   0.448311 0.209874 0.398083 0.378667
C46   C     C_3   0.083962 0.285539 0.709023 0.009380
C47   C     C_3   0.120850 0.189356 0.655442 -0.247012
C48   C     C_3   0.047348 0.122919 0.596349 -0.406183
C49   C     C_R   0.558135 0.790538 0.591251 0.370201
C50   C     C_R   0.548317 0.108043 0.607048 -0.151544
C51   C     C_R   0.437673 0.891636 0.413656 -0.151651
C52   C     C_R   0.451237 0.108381 0.392164 -0.150437
Cu1   Cu    Cu3+1 0.500000 0.596430 0.500000 1.020565
Cu2   Cu    Cu3+1 0.500000 0.403570 0.500000 1.040699
H1    H     H_    0.221582 0.645417 0.417253 0.164963
H2    H     H_    0.709440 0.184863 0.599339 0.107737
H3    H     H_    0.728574 0.253366 0.924347 0.169408
H4    H     H_    0.689265 0.135270 0.874239 0.160538
H5    H     H_    0.829400 0.100731 0.746581 0.145963
H6    H     H_    0.852008 0.136285 0.935958 0.141849
H7    H     H_    0.869493 0.220647 0.787555 0.157256
H8    H     H_    0.416513 0.697547 0.108102 0.157907
H9    H     H_    0.443071 0.820309 0.145475 0.095127
H10   H     H_    0.256396 0.730930 0.106582 0.156615
H11   H     H_    0.277117 0.854705 0.156221 0.152637
H12   H     H_    0.772734 0.382384 0.346420 0.134795
H13   H     H_    0.357565 0.878764 0.919876 0.141817
H14   H     H_    0.245682 0.836647 0.885180 0.150596
H15   H     H_    0.337452 0.754279 0.870806 0.157315
H16   H     H_    0.272275 0.306862 0.321004 0.164869
H17   H     H_    0.290104 0.186673 0.384775 0.091560
H18   H     H_    0.290128 0.256488 0.059111 0.175533
H19   H     H_    0.308444 0.134335 0.118982 0.153321
H20   H     H_    0.157258 0.131172 0.228096 0.151298
H21   H     H_    0.151935 0.159398 0.032955 0.133710
H22   H     H_    0.138938 0.253827 0.167232 0.159436
H23   H     H_    0.776932 0.615874 0.653968 0.148501
H24   H     H_    0.532380 0.747499 0.860395 0.136136
H25   H     H_    0.617852 0.839253 0.856205 0.101641
H26   H     H_    0.651596 0.623802 0.909245 0.174750
H27   H     H_    0.733565 0.717459 0.906480 0.143141
H28   H     H_    0.667570 0.797612 0.121508 0.138140
H29   H     H_    0.693970 0.673894 0.164212 0.154899
H30   H     H_    0.580635 0.708287 0.123878 0.164838
H31   H     H_    0.074895 0.632563 0.179189 0.111995
H32   H     H_    0.130907 0.734541 0.265414 0.114786
H33   H     H_    0.987379 0.822116 0.276342 0.158932
H34   H     H_    0.224596 0.354935 0.575600 0.119182
H35   H     H_    0.018266 0.793186 0.090784 0.101256
H36   H     H_    0.913854 0.654834 0.084293 0.124873
H37   H     H_    0.857253 0.764425 0.128798 0.121729
H38   H     H_    0.883667 0.678681 0.273420 0.183107
H39   H     H_    0.029884 0.400447 0.146301 0.136528
H40   H     H_    0.958957 0.499424 0.182469 0.119835
H41   H     H_    0.907775 0.304856 0.039063 0.165833
H42   H     H_    0.827318 0.393597 0.090342 0.160190
H43   H     H_    0.891036 0.512774 0.921881 0.156249
H44   H     H_    0.865601 0.403767 0.821991 0.154521
H45   H     H_    0.584230 0.072690 0.696485 0.099246
H46   H     H_    0.979140 0.431001 0.875675 0.168523
H47   H     H_    0.969519 0.741890 0.815941 0.148128
H48   H     H_    0.864433 0.688217 0.806284 0.097414
H49   H     H_    0.957281 0.807746 0.562878 0.194186
H50   H     H_    0.849233 0.755324 0.534166 0.171166
H51   H     H_    0.791270 0.852390 0.742986 0.165370
H52   H     H_    0.837815 0.927037 0.601676 0.141702
H53   H     H_    0.899914 0.905913 0.772477 0.135661
H54   H     H_    0.031333 0.270415 0.789267 0.137238
H55   H     H_    0.135622 0.326122 0.773850 0.090938
H56   H     H_    0.385436 0.926580 0.349665 0.100412
H57   H     H_    0.168815 0.201610 0.566597 0.148141
H58   H     H_    0.156629 0.153166 0.749252 0.107367
H59   H     H_    0.000421 0.105972 0.685149 0.132916
H60   H     H_    0.076906 0.054674 0.557596 0.118082
H61   H     H_    0.010626 0.157018 0.501662 0.206625
H62   H     H_    0.415659 0.073329 0.302101 0.100627
H63   H     H_    0.615723 0.927341 0.644846 0.095405
H64   H     H_    0.732234 0.303028 0.666041 0.164529
N1    N     N_R   0.500000 0.258690 0.500000 -0.205818
N2    N     N_R   0.500000 0.741310 0.500000 -0.201679
O1    O     O_R   0.371460 0.581430 0.500010 -0.463704
O2    O     O_3   0.382976 0.739047 0.317818 -0.544853
O3    O     O_3   0.399732 0.261057 0.292002 -0.530026
O4    O     O_3   0.617238 0.739912 0.682051 -0.543529
O5    O     O_3   0.044828 0.662056 0.400714 -0.549006
O6    O     O_3   0.943961 0.372991 0.313189 -0.547141
O7    O     O_3   0.962155 0.627796 0.675406 -0.554510
O8    O     O_3   0.045104 0.337641 0.588692 -0.540959
O9    O     O_R   0.628540 0.418570 0.499990 -0.495110
O10   O     O_R   0.628540 0.581430 0.499990 -0.462818
O11   O     O_R   0.371460 0.418570 0.500010 -0.500990
O12   O     O_R   0.500000 0.581420 0.288390 -0.500995
O13   O     O_R   0.500000 0.418580 0.711610 -0.448865
O14   O     O_R   0.500000 0.581420 0.711610 -0.492940
O15   O     O_R   0.500000 0.418580 0.288390 -0.445621
O16   O     O_3   0.604128 0.260423 0.702521 -0.531593

loop_
_geom_bond_atom_site_label_1
_geom_bond_atom_site_label_2
_ccdc_geom_bond_type
C38   H38   S    
C17   H34   S    
C32   O4    S    
C36   O5    S    
C4    C8    S    
Cu1   N2    S    
C7    C8    T    
C44   H51   S    
C45   O3    S    
C15   C19   A    
Cu2   O11   S    
C34   C51   A    
C29   C30   S    
C12   O10   A    
C23   O16   S    
C46   O8    S    
C36   C37   S    
C28   H14   S    
C3    C7    S    
C10   C15   A    
C23   N1    A    
C30   C31   S    
C47   H57   S    
C49   N2    A    
C47   H58   S    
C48   H60   S    
C50   H45   S    
C22   H64   S    
C16   H23   S    
C14   C18   A    
C43   H50   S    
C39   H39   S    
C13   O8    S    
C35   H28   S    
C28   H15   S    
C24   H3    S    
C46   H54   S    
C5    C52   A    
C25   H6    S    
C6    C51   A    
C3    O15   A    
C45   N1    A    
C14   H1    S    
C34   O2    S    
C39   O6    S    
Cu2   N1    S    
C15   H12   S    
C2    C6    A    
C40   H42   S    
C42   H48   S    
C2    H63   S    
C43   H49   S    
C52   H62   S    
C10   C21   A    
C34   N2    A    
C12   O9    A    
C3    O12   A    
C28   H13   S    
C24   C25   S    
C39   C40   S    
C9    C14   A    
C35   H29   S    
C23   C50   A    
C22   H2    S    
C45   C52   A    
C36   H32   S    
Cu1   Cu2   S    
Cu2   O13   S    
C38   H37   S    
C11   C21   A    
C9    O5    S    
C22   O16   S    
C11   O7    S    
C26   H9    S    
C39   H40   S    
C37   C38   S    
C27   H11   S    
C2    C49   A    
C11   C16   A    
C9    C20   A    
C31   H21   S    
C47   C48   S    
C17   C18   A    
C26   C27   S    
C41   H46   S    
Cu1   O12   S    
C25   H7    S    
C42   O7    S    
C48   H61   S    
C40   C41   S    
C51   H56   S    
C43   C44   S    
C22   C24   S    
C5    C50   A    
C42   C43   S    
C40   H41   S    
C42   H47   S    
C4    O14   A    
C29   H16   S    
C44   H53   S    
C30   H19   S    
Cu2   O9    S    
C46   C47   S    
C13   C20   A    
C37   H33   S    
Cu1   O14   S    
C31   H20   S    
C30   H18   S    
C35   H30   S    
C33   H26   S    
C1    C18   S    
C44   H52   S    
C36   H31   S    
C25   H5    S    
C38   H36   S    
C37   H35   S    
C32   C33   S    
C26   H8    S    
Cu1   O1    S    
C32   H25   S    
C49   O4    S    
C31   H22   S    
C5    C6    S    
C16   C19   A    
C1    O11   A    
Cu2   O15   S    
C29   O3    S    
C12   C19   S    
C33   C35   S    
C41   H43   S    
C1    O1    A    
C27   H10   S    
C32   H24   S    
C13   C17   A    
C20   C21   S    
C24   H4    S    
C46   H55   S    
C27   C28   S    
C41   H44   S    
C4    O13   A    
Cu1   O10   S    
C26   O2    S    
C10   O6    S    
C33   H27   S    
C48   H59   S    
C29   H17   S    
