data_mof_unit_4738.cif
_audit_creation_date              2012-12-10T19:09:33-0500
_audit_creation_method            fapswitch 2.2
_symmetry_space_group_name_H-M    P1
_symmetry_Int_Tables_number       1
_space_group_crystal_system       triclinic
_cell_length_a                    15.357015
_cell_length_b                    15.266513
_cell_length_c                    9.867378
_cell_angle_alpha                 89.216494
_cell_angle_beta                  90.417162
_cell_angle_gamma                 90.170487
_cell_volume                      2313.10054246

loop_
_atom_site_label
_atom_site_type_symbol
_atom_type_description
_atom_site_fract_x
_atom_site_fract_y
_atom_site_fract_z
_atom_type_partial_charge
C1    C     C_R   0.120120 0.378094 0.500523 0.968687
C2    C     C_R   0.118819 0.622991 0.499922 0.935426
C3    C     C_R   0.617855 0.876040 0.500679 0.921245
C4    C     C_R   0.621548 0.120347 0.499953 0.898361
C5    C     C_3   0.908986 0.502489 0.078461 -0.643376
C6    C     C_3   0.908647 0.500956 0.918339 -0.577061
C7    C     C_3   0.409188 0.993091 0.078177 -0.649836
C8    C     C_3   0.408853 0.995738 0.918208 -0.540269
C9    C     C_R   0.879823 0.378130 0.499964 1.068369
C10   C     C_R   0.877108 0.619150 0.498878 0.987104
C11   C     C_R   0.377679 0.880335 0.500084 1.014023
C12   C     C_R   0.377121 0.119122 0.499342 0.918352
C13   C     C_3   0.723627 0.349678 0.542864 0.389485
C14   C     C_3   0.833627 0.238363 0.609475 0.323330
C15   C     C_3   0.847669 0.776716 0.521815 0.331778
C16   C     C_3   0.743803 0.667415 0.618055 0.402107
C17   C     C_3   0.243953 0.827996 0.620207 0.350417
C18   C     C_3   0.349836 0.722216 0.529562 0.334872
C19   C     C_3   0.345443 0.273690 0.447671 0.293020
C20   C     C_3   0.277091 0.202970 0.647893 0.393183
C21   C     C_3   0.168975 0.760022 0.616667 -0.251156
C22   C     C_3   0.277847 0.651012 0.531710 -0.235460
C23   C     C_3   0.275766 0.346259 0.452144 -0.242196
C24   C     C_3   0.199082 0.266486 0.647001 -0.239996
C25   C     C_3   0.650028 0.279662 0.536732 -0.276937
C26   C     C_3   0.761728 0.167335 0.611109 -0.219270
C27   C     C_3   0.776932 0.848284 0.514358 -0.256902
C28   C     C_3   0.672013 0.738915 0.622529 -0.253025
C29   C     C_3   0.804325 0.266068 0.352684 0.038337
C30   C     C_3   0.751618 0.683915 0.357791 0.049739
C31   C     C_3   0.258128 0.813680 0.357006 0.073016
C32   C     C_3   0.223550 0.155377 0.411876 0.012986
C33   C     C_3   0.812096 0.309151 0.498766 -0.261625
C34   C     C_3   0.806353 0.685196 0.496248 -0.251180
C35   C     C_3   0.308153 0.813222 0.499315 -0.244129
C36   C     C_3   0.306609 0.185348 0.498684 -0.220933
C37   C     C_3   0.185915 0.692827 0.499871 -0.276215
C38   C     C_3   0.186026 0.307052 0.499900 -0.294139
C39   C     C_3   0.690296 0.188517 0.499403 -0.278403
C40   C     C_3   0.684071 0.805223 0.499924 -0.286292
C41   C     C_3   0.185480 0.742637 0.360351 1.055740
C42   C     C_3   0.157413 0.232563 0.402333 1.140289
C43   C     C_3   0.731119 0.195780 0.355066 1.112026
C44   C     C_3   0.677636 0.752658 0.365729 1.127000
C45   C     C_3   0.043033 0.420122 0.085194 0.699554
C46   C     C_3   0.041637 0.419084 0.922569 0.617612
C47   C     C_3   0.045188 0.579084 0.916578 0.677237
C48   C     C_3   0.046568 0.578293 0.078620 0.687774
C49   C     C_3   0.550617 0.924949 0.083842 0.691009
C50   C     C_3   0.546455 0.921801 0.921341 0.618316
C51   C     C_3   0.540643 0.081883 0.917464 0.669959
C52   C     C_3   0.538862 0.082767 0.079492 0.672964
H1    H     H_    0.729467 0.371863 0.649659 0.114020
H2    H     H_    0.834475 0.269513 0.710953 0.101864
H3    H     H_    0.876782 0.776957 0.625594 0.089109
H4    H     H_    0.781025 0.670639 0.715200 0.083845
H5    H     H_    0.280105 0.817863 0.717511 0.111279
H6    H     H_    0.381051 0.723123 0.631811 0.077647
H7    H     H_    0.399095 0.293138 0.517493 0.060444
H8    H     H_    0.331578 0.234270 0.704791 0.076736
H9    H     H_    0.171739 0.723435 0.715024 0.225799
H10   H     H_    0.275666 0.623879 0.637169 0.197064
H11   H     H_    0.296678 0.393518 0.531243 0.143602
H12   H     H_    0.216374 0.320500 0.716904 0.244587
H13   H     H_    0.620498 0.273859 0.639467 0.139884
H14   H     H_    0.729600 0.171382 0.711698 0.235591
H15   H     H_    0.778893 0.883081 0.612715 0.187762
H16   H     H_    0.682185 0.776144 0.717670 0.218390
H17   H     H_    0.868085 0.449017 0.118465 0.245765
H18   H     H_    0.869772 0.444739 0.882026 0.223918
H19   H     H_    0.869598 0.555784 0.876586 0.232739
H20   H     H_    0.873733 0.560382 0.113218 0.206062
H21   H     H_    0.375207 0.933768 0.114371 0.241408
H22   H     H_    0.372115 0.939229 0.877781 0.242631
H23   H     H_    0.368223 0.050521 0.880821 0.281575
H24   H     H_    0.366814 0.045191 0.115247 0.226143
N1    N     N_3   0.998760 0.500000 0.138610 -0.209613
N2    N     N_3   0.998760 0.500000 0.861390 -0.188589
N3    N     N_3   0.498760 0.000000 0.138610 -0.207624
N4    N     N_3   0.498760 1.000000 0.861390 -0.190477
O1    O     O_R   0.092530 0.407440 0.616040 -0.604615
O2    O     O_R   0.092530 0.407440 0.383960 -0.495121
O3    O     O_R   0.092530 0.592560 0.383960 -0.539235
O4    O     O_R   0.092530 0.592560 0.616040 -0.608430
O5    O     O_R   0.592530 0.907440 0.616040 -0.605066
O6    O     O_R   0.592530 0.907440 0.383960 -0.501318
O7    O     O_R   0.592530 0.092560 0.383960 -0.523255
O8    O     O_R   0.592530 0.092560 0.616040 -0.610485
O9    O     O_R   0.907330 0.407420 0.616040 -0.688588
O10   O     O_R   0.907330 0.407420 0.383960 -0.584585
O11   O     O_R   0.907330 0.592580 0.383960 -0.679943
O12   O     O_R   0.907330 0.592580 0.616040 -0.669045
O13   O     O_R   0.407330 0.907420 0.616040 -0.674278
O14   O     O_R   0.407330 0.907420 0.383960 -0.581685
O15   O     O_R   0.407330 0.092580 0.383960 -0.652619
O16   O     O_R   0.407330 0.092580 0.616040 -0.613411
Zn1   Zn    Zn3+2 0.999890 0.500000 0.654960 0.983526
Zn2   Zn    Zn3+2 0.999890 0.500000 0.345040 1.044031
Zn3   Zn    Zn3+2 0.499890 1.000000 0.654960 0.989505
Zn4   Zn    Zn3+2 0.499890 0.000000 0.345040 1.047704
F1    F     F_    0.703308 0.424351 0.468144 -0.617280
F2    F     F_    0.916065 0.203463 0.595025 -0.634956
F3    F     F_    0.915879 0.795069 0.434551 -0.645925
F4    F     F_    0.709804 0.583219 0.613010 -0.594718
F5    F     F_    0.213455 0.912632 0.626629 -0.639993
F6    F     F_    0.416514 0.703019 0.440953 -0.624956
F7    F     F_    0.383174 0.267061 0.321247 -0.692958
F8    F     F_    0.258581 0.125886 0.718689 -0.610693
N5    N     N_3   0.082940 0.802280 0.611913 -0.333360
H25   H     H_    0.035258 0.756828 0.586113 0.223637
H26   H     H_    0.079822 0.852637 0.539917 0.309483
N6    N     N_3   0.300665 0.577419 0.445599 -0.360567
H27   H     H_    0.251034 0.531081 0.451957 0.202768
H28   H     H_    0.306951 0.596866 0.344584 0.301170
N7    N     N_3   0.270666 0.395187 0.322647 -0.290852
H29   H     H_    0.328682 0.430460 0.311049 0.233873
H30   H     H_    0.268539 0.353312 0.240107 0.345650
N8    N     N_3   0.120386 0.223526 0.702166 -0.298634
H31   H     H_    0.064931 0.251217 0.659619 0.265022
H32   H     H_    0.115719 0.157944 0.675119 0.318113
N9    N     N_3   0.581388 0.307526 0.441472 -0.299055
H33   H     H_    0.550932 0.362809 0.480670 0.250141
H34   H     H_    0.533583 0.259014 0.438426 0.206454
N10   N     N_3   0.799269 0.079302 0.605086 -0.316202
H35   H     H_    0.750011 0.032503 0.614599 0.222542
H36   H     H_    0.831815 0.070215 0.514239 0.270245
N11   N     N_3   0.797721 0.913635 0.408132 -0.325639
H37   H     H_    0.747189 0.958425 0.395399 0.259189
H38   H     H_    0.809188 0.884384 0.315032 0.337213
N12   N     N_3   0.584616 0.699272 0.631976 -0.346948
H39   H     H_    0.536955 0.745530 0.608968 0.216225
H40   H     H_    0.576283 0.648271 0.563707 0.341513
N13   N     N_3   0.783672 0.333761 0.248607 -0.411821
H41   H     H_    0.721948 0.360563 0.261370 0.291929
H42   H     H_    0.783485 0.305993 0.152200 0.207831
N14   N     N_3   0.888208 0.226077 0.315463 -0.335340
H43   H     H_    0.884495 0.204234 0.215542 0.221550
H44   H     H_    0.901208 0.169784 0.372707 0.298216
N15   N     N_3   0.804316 0.709079 0.238708 -0.399423
H45   H     H_    0.789531 0.672514 0.152887 0.176477
H46   H     H_    0.870425 0.713643 0.256397 0.269481
N16   N     N_3   0.713401 0.596131 0.336977 -0.300891
H47   H     H_    0.762298 0.550914 0.316869 0.234444
H48   H     H_    0.674043 0.596970 0.249933 0.226924
N17   N     N_3   0.220805 0.901000 0.330210 -0.451274
H49   H     H_    0.168428 0.912187 0.393536 0.241842
H50   H     H_    0.195379 0.904389 0.231625 0.231961
N18   N     N_3   0.318871 0.795710 0.245130 -0.389429
H51   H     H_    0.286991 0.803661 0.151665 0.206967
H52   H     H_    0.341708 0.731555 0.246856 0.284768
N19   N     N_3   0.244444 0.127789 0.273208 -0.396823
H53   H     H_    0.269753 0.064531 0.273910 0.197973
H54   H     H_    0.287660 0.170469 0.225236 0.281656
N20   N     N_3   0.181683 0.081338 0.481580 -0.355337
H55   H     H_    0.228335 0.032629 0.493040 0.265239
H56   H     H_    0.131671 0.056395 0.420590 0.248153
F9    F     F_    0.103987 0.778622 0.335498 -0.670210
F10   F     F_    0.198579 0.685057 0.256320 -0.619349
F11   F     F_    0.152955 0.263668 0.270535 -0.636209
F12   F     F_    0.073638 0.204544 0.432265 -0.671108
F13   F     F_    0.666937 0.218740 0.261598 -0.611614
F14   F     F_    0.761770 0.114918 0.314729 -0.657081
F15   F     F_    0.684581 0.808762 0.255564 -0.622613
F16   F     F_    0.596029 0.714248 0.354189 -0.651365
N21   N     N_3   0.005920 0.340626 0.147634 -0.327616
H57   H     H_    0.037625 0.285679 0.110004 0.263648
H58   H     H_    0.940470 0.333124 0.124192 0.118706
N22   N     N_3   0.000928 0.337878 0.874054 -0.446913
H59   H     H_    0.994388 0.341949 0.770609 0.262185
H60   H     H_    0.938232 0.327290 0.910067 0.109138
N23   N     N_3   0.007725 0.662203 0.863899 -0.433850
H61   H     H_    0.013119 0.667678 0.760420 0.236376
H62   H     H_    0.941623 0.669747 0.882073 0.121498
N24   N     N_3   0.013509 0.662099 0.129204 -0.341333
H63   H     H_    0.007937 0.661233 0.233146 0.288531
H64   H     H_    0.951565 0.675937 0.092753 0.099506
N25   N     N_3   0.524084 0.841783 0.148759 -0.304231
H65   H     H_    0.560877 0.790830 0.108922 0.259577
H66   H     H_    0.459556 0.825917 0.130053 0.139308
N26   N     N_3   0.508591 0.838131 0.875992 -0.477821
H67   H     H_    0.502172 0.838243 0.771831 0.244025
H68   H     H_    0.446676 0.825777 0.914144 0.107872
N27   N     N_3   0.501027 0.163248 0.862474 -0.450214
H69   H     H_    0.511286 0.172120 0.759606 0.229180
H70   H     H_    0.434562 0.168711 0.879739 0.149397
N28   N     N_3   0.495875 0.162670 0.127767 -0.374747
H71   H     H_    0.503628 0.169233 0.231537 0.304591
H72   H     H_    0.429740 0.165855 0.104876 0.158956
F17   F     F_    0.129620 0.420145 0.125905 -0.520327
F18   F     F_    0.127296 0.416305 0.879235 -0.547512
F19   F     F_    0.130940 0.578120 0.872889 -0.553375
F20   F     F_    0.132849 0.574487 0.118698 -0.482230
F21   F     F_    0.637375 0.936134 0.119593 -0.476341
F22   F     F_    0.631351 0.922661 0.873976 -0.544036
F23   F     F_    0.627182 0.084322 0.877833 -0.547577
F24   F     F_    0.624440 0.089415 0.123198 -0.459964

loop_
_geom_bond_atom_site_label_1
_geom_bond_atom_site_label_2
_ccdc_geom_bond_type
C16   C28   S    
C29   N13   S    
N23   H61   S    
N21   H57   S    
C31   N17   S    
C3    O5    A    
N15   H46   S    
C2    O4    A    
C42   F11   S    
C52   F24   S    
C13   C25   S    
C14   C33   S    
N6    H28   S    
N17   H49   S    
C7    C8    S    
C7    H21   S    
C4    O7    A    
C45   C46   S    
N23   H62   S    
C45   N21   S    
C26   N10   S    
C37   C41   S    
O4    Zn1   S    
C32   C36   S    
C7    N3    S    
C28   H16   S    
N18   H52   S    
C38   C42   S    
C5    H20   S    
C51   N27   S    
C19   C36   S    
N5    H26   S    
C5    C6    S    
C28   N12   S    
C26   C39   S    
C14   F2    S    
C28   C40   S    
C1    O1    A    
N7    H29   S    
O16   Zn3   S    
C29   C33   S    
C6    N2    S    
C49   N25   S    
N24   H63   S    
C5    H17   S    
C16   C34   S    
N8    H31   S    
C27   N11   S    
C16   F4    S    
C20   C24   S    
N25   H66   S    
O3    Zn2   S    
C24   C38   S    
N19   H53   S    
C12   O15   A    
C44   F15   S    
C12   C36   S    
C52   N3    S    
O6    Zn4   S    
C18   C35   S    
O13   Zn3   S    
C15   C34   S    
N20   H56   S    
C11   O13   A    
N22   H60   S    
C10   O12   A    
C24   H12   S    
C29   C43   S    
C3    O6    A    
C9    C33   S    
C47   N23   S    
O2    Zn2   S    
C30   C44   S    
C2    O3    A    
C52   N28   S    
N11   H38   S    
C46   F18   S    
N6    H27   S    
N17   H50   S    
N26   H68   S    
O12   Zn1   S    
C48   N24   S    
C6    H19   S    
C23   H11   S    
N9    H34   S    
C30   C34   S    
C51   C52   S    
C26   H14   S    
N3    Zn4   S    
C25   H13   S    
N18   H51   S    
N14   H44   S    
C9    O9    A    
C46   N2    S    
O15   Zn4   S    
C39   C43   S    
N7    H30   S    
C1    O2    A    
C22   C37   S    
C8    H23   S    
C17   C21   S    
C49   N3    S    
C13   F1    S    
O9    Zn1   S    
C15   H3    S    
C48   N1    S    
N12   H40   S    
N27   H69   S    
C16   H4    S    
C13   H1    S    
C13   C33   S    
O5    Zn3   S    
C17   F5    S    
C22   H10   S    
C15   C27   S    
C47   C48   S    
C4    C39   S    
O14   Zn4   S    
C27   C40   S    
N2    Zn1   S    
C8    H22   S    
N9    H33   S    
N1    Zn2   S    
C10   C34   S    
C14   C26   S    
N20   H55   S    
C46   N22   S    
C1    C38   S    
C41   F9    S    
C31   N18   S    
C43   F13   S    
C11   O14   A    
C45   F17   S    
N22   H59   S    
C14   H2    S    
C3    C40   S    
N25   H65   S    
C22   N6    S    
N4    Zn3   S    
N13   H41   S    
C31   C35   S    
C20   H8    S    
C32   N20   S    
C5    N1    S    
N11   H37   S    
N26   H67   S    
C19   C23   S    
N10   H36   S    
O7    Zn4   S    
C6    H18   S    
C30   N15   S    
C31   C41   S    
C18   C22   S    
C21   H9    S    
C42   F12   S    
N14   H43   S    
C50   N4    S    
C9    O10   A    
C10   O11   A    
C21   N5    S    
N15   H45   S    
C7    H24   S    
C4    O8    A    
C23   C38   S    
C44   F16   S    
C24   N8    S    
C30   N16   S    
C19   H7    S    
N27   H70   S    
N12   H39   S    
C51   F23   S    
N5    H25   S    
C25   C39   S    
C50   F22   S    
C2    C37   S    
C32   N19   S    
C49   F21   S    
C18   F6    S    
C51   N4    S    
C11   C35   S    
O1    Zn1   S    
N24   H64   S    
C18   H6    S    
N16   H48   S    
N19   H54   S    
O11   Zn2   S    
C47   F19   S    
N28   H72   S    
N8    H32   S    
C48   F20   S    
O8    Zn3   S    
C27   H15   S    
C23   N7    S    
C41   F10   S    
C20   C36   S    
C43   F14   S    
C50   N26   S    
C40   C44   S    
C29   N14   S    
C21   C37   S    
N21   H58   S    
C49   C50   S    
C8    N4    S    
N13   H42   S    
C32   C42   S    
N16   H47   S    
C12   O16   A    
C45   N1    S    
C17   C35   S    
C47   N2    S    
C15   F3    S    
N28   H71   S    
C25   N9    S    
O10   Zn2   S    
C17   H5    S    
N10   H35   S    
C20   F8    S    
C19   F7    S    
