data_mof_unit_4169.cif
_audit_creation_date              2012-12-10T18:01:43-0500
_audit_creation_method            fapswitch 2.2
_symmetry_space_group_name_H-M    P1
_symmetry_Int_Tables_number       1
_space_group_crystal_system       triclinic
_cell_length_a                    10.836236
_cell_length_b                    9.654576
_cell_length_c                    19.384642
_cell_angle_alpha                 89.891652
_cell_angle_beta                  96.362519
_cell_angle_gamma                 90.025496
_cell_volume                      2015.51206511

loop_
_atom_site_label
_atom_site_type_symbol
_atom_type_description
_atom_site_fract_x
_atom_site_fract_y
_atom_site_fract_z
_atom_type_partial_charge
C1    C     C_R   0.263794 0.499816 0.506630 0.848510
C2    C     C_R   0.736193 0.499897 0.493363 0.849902
C3    C     C_R   0.499024 0.467150 0.930134 0.479777
C4    C     C_R   0.499013 0.468119 0.069714 0.507071
C5    C     C_R   0.504383 0.500016 0.367681 0.840806
C6    C     C_R   0.495971 0.499790 0.632369 0.837640
C7    C     C_R   0.063422 0.373310 0.510235 0.193971
C8    C     C_R   0.936524 0.625003 0.489439 0.192484
C9    C     C_R   0.936413 0.373374 0.489756 0.195548
C10   C     C_R   0.063540 0.624918 0.510507 0.193044
C11   C     C_R   0.870304 0.499336 0.486891 -0.247270
C12   C     C_R   0.129655 0.499218 0.513071 -0.247687
C13   C     C_R   0.428027 0.074929 0.449336 0.288023
C14   C     C_R   0.581624 0.926525 0.546186 0.273487
C15   C     C_R   0.571735 0.074553 0.550730 0.290346
C16   C     C_R   0.418363 0.926796 0.453797 0.274515
C17   C     C_R   0.453641 0.602128 0.248064 0.133131
C18   C     C_R   0.426974 0.387100 0.738553 0.165334
C19   C     C_R   0.543252 0.603152 0.752045 0.134956
C20   C     C_R   0.577479 0.391392 0.261539 0.133970
C21   C     C_R   0.438883 0.584657 0.175413 0.166311
C22   C     C_R   0.431994 0.374916 0.811322 0.161046
C23   C     C_R   0.556052 0.586556 0.824805 0.179272
C24   C     C_R   0.572929 0.380719 0.188564 0.169489
C25   C     C_R   0.499617 0.474456 0.145717 -0.095393
C26   C     C_R   0.499083 0.473236 0.854362 -0.103886
C27   C     C_R   0.511721 0.497995 0.291370 -0.173286
C28   C     C_R   0.488976 0.496979 0.708742 -0.193522
Cu1   Cu    Cu3+1 0.500000 0.640660 0.500000 0.978352
Cu2   Cu    Cu3+1 0.500000 0.359340 0.500000 1.005397
N1    N     N_R   0.500000 0.852070 0.500000 -0.228951
N2    N     N_R   0.500000 0.147930 0.500000 -0.198156
N3    N     N_R   0.390664 0.473232 0.027467 -0.232067
N4    N     N_R   0.607384 0.461320 0.972305 -0.230472
N5    N     N_R   0.390639 0.473006 0.958858 -0.256631
N6    N     N_R   0.607418 0.461852 0.040921 -0.214745
O1    O     O_R   0.319640 0.618740 0.500000 -0.561233
O2    O     O_R   0.680360 0.381260 0.500000 -0.549183
O3    O     O_R   0.680360 0.618740 0.500000 -0.561418
O4    O     O_R   0.319640 0.381260 0.500000 -0.549473
O5    O     O_R   0.499980 0.618820 0.400140 -0.577159
O6    O     O_R   0.500020 0.381180 0.599860 -0.528077
O7    O     O_R   0.500020 0.618820 0.599860 -0.575106
O8    O     O_R   0.499980 0.381180 0.400140 -0.526685
Br1   Br    Br    0.134242 0.204654 0.551119 -0.502026
Br2   Br    Br    0.864781 0.791035 0.446134 -0.488456
Br3   Br    Br    0.865284 0.204736 0.449202 -0.499959
Br4   Br    Br    0.135381 0.790617 0.553848 -0.490146
N7    N     N_2   0.425358 0.731411 0.277340 -0.420340
H1    H     H_    0.345071 0.778930 0.255850 0.256434
C29   C     C_3   0.530999 0.824152 0.285793 -0.621863
H2    H     H_    0.546835 0.871056 0.235188 0.188967
H3    H     H_    0.616651 0.769122 0.307751 0.263632
H4    H     H_    0.513670 0.906519 0.322670 0.220048
N8    N     N_2   0.343012 0.303492 0.694825 -0.382432
H5    H     H_    0.251331 0.332890 0.693633 0.267479
C30   C     C_3   0.362657 0.155439 0.696862 -0.498133
H6    H     H_    0.288159 0.103530 0.722357 0.228326
H7    H     H_    0.453748 0.128761 0.725481 0.193907
H8    H     H_    0.360252 0.115993 0.643064 0.250950
N9    N     N_2   0.570100 0.732873 0.722472 -0.419842
H9    H     H_    0.648971 0.782397 0.744448 0.255530
C31   C     C_3   0.462969 0.823190 0.712236 -0.621436
H10   H     H_    0.445965 0.872646 0.761985 0.192964
H11   H     H_    0.378306 0.765530 0.691061 0.264098
H12   H     H_    0.479377 0.903646 0.673956 0.220283
N10   N     N_2   0.659706 0.306224 0.305550 -0.390653
H13   H     H_    0.752139 0.332170 0.306178 0.262453
C32   C     C_3   0.635263 0.158894 0.304414 -0.550584
H14   H     H_    0.711847 0.102369 0.283139 0.213985
H15   H     H_    0.546674 0.134104 0.272378 0.202382
H16   H     H_    0.629948 0.122195 0.358210 0.263867
N11   N     N_2   0.372531 0.684386 0.131436 -0.415000
H17   H     H_    0.397642 0.785745 0.142022 0.253361
C33   C     C_3   0.239312 0.664380 0.122417 -0.650607
H18   H     H_    0.199333 0.682760 0.171913 0.203144
H19   H     H_    0.215802 0.557443 0.104457 0.249546
H20   H     H_    0.196511 0.738218 0.082794 0.230140
N12   N     N_2   0.365655 0.265319 0.840067 -0.414301
H21   H     H_    0.294426 0.297586 0.867253 0.270845
C34   C     C_3   0.440962 0.156279 0.874608 -0.689913
H22   H     H_    0.519794 0.129180 0.845107 0.222451
H23   H     H_    0.382916 0.062411 0.878392 0.229201
H24   H     H_    0.477753 0.188260 0.927905 0.229769
N13   N     N_2   0.617286 0.689219 0.868997 -0.416125
H25   H     H_    0.589684 0.789465 0.857319 0.252678
C35   C     C_3   0.750924 0.674385 0.880324 -0.654350
H26   H     H_    0.793089 0.694103 0.831582 0.203575
H27   H     H_    0.776883 0.568526 0.899158 0.252183
H28   H     H_    0.789406 0.750018 0.920113 0.229833
N14   N     N_2   0.644295 0.278060 0.157905 -0.406259
H29   H     H_    0.729331 0.252480 0.183949 0.263996
C36   C     C_3   0.576342 0.163596 0.123440 -0.672579
H30   H     H_    0.600271 0.065641 0.151904 0.207230
H31   H     H_    0.602677 0.153556 0.069966 0.242156
H32   H     H_    0.474142 0.178958 0.120314 0.220806
N15   N     N_2   0.382356 0.142273 0.385590 -0.393414
H33   H     H_    0.392549 0.085070 0.341905 0.228319
C37   C     C_3   0.264210 0.214207 0.379263 -0.537042
H34   H     H_    0.203070 0.175763 0.333561 0.177247
H35   H     H_    0.277980 0.326080 0.370122 0.216558
H36   H     H_    0.215286 0.199879 0.425303 0.266778
N16   N     N_2   0.670127 0.856424 0.594532 -0.439306
H37   H     H_    0.663197 0.752092 0.599090 0.321021
C38   C     C_3   0.799018 0.899042 0.601210 -0.570072
H38   H     H_    0.859821 0.807660 0.596844 0.252631
H39   H     H_    0.824610 0.942764 0.653610 0.212052
H40   H     H_    0.818000 0.973862 0.560341 0.294139
N17   N     N_2   0.616779 0.141178 0.614636 -0.392962
H41   H     H_    0.606960 0.082613 0.658057 0.227377
C39   C     C_3   0.734846 0.213418 0.621177 -0.537332
H42   H     H_    0.795811 0.174764 0.666966 0.177976
H43   H     H_    0.720933 0.325173 0.630300 0.216946
H44   H     H_    0.784092 0.199692 0.575224 0.266366
N18   N     N_2   0.329994 0.856892 0.405430 -0.438823
H45   H     H_    0.337107 0.752607 0.400955 0.321470
C40   C     C_3   0.201046 0.899213 0.398665 -0.571227
H46   H     H_    0.140351 0.807629 0.402983 0.252207
H47   H     H_    0.175521 0.943293 0.346255 0.211768
H48   H     H_    0.181867 0.973641 0.439521 0.294130

loop_
_geom_bond_atom_site_label_1
_geom_bond_atom_site_label_2
_ccdc_geom_bond_type
C35   H26   S    
C4    N6    A    
C36   H30   S    
N11   H17   S    
C15   N17   S    
C13   N2    A    
C39   H42   S    
C14   N1    A    
N8    H5    S    
C31   H11   S    
N15   H33   S    
C30   H6    S    
C15   N2    A    
N13   H25   S    
C16   N1    A    
C38   H39   S    
C7    Br1   S    
C22   N12   S    
C40   H47   S    
C30   H7    S    
N18   H45   S    
C21   N11   S    
Cu2   O2    S    
N9    C31   S    
C23   C26   A    
C32   H15   S    
C5    O5    A    
C20   N10   S    
C1    O4    A    
C34   H23   S    
C5    C27   S    
C2    O3    A    
C6    C28   S    
C20   C24   A    
N18   C40   S    
C1    O1    A    
C31   H12   S    
C36   H31   S    
Cu1   O7    S    
N11   C33   S    
Cu2   O8    S    
N9    H9    S    
C1    C12   S    
C2    C11   S    
N15   C37   S    
C4    C25   S    
N13   C35   S    
C7    C12   A    
C38   H40   S    
N10   H13   S    
C17   C27   A    
C18   C28   A    
C24   C25   A    
C39   H43   S    
C40   H48   S    
C17   N7    S    
N14   H29   S    
N12   C34   S    
C30   H8    S    
C3    N4    A    
N7    C29   S    
C16   N18   S    
C34   H22   S    
C29   H2    S    
N10   C32   S    
C32   H16   S    
C19   C23   A    
C33   H18   S    
Cu1   Cu2   S    
N14   C36   S    
C9    C11   A    
C2    O2    A    
C37   H34   S    
C3    N5    A    
Cu1   O3    S    
Cu2   O4    S    
N16   C38   S    
C19   C28   A    
C33   H19   S    
C10   C12   A    
C18   N8    S    
C37   H35   S    
C5    O8    A    
C9    Br3   S    
C36   H32   S    
C6    O7    A    
N8    C30   S    
C10   Br4   S    
C13   C16   A    
C24   N14   S    
C34   H24   S    
C7    C9    A    
C21   C25   A    
C4    N3    A    
Cu1   O5    S    
C18   C22   A    
C3    C26   S    
C31   H10   S    
C20   C27   A    
C38   H38   S    
C29   H4    S    
C35   H27   S    
C23   N13   S    
Cu1   N1    S    
C40   H46   S    
Cu2   N2    S    
C14   N16   S    
C19   N9    S    
C8    C11   A    
N17   C39   S    
N3    N5    A    
C39   H44   S    
N4    N6    A    
C13   N15   S    
C32   H14   S    
C33   H20   S    
C8    Br2   S    
C22   C26   A    
N12   H21   S    
C37   H36   S    
C8    C10   A    
N7    H1    S    
C6    O6    A    
C35   H28   S    
Cu1   O1    S    
N16   H37   S    
C14   C15   A    
Cu2   O6    S    
C29   H3    S    
N17   H41   S    
C17   C21   A    
