data_mof_unit_4602.cif
_audit_creation_date              2012-12-10T17:07:46-0500
_audit_creation_method            fapswitch 2.2
_symmetry_space_group_name_H-M    P1
_symmetry_Int_Tables_number       1
_space_group_crystal_system       triclinic
_cell_length_a                    10.676444
_cell_length_b                    10.697743
_cell_length_c                    10.058602
_cell_angle_alpha                 89.818115
_cell_angle_beta                  90.181988
_cell_angle_gamma                 90.262351
_cell_volume                      1148.80812673

loop_
_atom_site_label
_atom_site_type_symbol
_atom_type_description
_atom_site_fract_x
_atom_site_fract_y
_atom_site_fract_z
_atom_type_partial_charge
C1    C     C_R   0.490200 0.263087 0.500100 0.897861
C2    C     C_3   0.878397 0.500708 0.502599 -0.210427
C3    C     C_3   0.929491 0.618867 0.428350 0.198332
C4    C     C_3   0.923752 0.381344 0.428690 -0.604132
C5    C     C_2   0.438900 0.929870 0.408240 -0.297453
C6    C     C_2   0.512874 0.870040 0.495442 0.269800
C7    C     C_2   0.445190 0.064695 0.392581 0.493527
C8    C     C_2   0.461054 0.132786 0.502648 -0.244887
C9    C     C_2   0.546909 0.588420 0.928343 0.473947
C10   C     C_2   0.520716 0.598150 0.074234 -0.142003
C11   C     C_R   0.258045 0.496803 0.500043 0.959927
C12   C     C_R   0.502904 0.737219 0.499525 0.834116
C13   C     C_R   0.742022 0.500547 0.500631 0.938928
C14   C     C_3   0.072424 0.487197 0.648292 0.172660
C15   C     C_3   0.928626 0.492797 0.649110 0.208767
C16   C     C_3   0.074603 0.619460 0.434941 0.142726
C17   C     C_3   0.068980 0.380721 0.417767 0.773000
C18   C     C_3   0.121577 0.494922 0.500711 -0.282972
H1    H     H_    0.109493 0.568672 0.704422 0.192374
H2    H     H_    0.880036 0.374729 0.328330 0.216435
H3    H     H_    0.109168 0.623826 0.330921 0.169565
H4    H     H_    0.902479 0.611577 0.321127 0.105782
H5    H     H_    0.375003 0.878448 0.343740 0.160734
H6    H     H_    0.452598 0.090318 0.600641 0.184415
H7    H     H_    0.527225 0.689193 0.120940 0.180101
H8    H     H_    0.518827 0.415720 0.105611 0.234815
H9    H     H_    0.890800 0.405039 0.693533 0.172132
H10   H     H_    0.890743 0.296754 0.483459 0.224217
N1    N     N_2   0.501360 0.501330 0.852150 0.007427
N2    N     N_2   0.501390 0.501360 0.147810 -0.172164
O1    O     O_R   0.499980 0.319060 0.613040 -0.593286
O2    O     O_R   0.500020 0.319100 0.386900 -0.550426
O3    O     O_R   0.314770 0.499960 0.613070 -0.546101
O4    O     O_R   0.314820 0.500000 0.386930 -0.586312
O5    O     O_R   0.499980 0.680900 0.613100 -0.571863
O6    O     O_R   0.500020 0.680940 0.386960 -0.649786
O7    O     O_R   0.685180 0.500000 0.613070 -0.550635
O8    O     O_R   0.685230 0.500040 0.386930 -0.649602
Zn1   Zn    Zn3+2 0.499970 0.499970 0.650990 1.120932
Zn2   Zn    Zn3+2 0.500030 0.500030 0.349010 1.023179
O9    O     O_3   0.604920 0.931311 0.567981 -0.750003
H11   H     H_    0.654163 0.868451 0.618210 0.387358
O10   O     O_3   0.435732 0.119347 0.268149 -0.700710
H12   H     H_    0.426653 0.051966 0.201248 0.350185
Cl1   Cl    Cl    0.645571 0.703383 0.860671 -0.539723
Cl2   Cl    Cl    0.370563 0.418022 0.905517 -0.439711
O11   O     O_3   0.118066 0.381366 0.717326 -0.652338
H13   H     H_    0.066156 0.307145 0.695833 0.372781
O12   O     O_3   0.884812 0.589790 0.731228 -0.661154
H14   H     H_    0.925816 0.669207 0.705613 0.377450
O13   O     O_3   0.125407 0.727157 0.495828 -0.711299
H15   H     H_    0.087204 0.738023 0.584299 0.367302
O14   O     O_3   0.879488 0.730279 0.479669 -0.704040
H16   H     H_    0.797345 0.743919 0.435559 0.343007
O15   O     O_3   0.106542 0.387669 0.282896 -0.699357
H17   H     H_    0.052767 0.447642 0.234006 0.316284
O16   O     O_3   0.112968 0.266613 0.469737 -0.718142
H18   H     H_    0.202544 0.258575 0.445247 0.358461

loop_
_geom_bond_atom_site_label_1
_geom_bond_atom_site_label_2
_ccdc_geom_bond_type
C2    C4    S    
O10   H12   S    
C11   C18   S    
C9    Cl1   S    
C16   H3    S    
C11   O3    A    
C7    O10   S    
C12   O6    A    
C1    C8    S    
C9    C10   S    
C14   C18   S    
C15   H9    S    
O11   H13   S    
C5    H5    S    
C16   O13   S    
C9    N1    D    
N1    Cl2   S    
O15   H17   S    
N1    Zn1   S    
O2    Zn2   S    
C2    C3    S    
C13   O8    A    
N2    Zn2   S    
C7    C8    D    
O7    Zn1   S    
O14   H16   S    
C12   O5    A    
O8    Zn2   S    
C2    C15   S    
C3    O14   S    
O16   H18   S    
O3    Zn1   S    
O4    Zn2   S    
C4    C17   S    
C10   H7    S    
C16   C18   S    
C4    H10   S    
O1    Zn1   S    
H8    N2    S    
C15   O12   S    
C6    C12   S    
C5    C6    D    
C10   N2    D    
C1    O2    A    
O13   H15   S    
C4    H2    S    
C1    O1    A    
C17   C18   S    
O12   H14   S    
O9    H11   S    
C17   O16   S    
C5    C7    S    
C2    C13   S    
C17   O15   S    
C14   C15   S    
O6    Zn2   S    
C8    H6    S    
C14   O11   S    
C13   O7    A    
C14   H1    S    
C11   O4    A    
C3    C16   S    
O5    Zn1   S    
C3    H4    S    
C6    O9    S    
