data_mof_unit_637.cif
_audit_creation_date              2012-12-10T17:22:07-0500
_audit_creation_method            fapswitch 2.2
_symmetry_space_group_name_H-M    P1
_symmetry_Int_Tables_number       1
_space_group_crystal_system       triclinic
_cell_length_a                    10.141595
_cell_length_b                    10.791153
_cell_length_c                    15.730771
_cell_angle_alpha                 90.957305
_cell_angle_beta                  79.834082
_cell_angle_gamma                 96.012192
_cell_volume                      1685.21709621

loop_
_atom_site_label
_atom_site_type_symbol
_atom_type_description
_atom_site_fract_x
_atom_site_fract_y
_atom_site_fract_z
_atom_type_partial_charge
C1    C     C_R   0.556744 0.732898 0.491732 0.942043
C2    C     C_3   0.409814 0.598441 0.065765 -0.122946
C3    C     C_3   0.534729 0.526180 0.079278 0.113783
C4    C     C_3   0.503992 0.385156 0.049425 -0.176417
C5    C     C_3   0.474947 0.378648 0.952694 0.293194
C6    C     C_1   0.527984 0.521791 0.172188 -0.077104
C7    C     C_1   0.497942 0.515543 0.825452 -0.067694
C8    C     C_1   0.495860 0.507292 0.750536 -0.247958
C9    C     C_2   0.589439 0.865157 0.478478 -0.384820
C10   C     C_2   0.489414 0.932975 0.470957 -0.148600
C11   C     C_2   0.411515 0.134292 0.495937 -0.386467
C12   C     C_R   0.498253 0.500043 0.661781 0.919069
C13   C     C_2   0.513014 0.065726 0.469229 -0.154619
C14   C     C_2   0.918909 0.505665 0.517024 -0.084303
C15   C     C_2   0.054396 0.468181 0.532186 0.167499
C16   C     C_R   0.443446 0.266986 0.502986 0.940359
C17   C     C_R   0.502586 0.501931 0.338008 0.907741
C18   C     C_3   0.402167 0.604952 0.967015 -0.143462
C19   C     C_3   0.664663 0.581599 0.923664 0.257016
C20   C     C_3   0.674506 0.593443 0.026727 0.310104
C21   C     C_1   0.513477 0.513158 0.248509 -0.236032
C22   C     C_3   0.511482 0.521590 0.915396 0.127548
H1    H     H_    0.302717 0.557300 0.960993 0.171352
H2    H     H_    0.319976 0.534847 0.094313 0.146173
H3    H     H_    0.616846 0.106763 0.452128 0.184175
H4    H     H_    0.386419 0.891418 0.472807 0.184349
H5    H     H_    0.307998 0.092710 0.513354 0.146791
H6    H     H_    0.692167 0.907178 0.476620 0.145542
H7    H     H_    0.881403 0.584056 0.554334 0.130779
H8    H     H_    0.140597 0.640764 0.521264 0.141369
H9    H     H_    0.406254 0.356042 0.092280 0.176222
N1    N     N_2   0.842720 0.448890 0.465540 -0.083455
N2    N     N_2   0.157250 0.551040 0.534500 -0.192364
O1    O     O_R   0.431050 0.692470 0.506940 -0.617332
O2    O     O_R   0.651130 0.659650 0.484820 -0.617774
O3    O     O_R   0.389910 0.516410 0.633920 -0.606187
O4    O     O_R   0.609990 0.483590 0.611800 -0.611721
O5    O     O_R   0.348870 0.340350 0.515180 -0.611999
O6    O     O_R   0.568950 0.307530 0.493060 -0.621122
O7    O     O_R   0.390010 0.516410 0.388200 -0.602027
O8    O     O_R   0.610090 0.483590 0.366080 -0.639127
Zn1   Zn    Zn3+2 0.353060 0.521920 0.514770 0.928139
Zn2   Zn    Zn3+2 0.646940 0.478080 0.485230 0.921237
C23   C     C_3   0.387165 0.721890 0.120080 -0.388468
C24   C     C_3   0.240836 0.727257 0.165764 -0.384276
C25   C     C_3   0.224109 0.848454 0.216201 -0.885649
H10   H     H_    0.289369 0.856781 0.266232 0.264621
H11   H     H_    0.250932 0.929841 0.171893 0.257607
H12   H     H_    0.117632 0.849088 0.248606 0.252238
H13   H     H_    0.172763 0.721083 0.117595 0.227043
H14   H     H_    0.211065 0.647906 0.211637 0.234026
H15   H     H_    0.449569 0.732065 0.171287 0.225369
H16   H     H_    0.416305 0.807277 0.080907 0.202189
C26   C     C_3   0.592038 0.287674 0.078880 -0.409819
C27   C     C_3   0.513855 0.157906 0.097739 -0.359042
C28   C     C_3   0.601620 0.066868 0.127911 -0.909461
H17   H     H_    0.689733 0.053906 0.076767 0.262255
H18   H     H_    0.637017 0.101755 0.187624 0.269358
H19   H     H_    0.541932 0.975359 0.142687 0.252244
H20   H     H_    0.424648 0.164985 0.149328 0.218492
H21   H     H_    0.477818 0.119659 0.039230 0.229941
H22   H     H_    0.685341 0.276849 0.033181 0.189301
H23   H     H_    0.626484 0.318665 0.139562 0.222707
C29   C     C_3   0.062285 0.336274 0.558553 -0.805689
H24   H     H_    0.960057 0.289523 0.582800 0.202040
H25   H     H_    0.110478 0.282658 0.502988 0.232216
H26   H     H_    0.119502 0.335475 0.612536 0.251888
C30   C     C_3   0.375019 0.734556 0.932959 -0.428257
C31   C     C_3   0.338878 0.733945 0.841744 -0.317386
C32   C     C_3   0.250382 0.836558 0.830640 -0.936025
H27   H     H_    0.150800 0.818162 0.873212 0.259029
H28   H     H_    0.298030 0.928499 0.847466 0.270195
H29   H     H_    0.234766 0.838975 0.762593 0.260974
H30   H     H_    0.432718 0.748642 0.793038 0.225776
H31   H     H_    0.282010 0.643866 0.828998 0.233853
H32   H     H_    0.284756 0.762275 0.977073 0.220082
H33   H     H_    0.452535 0.811824 0.938451 0.189456
C33   C     C_3   0.889569 0.340789 0.416641 -0.227545
C34   C     C_3   0.826664 0.319151 0.335597 -0.307279
C35   C     C_3   0.894421 0.221097 0.277223 -0.996980
H34   H     H_    0.003415 0.251123 0.256526 0.270840
H35   H     H_    0.882135 0.130496 0.311724 0.269013
H36   H     H_    0.847348 0.208379 0.218711 0.264011
H37   H     H_    0.718361 0.286040 0.353009 0.250354
H38   H     H_    0.837929 0.407815 0.299600 0.241067
H39   H     H_    0.000523 0.355127 0.394541 0.180886
H40   H     H_    0.863185 0.256146 0.457889 0.170711
C36   C     C_3   0.769935 0.497077 0.873360 -0.980979
H41   H     H_    0.875938 0.534531 0.871916 0.232853
H42   H     H_    0.765451 0.404676 0.902037 0.217023
H43   H     H_    0.759954 0.487569 0.804326 0.252592
C37   C     C_3   0.701897 0.710738 0.871941 -0.315110
C38   C     C_3   0.852522 0.762426 0.849820 -0.361724
C39   C     C_3   0.869504 0.900722 0.826456 -0.933936
H44   H     H_    0.818991 0.915970 0.770904 0.265867
H45   H     H_    0.825984 0.956276 0.882606 0.261457
H46   H     H_    0.978184 0.933411 0.808074 0.261176
H47   H     H_    0.906091 0.749950 0.903941 0.218428
H48   H     H_    0.902972 0.712150 0.792969 0.228693
H49   H     H_    0.667580 0.702546 0.808809 0.189325
H50   H     H_    0.649047 0.785390 0.904237 0.195568
C40   C     C_3   0.693380 0.731994 0.057616 -0.910223
H51   H     H_    0.678402 0.737860 0.129023 0.232269
H52   H     H_    0.796105 0.777528 0.034334 0.236292
H53   H     H_    0.624391 0.792133 0.037268 0.224519
C41   C     C_3   0.806716 0.538901 0.045420 -0.372165
C42   C     C_3   0.845884 0.550373 0.135731 -0.347680
C43   C     C_3   0.978222 0.493600 0.135147 -0.970580
H54   H     H_    0.964087 0.391544 0.124170 0.276052
H55   H     H_    0.058080 0.535140 0.083012 0.254075
H56   H     H_    0.012090 0.510518 0.198000 0.258562
H57   H     H_    0.860227 0.649287 0.155604 0.233355
H58   H     H_    0.769278 0.498854 0.184254 0.238804
H59   H     H_    0.809912 0.441223 0.027262 0.193830
H60   H     H_    0.893818 0.589237 0.002634 0.199351
C44   C     C_3   0.319658 0.334346 0.959866 -0.958633
H61   H     H_    0.252566 0.379559 0.011545 0.204708
H62   H     H_    0.284211 0.347876 0.898140 0.246575
H63   H     H_    0.296608 0.235496 0.979989 0.238175
C45   C     C_3   0.551230 0.277696 0.889795 -0.336384
C46   C     C_3   0.469388 0.167851 0.851454 -0.375574
C47   C     C_3   0.561714 0.091660 0.788329 -0.921802
H64   H     H_    0.620240 0.151592 0.735085 0.269032
H65   H     H_    0.632162 0.048849 0.822757 0.264510
H66   H     H_    0.500963 0.016201 0.759430 0.265750
H67   H     H_    0.415477 0.103584 0.903332 0.215665
H68   H     H_    0.396078 0.203045 0.815436 0.239669
H69   H     H_    0.609267 0.323697 0.831137 0.214381
H70   H     H_    0.625810 0.233851 0.918267 0.191378

loop_
_geom_bond_atom_site_label_1
_geom_bond_atom_site_label_2
_ccdc_geom_bond_type
C33   H40   S    
C27   C28   S    
C38   C39   S    
C2    C18   S    
C42   H57   S    
O3    Zn1   S    
C19   C20   S    
O1    Zn1   S    
C3    C6    S    
C44   H63   S    
C7    C8    T    
C24   C25   S    
C44   H61   S    
C25   H12   S    
C1    O2    A    
C41   H59   S    
N2    Zn1   S    
C46   H68   S    
C31   C32   S    
C34   H37   S    
C20   C40   S    
C26   H23   S    
C24   H14   S    
C18   C30   S    
C43   H54   S    
C40   H53   S    
C12   O4    A    
C42   H58   S    
C19   C37   S    
C26   C27   S    
C23   H16   S    
C5    C22   S    
C44   H62   S    
C30   C31   S    
C15   C29   S    
C32   H27   S    
C12   O3    A    
O2    Zn2   S    
C9    C10   D    
C38   H48   S    
C23   H15   S    
O7    Zn1   S    
C27   H20   S    
O8    Zn2   S    
C13   H3    S    
C40   H51   S    
C35   H36   S    
C1    O1    A    
C20   C41   S    
C25   H11   S    
C5    C45   S    
C18   H1    S    
C29   H26   S    
C31   H30   S    
C19   C22   S    
C1    C9    S    
C35   H35   S    
C19   C36   S    
C2    C23   S    
C33   C34   S    
C35   H34   S    
O6    Zn2   S    
C26   H22   S    
C39   H46   S    
C6    C21   T    
C17   C21   S    
C45   H70   S    
C17   O7    A    
C29   H25   S    
O4    Zn2   S    
C39   H45   S    
C11   C16   S    
C36   H43   S    
C11   H5    S    
C8    C12   S    
C32   H29   S    
C3    C20   S    
C43   H56   S    
C40   H52   S    
C46   C47   S    
C37   H50   S    
C36   H42   S    
C5    C44   S    
C2    H2    S    
C28   H17   S    
C42   C43   S    
C47   H65   S    
C3    C4    S    
C34   H38   S    
C45   C46   S    
C37   H49   S    
C30   H33   S    
C25   H10   S    
H8    N2    S    
C4    C26   S    
C18   C22   S    
C23   C24   S    
C14   N1    D    
C4    C5    S    
C10   C13   S    
C45   H69   S    
O5    Zn1   S    
C30   H32   S    
C7    C22   S    
C28   H19   S    
C41   H60   S    
C29   H24   S    
C47   H66   S    
C2    C3    S    
C46   H67   S    
C11   C13   D    
C10   H4    S    
C43   H55   S    
C24   H13   S    
C27   H21   S    
C37   C38   S    
N1    Zn2   S    
C28   H18   S    
C31   H31   S    
C39   H44   S    
C17   O8    A    
C4    H9    S    
C16   O6    A    
N1    C33   S    
C34   C35   S    
C36   H41   S    
C33   H39   S    
C41   C42   S    
C14   C15   S    
C32   H28   S    
C14   H7    S    
C47   H64   S    
C38   H47   S    
C15   N2    D    
C9    H6    S    
C16   O5    A    
