data_mof_unit_537.cif
_audit_creation_date              2012-12-10T18:21:21-0500
_audit_creation_method            fapswitch 2.2
_symmetry_space_group_name_H-M    P1
_symmetry_Int_Tables_number       1
_space_group_crystal_system       triclinic
_cell_length_a                    14.974835
_cell_length_b                    14.003486
_cell_length_c                    10.626123
_cell_angle_alpha                 89.858305
_cell_angle_beta                  90.125129
_cell_angle_gamma                 90.357227
_cell_volume                      2228.24148553

loop_
_atom_site_label
_atom_site_type_symbol
_atom_type_description
_atom_site_fract_x
_atom_site_fract_y
_atom_site_fract_z
_atom_type_partial_charge
C1    C     C_R   0.326819 0.499689 0.499685 0.888760
C2    C     C_R   0.051835 0.633859 0.650539 -0.246841
C3    C     C_R   0.095634 0.566352 0.577387 0.141712
C4    C     C_R   0.500767 0.500263 0.257480 0.835915
C5    C     C_R   0.047160 0.496855 0.508814 0.070420
C6    C     C_R   0.092086 0.425719 0.438102 0.019332
C7    C     C_R   0.042570 0.355626 0.370948 -0.015711
C8    C     C_R   0.949447 0.360066 0.372924 -0.200146
C9    C     C_R   0.187681 0.567097 0.572802 -0.260412
C10   C     C_R   0.231521 0.498760 0.502123 -0.053537
C11   C     C_R   0.185190 0.428629 0.435572 -0.273089
C12   C     C_3   0.584053 0.446120 0.928303 -0.398757
C13   C     C_R   0.562019 0.797114 0.429293 -0.035541
C14   C     C_R   0.562967 0.203990 0.431012 -0.058351
C15   C     C_R   0.439263 0.798458 0.569518 -0.055494
C16   C     C_R   0.438861 0.200474 0.568835 -0.063295
C17   C     C_R   0.439012 0.898775 0.569764 0.042274
C18   C     C_R   0.438717 0.100147 0.569289 0.040743
C19   C     C_R   0.673270 0.500380 0.503916 0.868854
C20   C     C_R   0.503056 0.949453 0.497587 0.049117
C21   C     C_R   0.503097 0.050609 0.497706 0.050474
C22   C     C_R   0.565948 0.898682 0.425440 -0.044889
C23   C     C_R   0.813789 0.431994 0.442975 -0.254920
C24   C     C_R   0.567287 0.102532 0.427947 -0.049019
C25   C     C_R   0.375944 0.948995 0.640571 -0.205322
C26   C     C_R   0.375690 0.048805 0.640147 -0.205502
C27   C     C_R   0.633371 0.052437 0.358029 0.077047
C28   C     C_R   0.630520 0.950047 0.352773 0.080676
C29   C     C_R   0.500814 0.500123 0.742548 0.820551
C30   C     C_3   0.505309 0.605236 0.071151 -0.392946
C31   C     C_3   0.414960 0.452105 0.072112 -0.400267
C32   C     C_3   0.505294 0.605134 0.928283 -0.387613
C33   C     C_3   0.414992 0.451980 0.927750 -0.398674
C34   C     C_R   0.769041 0.501161 0.511663 -0.145849
C35   C     C_3   0.584029 0.446192 0.072804 -0.405253
C36   C     C_3   0.501308 0.500949 0.121240 0.179686
C37   C     C_3   0.501334 0.500762 0.878853 0.178864
C38   C     C_2   0.085019 0.275934 0.300712 0.389758
C39   C     C_3   0.708510 0.108512 0.294178 -0.419012
C40   C     C_3   0.679125 0.147040 0.165139 -0.365650
C41   C     C_3   0.748569 0.215856 0.110970 -0.857449
C42   C     C_3   0.694506 0.895333 0.268113 -0.460543
C43   C     C_3   0.774392 0.856963 0.343391 -0.312572
C44   C     C_3   0.831933 0.791386 0.263297 -0.846475
C45   C     C_R   0.815166 0.570303 0.583592 -0.067826
C46   C     C_2   0.764244 0.639127 0.661939 0.395025
C47   C     C_R   0.909088 0.569329 0.583140 0.088562
C48   C     C_R   0.953958 0.499019 0.511074 0.035297
C49   C     C_R   0.905765 0.430350 0.441966 0.071884
C50   C     C_R   0.959541 0.634683 0.654909 -0.180463
H1    H     H_    0.566816 0.641973 0.105775 0.171235
H2    H     H_    0.390191 0.239509 0.623260 0.131675
H3    H     H_    0.326583 0.910981 0.696171 0.138529
H4    H     H_    0.326165 0.085936 0.695468 0.142840
H5    H     H_    0.446693 0.646425 0.105026 0.181706
H6    H     H_    0.355127 0.490663 0.106970 0.159510
H7    H     H_    0.446668 0.646299 0.893726 0.175607
H8    H     H_    0.355179 0.490493 0.892107 0.157363
H9    H     H_    0.566795 0.641852 0.893786 0.179763
H10   H     H_    0.410532 0.377032 0.893426 0.178764
H11   H     H_    0.646472 0.480444 0.108220 0.158106
H12   H     H_    0.410453 0.377203 0.107051 0.180308
H13   H     H_    0.583105 0.371145 0.107663 0.182585
H14   H     H_    0.646471 0.480435 0.893073 0.148652
H15   H     H_    0.583183 0.371038 0.894068 0.184182
H16   H     H_    0.776422 0.379873 0.388221 0.146912
H17   H     H_    0.929074 0.686875 0.715526 0.197261
H18   H     H_    0.153172 0.254732 0.319020 0.058590
H19   H     H_    0.756838 0.278744 0.173562 0.247999
H20   H     H_    0.813853 0.179522 0.100504 0.284309
H21   H     H_    0.726205 0.241252 0.017031 0.248862
H22   H     H_    0.669380 0.086709 0.098743 0.224890
H23   H     H_    0.089111 0.685950 0.705125 0.149553
H24   H     H_    0.614513 0.185092 0.172761 0.217272
H25   H     H_    0.731422 0.167574 0.356118 0.193122
H26   H     H_    0.769767 0.065435 0.283390 0.210160
H27   H     H_    0.792223 0.728658 0.231343 0.254590
H28   H     H_    0.858038 0.830599 0.180021 0.261635
H29   H     H_    0.889262 0.765420 0.320063 0.263136
H30   H     H_    0.816078 0.917531 0.377459 0.225222
H31   H     H_    0.751097 0.816328 0.427042 0.264264
H32   H     H_    0.658415 0.836431 0.219703 0.190451
H33   H     H_    0.718897 0.939402 0.188509 0.209748
H34   H     H_    0.225515 0.620056 0.625423 0.140640
H35   H     H_    0.709911 0.613516 0.720755 0.054057
H36   H     H_    0.223251 0.379071 0.379869 0.136402
H37   H     H_    0.910305 0.307237 0.322101 0.183045
H38   H     H_    0.608330 0.753636 0.377613 0.148354
H39   H     H_    0.608611 0.248207 0.378030 0.147893
H40   H     H_    0.390967 0.758580 0.624620 0.123604
N1    N     N_R   0.500070 0.750030 0.500050 -0.105022
N2    N     N_R   0.500070 0.249970 0.500050 -0.105415
O1    O     O_R   0.367860 0.580280 0.500020 -0.622961
O2    O     O_2   0.778998 0.724841 0.655785 -0.596660
O3    O     O_R   0.367860 0.419720 0.500020 -0.624144
O4    O     O_R   0.500000 0.580270 0.314790 -0.630437
O5    O     O_R   0.500000 0.419730 0.314790 -0.630670
O6    O     O_R   0.632160 0.580270 0.499960 -0.618632
O7    O     O_R   0.632160 0.419730 0.499960 -0.622290
O8    O     O_R   0.500030 0.580270 0.685200 -0.633116
O9    O     O_R   0.500030 0.419730 0.685200 -0.624376
O10   O     O_2   0.043026 0.230973 0.221687 -0.576617
Zn1   Zn    Zn3+2 0.500020 0.607200 0.499990 0.941431
Zn2   Zn    Zn3+2 0.500020 0.392800 0.499990 0.932580

loop_
_geom_bond_atom_site_label_1
_geom_bond_atom_site_label_2
_ccdc_geom_bond_type
C30   H1    S    
C4    C36   S    
C33   H8    S    
C18   C21   A    
C35   C36   S    
C18   C26   A    
C24   C27   A    
O1    Zn1   S    
C7    C8    A    
C45   C46   S    
C23   H16   S    
C44   H27   S    
C25   H3    S    
C5    C6    A    
C12   H14   S    
C23   C49   A    
C38   H18   S    
C11   H36   S    
O6    Zn1   S    
C17   C20   A    
C14   C24   A    
C12   C37   S    
C2    C50   A    
C4    O4    A    
C27   C39   S    
C42   H32   S    
C31   C33   S    
C39   H25   S    
C31   H6    S    
C9    C10   A    
C41   H21   S    
C46   H35   S    
O7    Zn2   S    
C22   C28   A    
C4    O5    A    
C13   N1    A    
C31   H12   S    
C32   H7    S    
C26   H4    S    
C19   O6    A    
C47   C50   A    
C45   C47   A    
C5    C48   A    
C42   H33   S    
C6    C11   A    
C19   O7    A    
C43   H30   S    
C32   C37   S    
O8    Zn1   S    
C33   C37   S    
C43   C44   S    
C14   H39   S    
C3    C9    A    
C12   H15   S    
C47   C48   A    
C46   O2    D    
C1    O3    A    
C23   C34   A    
C29   O9    A    
C35   H11   S    
C34   C45   A    
C39   H26   S    
C12   C35   S    
C14   N2    A    
C2    H23   S    
C16   C18   A    
C40   C41   S    
C20   C22   A    
C16   N2    A    
O9    Zn2   S    
C43   H31   S    
C21   C24   A    
C42   C43   S    
C39   C40   S    
O3    Zn2   S    
C41   H19   S    
C50   H17   S    
C15   C17   A    
C48   C49   A    
C40   H22   S    
C29   O8    A    
C44   H29   S    
C1    C10   S    
C16   H2    S    
N1    Zn1   S    
C3    C5    A    
C19   C34   S    
C6    C7    A    
C33   H10   S    
C30   H5    S    
C30   C36   S    
C8    H37   S    
C17   C25   A    
C44   H28   S    
C2    C3    A    
C25   C26   A    
C38   O10   D    
C15   H40   S    
C30   C32   S    
C13   H38   S    
C28   C42   S    
C7    C38   S    
C40   H24   S    
C13   C22   A    
O5    Zn2   S    
C10   C11   A    
N2    Zn2   S    
C9    H34   S    
C15   N1    A    
C20   C21   A    
C1    O1    A    
O4    Zn1   S    
C29   C37   S    
C27   C28   A    
C31   C36   S    
C35   H13   S    
C32   H9    S    
C8    C49   A    
C41   H20   S    
