data_mof_unit_2647.cif
_audit_creation_date              2012-10-26T21:12:34-0400
_audit_creation_method            fapswitch 2.2
_symmetry_space_group_name_H-M    P1
_symmetry_Int_Tables_number       1
_space_group_crystal_system       triclinic
_cell_length_a                    23.492927
_cell_length_b                    10.848974
_cell_length_c                    9.59975
_cell_angle_alpha                 91.224871
_cell_angle_beta                  90.797347
_cell_angle_gamma                 93.521245
_cell_volume                      2441.26660603

loop_
_atom_site_label
_atom_site_type_symbol
_atom_type_description
_atom_site_fract_x
_atom_site_fract_y
_atom_site_fract_z
_atom_type_partial_charge
C1    C     C_R   0.505221 0.263739 0.499495 0.542914
C2    C     C_R   0.120596 0.550514 0.388070 0.429649
C3    C     C_R   0.240622 0.550524 0.604798 -0.088135
C4    C     C_R   0.391097 0.499069 0.499147 0.554476
C5    C     C_R   0.299918 0.551742 0.606975 -0.156986
C6    C     C_R   0.328607 0.496931 0.497142 -0.017936
C7    C     C_R   0.297267 0.438682 0.386250 -0.136904
C8    C     C_R   0.237478 0.432737 0.385817 0.189717
C9    C     C_R   0.208899 0.491386 0.495000 0.257335
C10   C     C_R   0.756789 0.396410 0.480878 0.178927
C11   C     C_R   0.697509 0.397106 0.481506 -0.147598
C12   C     C_R   0.967680 0.402318 0.718626 -0.097909
C13   C     C_R   0.670805 0.507191 0.501952 -0.056820
C14   C     C_R   0.703144 0.620339 0.523575 -0.011185
C15   C     C_R   0.763624 0.620845 0.520418 0.043988
C16   C     C_R   0.498196 0.737986 0.502376 0.531482
C17   C     C_R   0.790039 0.507983 0.500572 0.213757
C18   C     C_R   0.549693 0.132908 0.744422 -0.052478
C19   C     C_R   0.548536 0.079191 0.876441 0.149500
C20   C     C_R   0.520769 0.962578 0.888593 -0.122095
C21   C     C_R   0.500694 0.895566 0.770555 -0.131846
C22   C     C_R   0.507517 0.943847 0.635370 0.020023
C23   C     C_R   0.026690 0.396911 0.716561 -0.106827
C24   C     C_R   0.523795 0.070369 0.626440 0.001321
C25   C     C_R   0.512388 0.130859 0.500443 -0.007000
C26   C     C_R   0.499800 0.061645 0.378432 -0.165560
C27   C     C_R   0.495135 0.934303 0.381652 -0.162046
C28   C     C_R   0.608606 0.501289 0.500741 0.515821
C29   C     C_R   0.498144 0.873353 0.508698 0.002266
C30   C     C_R   0.576837 0.664950 0.150191 -0.086741
C31   C     C_R   0.614619 0.744595 0.080744 -0.171762
C32   C     C_R   0.614781 0.743594 0.937172 -0.147177
C33   C     C_R   0.576988 0.663295 0.862096 -0.081790
C34   C     C_R   0.058029 0.446291 0.605308 0.033076
C35   C     C_R   0.537839 0.580410 0.928457 0.118361
C36   C     C_R   0.537733 0.580913 0.077956 0.129542
C37   C     C_R   0.464297 0.419942 0.068635 0.263351
C38   C     C_R   0.464287 0.423350 0.920703 0.045464
C39   C     C_R   0.879929 0.551923 0.385043 0.361680
C40   C     C_R   0.879250 0.460058 0.609065 0.430124
C41   C     C_R   0.938606 0.455651 0.608532 0.037305
C42   C     C_R   0.969392 0.505738 0.495525 -0.036375
C43   C     C_R   0.940357 0.559250 0.383561 -0.008933
C44   C     C_2   0.672751 0.734636 0.552102 0.255686
C45   C     C_R   0.029421 0.501740 0.495132 -0.032688
C46   C     C_2   0.800514 0.736958 0.533421 0.325983
C47   C     C_3   0.612004 0.246690 0.987575 -0.285467
C48   C     C_3   0.415557 0.211127 0.070750 -0.344438
C49   C     C_2   0.947679 0.686272 0.161579 0.281673
C50   C     C_3   0.181117 0.249065 0.311272 -0.280900
C51   C     C_3   0.797185 0.254991 0.318517 -0.264193
C52   C     C_R   0.060879 0.553206 0.385059 -0.002820
C53   C     C_R   0.032454 0.608696 0.276037 -0.092534
C54   C     C_R   0.972929 0.614344 0.274239 0.002354
C55   C     C_R   0.117543 0.441671 0.601553 0.384152
Cu1   Cu    Cu3+1 0.500000 0.499990 0.640660 0.900759
Cu2   Cu    Cu3+1 0.500000 0.500010 0.359340 0.925874
H1    H     H_    0.944877 0.363571 0.806378 0.176307
H2    H     H_    0.643874 0.807934 0.139089 0.141665
H3    H     H_    0.643886 0.806786 0.883466 0.185392
H4    H     H_    0.579523 0.671461 0.752367 0.192052
H5    H     H_    0.434887 0.363600 0.859036 0.136932
H6    H     H_    0.056925 0.651126 0.192903 0.201475
H7    H     H_    0.219142 0.596209 0.688622 0.150690
H8    H     H_    0.323424 0.597652 0.693173 0.138225
H9    H     H_    0.319186 0.394499 0.302025 0.126153
H10   H     H_    0.630684 0.744620 0.507223 0.082562
H11   H     H_    0.841384 0.737256 0.587579 0.110457
H12   H     H_    0.672008 0.311036 0.465689 0.113395
H13   H     H_    0.577072 0.088281 0.084352 0.248955
H14   H     H_    0.626762 0.279492 0.093183 0.153971
H15   H     H_    0.649443 0.218697 0.927827 0.159729
H16   H     H_    0.592205 0.324812 0.936818 0.165232
H17   H     H_    0.422602 0.334236 0.238122 0.309333
H18   H     H_    0.392061 0.149442 0.144188 0.137144
H19   H     H_    0.457010 0.171903 0.048067 0.174722
H20   H     H_    0.389138 0.212922 0.974271 0.150634
H21   H     H_    0.911646 0.741475 0.181502 0.171683
H22   H     H_    0.228296 0.365524 0.182844 0.260719
H23   H     H_    0.492901 0.105888 0.280192 0.142933
H24   H     H_    0.156128 0.208218 0.220792 0.158731
H25   H     H_    0.151761 0.257257 0.400097 0.180750
H26   H     H_    0.214977 0.186296 0.338968 0.139215
H27   H     H_    0.761292 0.209049 0.506979 0.272391
H28   H     H_    0.819340 0.167530 0.313503 0.169170
H29   H     H_    0.826088 0.329413 0.276435 0.199452
H30   H     H_    0.757730 0.243911 0.252985 0.139812
H31   H     H_    0.571409 0.222524 0.732849 0.143380
H32   H     H_    0.515298 0.922233 0.990191 0.109153
H33   H     H_    0.477418 0.809219 0.789869 0.158406
H34   H     H_    0.487546 0.883649 0.283988 0.137333
H35   H     H_    0.047651 0.354376 0.802772 0.172797
H36   H     H_    0.580380 0.673639 0.260322 0.179491
N1    N     N_R   0.851275 0.506671 0.498211 -0.397656
N2    N     N_R   0.147667 0.493688 0.494167 -0.387623
N3    N     N_R   0.500540 0.501210 0.147910 -0.238671
N4    N     N_R   0.500560 0.501290 0.852040 -0.280301
N5    N     N_2   0.570682 0.142969 0.999577 -0.536171
N6    N     N_2   0.424445 0.334160 0.132386 -0.521477
N7    N     N_2   0.206394 0.368861 0.275142 -0.473171
N8    N     N_2   0.783135 0.282797 0.461499 -0.477093
O1    O     O_R   0.500000 0.319640 0.618810 -0.512060
O2    O     O_R   0.582120 0.500020 0.618760 -0.519019
O3    O     O_R   0.582120 0.500050 0.381190 -0.513603
O4    O     O_2   0.849498 0.586009 0.273825 -0.505616
O5    O     O_2   0.692985 0.816165 0.630845 -0.484070
O6    O     O_2   0.787279 0.831198 0.477263 -0.456857
O7    O     O_2   0.968220 0.687650 0.045383 -0.494427
O8    O     O_2   0.849486 0.417528 0.719235 -0.471304
O9    O     O_2   0.145081 0.384793 0.703886 -0.504007
O10   O     O_2   0.151430 0.605610 0.286629 -0.475475
O11   O     O_R   0.500000 0.319660 0.381240 -0.510231
O12   O     O_R   0.417880 0.499950 0.618810 -0.497178
O13   O     O_R   0.417880 0.499980 0.381240 -0.505798
O14   O     O_R   0.500000 0.680340 0.618760 -0.534546
O15   O     O_R   0.500000 0.680360 0.381190 -0.523497

loop_
_geom_bond_atom_site_label_1
_geom_bond_atom_site_label_2
_ccdc_geom_bond_type
C22   C29   A    
C27   C29   A    
C11   C13   A    
C41   C42   A    
C48   H19   S    
C19   C20   A    
C51   H28   S    
C7    C8    A    
C53   C54   A    
Cu1   Cu2   S    
C12   C23   A    
C26   C27   A    
C12   C41   A    
C47   N5    S    
C18   C24   A    
C4    O13   A    
C2    N2    A    
C30   H36   S    
C1    O11   A    
C30   C31   A    
Cu2   O11   S    
C10   C17   A    
C49   C54   S    
C49   H21   S    
C15   C17   A    
C18   C19   A    
C31   H2    S    
Cu2   O3    S    
C36   N3    A    
C21   C22   A    
C35   C36   A    
C8    C9    A    
Cu2   N3    S    
Cu1   O12   S    
C13   C28   S    
C27   H34   S    
Cu2   O15   S    
C9    N2    S    
C12   H1    S    
C34   C55   A    
C13   C14   A    
C1    C25   S    
H27   N8    S    
C48   H18   S    
Cu1   N4    S    
C38   N4    A    
C16   O15   A    
C51   H29   S    
C19   N5    S    
C50   H26   S    
C49   O7    D    
C21   H33   S    
C2    O10   S    
H22   N7    S    
C24   C25   A    
C47   H16   S    
C55   N2    A    
C51   H30   S    
C39   C43   A    
C45   C52   A    
C16   C29   S    
C3    H7    S    
C18   H31   S    
C37   N3    A    
C42   C45   A    
C48   H20   S    
C39   N1    A    
C46   H11   S    
C37   C38   A    
C3    C9    A    
C28   O3    A    
C43   C54   A    
C31   C32   A    
C23   C34   A    
C46   O6    D    
C40   O8    S    
C34   C45   A    
C47   H14   S    
C6    C7    A    
C2    C52   A    
C5    H8    S    
C40   C41   A    
C55   O9    S    
C22   C24   A    
C4    C6    S    
C42   C43   A    
C32   H3    S    
C16   O14   A    
C37   N6    S    
C52   C53   A    
C50   H25   S    
C14   C44   S    
C39   O4    S    
C48   N6    S    
C23   H35   S    
C10   N8    S    
Cu1   O2    S    
C40   N1    A    
C3    C5    A    
C11   H12   S    
H17   N6    S    
C44   O5    D    
C51   N8    S    
C20   H32   S    
C50   N7    S    
C30   C36   A    
C32   C33   A    
C25   C26   A    
Cu1   O1    S    
C7    H9    S    
C53   H6    S    
C28   O2    A    
C5    C6    A    
Cu2   O13   S    
C33   C35   A    
Cu1   O14   S    
C8    N7    S    
C26   H23   S    
C47   H15   S    
C10   C11   A    
C4    O12   A    
C20   C21   A    
C33   H4    S    
C14   C15   A    
C44   H10   S    
C17   N1    S    
C15   C46   S    
C35   N4    A    
C1    O1    A    
H13   N5    S    
C50   H24   S    
C38   H5    S    
