data_mof_unit_519.cif
_audit_creation_date              2012-12-10T18:45:34-0500
_audit_creation_method            fapswitch 2.2
_symmetry_space_group_name_H-M    P1
_symmetry_Int_Tables_number       1
_space_group_crystal_system       triclinic
_cell_length_a                    19.458962
_cell_length_b                    18.064832
_cell_length_c                    10.843437
_cell_angle_alpha                 90.383458
_cell_angle_beta                  88.515041
_cell_angle_gamma                 90.137719
_cell_volume                      3810.34126028

loop_
_atom_site_label
_atom_site_type_symbol
_atom_type_description
_atom_site_fract_x
_atom_site_fract_y
_atom_site_fract_z
_atom_type_partial_charge
C1    C     C_R   0.367403 0.499916 0.498049 0.870734
C2    C     C_R   0.632750 0.500217 0.502925 0.873197
C3    C     C_R   0.708794 0.500363 0.509449 -0.386996
C4    C     C_R   0.291576 0.499231 0.496727 -0.400411
C5    C     C_R   0.964249 0.464865 0.617314 -0.135011
C6    C     C_R   0.037023 0.518421 0.410479 -0.171014
C7    C     C_R   0.035887 0.462502 0.613316 -0.199936
C8    C     C_R   0.965650 0.517815 0.412245 -0.214021
C9    C     C_R   0.072256 0.490551 0.510709 0.261295
C10   C     C_R   0.928784 0.493088 0.516873 0.228999
C11   C     C_R   0.455517 0.720382 0.427589 -0.036420
C12   C     C_R   0.538209 0.279444 0.582689 -0.013667
C13   C     C_R   0.544507 0.721167 0.572209 -0.042085
C14   C     C_R   0.462071 0.278897 0.416750 -0.043308
C15   C     C_R   0.455120 0.798477 0.423961 0.301861
C16   C     C_R   0.540647 0.201728 0.582401 0.278114
C17   C     C_R   0.546819 0.798985 0.571605 0.269728
C18   C     C_R   0.460373 0.201062 0.414936 0.282184
C19   C     C_R   0.500503 0.838461 0.498970 -0.099881
C20   C     C_R   0.500515 0.161201 0.498398 -0.106888
C21   C     C_R   0.489077 0.961260 0.608983 -0.132825
C22   C     C_R   0.512502 0.037985 0.388728 -0.155220
C23   C     C_R   0.512667 0.960365 0.388977 -0.175171
C24   C     C_R   0.488569 0.038925 0.608680 -0.160145
C25   C     C_R   0.500224 0.078297 0.498503 0.160759
C26   C     C_R   0.500746 0.921136 0.499002 0.213782
C27   C     C_R   0.508232 0.499608 0.261668 0.778421
C28   C     C_R   0.491140 0.500443 0.738029 0.779905
C29   C     C_R   0.543020 0.632730 0.112772 -0.151823
C30   C     C_R   0.455036 0.367651 0.886393 -0.154894
C31   C     C_R   0.478265 0.639616 0.889176 -0.148697
C32   C     C_R   0.522312 0.361042 0.108418 -0.158469
C33   C     C_R   0.535265 0.700690 0.055269 -0.173552
C34   C     C_R   0.465499 0.299453 0.941920 -0.135818
C35   C     C_R   0.499999 0.704517 0.946157 -0.145499
C36   C     C_R   0.501767 0.295944 0.050254 -0.149814
C37   C     C_R   0.492249 0.569141 0.939866 0.082944
C38   C     C_R   0.506322 0.431320 0.059194 0.083201
C39   C     C_R   0.516797 0.566669 0.060727 0.080440
C40   C     C_R   0.481038 0.433802 0.938777 0.074299
C41   C     C_R   0.482483 0.501737 0.874176 -0.246033
C42   C     C_R   0.515745 0.498639 0.125229 -0.241446
C43   C     C_R   0.742810 0.435808 0.548214 0.305163
C44   C     C_R   0.253253 0.559540 0.546244 0.307890
C45   C     C_R   0.256592 0.437556 0.446355 0.318710
C46   C     C_R   0.748152 0.565161 0.483643 0.287552
C47   C     C_R   0.814517 0.431946 0.541462 0.302851
C48   C     C_R   0.181227 0.557350 0.547138 0.333033
C49   C     C_R   0.184833 0.432591 0.459359 0.336408
C50   C     C_R   0.820155 0.564076 0.497747 0.329549
C51   C     C_R   0.853186 0.496310 0.518953 -0.229143
C52   C     C_R   0.147380 0.492737 0.508609 -0.265291
Cu1   Cu    Cu3+1 0.500000 0.573360 0.500000 0.941032
Cu2   Cu    Cu3+1 0.500000 0.426640 0.500000 0.940278
H1    H     H_    0.512988 0.242801 0.090585 0.156295
H2    H     H_    0.490549 0.757651 0.904266 0.145991
H3    H     H_    0.446821 0.249196 0.899254 0.145167
H4    H     H_    0.555524 0.750510 0.096804 0.125013
H5    H     H_    0.571356 0.632406 0.196497 0.157431
H6    H     H_    0.425352 0.368087 0.803464 0.152484
H7    H     H_    0.449099 0.646022 0.806981 0.162347
H8    H     H_    0.552870 0.355182 0.189487 0.158117
H9    H     H_    0.936577 0.445398 0.698785 0.162179
H10   H     H_    0.064853 0.540015 0.330687 0.128240
H11   H     H_    0.063002 0.440725 0.691096 0.129767
H12   H     H_    0.939218 0.536739 0.331922 0.125659
H13   H     H_    0.419487 0.688839 0.374035 0.162250
H14   H     H_    0.567562 0.310567 0.648317 0.176617
H15   H     H_    0.578903 0.690626 0.629798 0.176983
H16   H     H_    0.432598 0.309745 0.352231 0.176417
H17   H     H_    0.479538 0.932372 0.694963 0.148953
H18   H     H_    0.522909 0.066608 0.302813 0.162125
H19   H     H_    0.523032 0.930890 0.303320 0.130188
H20   H     H_    0.478438 0.068328 0.694555 0.163448
N1    N     N_R   0.500000 0.683620 0.500000 -0.222827
N2    N     N_R   0.500000 0.316380 0.500000 -0.224951
O1    O     O_R   0.400190 0.561980 0.499980 -0.549485
O2    O     O_R   0.599810 0.438020 0.500020 -0.552394
O3    O     O_R   0.599810 0.561980 0.500020 -0.548266
O4    O     O_R   0.400190 0.438020 0.499980 -0.550935
O5    O     O_R   0.500000 0.561950 0.319660 -0.592117
O6    O     O_R   0.500000 0.438050 0.680340 -0.592590
O7    O     O_R   0.500000 0.561950 0.680340 -0.589395
O8    O     O_R   0.500000 0.438050 0.319660 -0.592323
O9    O     O_3   0.707046 0.377186 0.600943 -0.552184
C53   C     C_3   0.695991 0.392520 0.728491 0.118725
H21   H     H_    0.644337 0.417669 0.743299 0.150107
H22   H     H_    0.734865 0.430998 0.768217 0.124946
C54   C     C_3   0.699157 0.321024 0.801416 -0.799321
H23   H     H_    0.749484 0.293497 0.783940 0.263004
H24   H     H_    0.693084 0.333400 0.901563 0.197226
H25   H     H_    0.657332 0.282985 0.774857 0.257732
O10   O     O_3   0.285316 0.623579 0.585476 -0.515351
C55   C     C_3   0.300568 0.616881 0.711680 0.111174
H26   H     H_    0.347329 0.582591 0.722324 0.129275
H27   H     H_    0.257905 0.591119 0.767058 0.085370
C56   C     C_3   0.313905 0.693667 0.764517 -0.786312
H28   H     H_    0.326560 0.689497 0.863502 0.187738
H29   H     H_    0.357505 0.720291 0.713492 0.250721
H30   H     H_    0.267463 0.728686 0.756197 0.250295
O11   O     O_3   0.291392 0.383068 0.379239 -0.547504
C57   C     C_3   0.304800 0.409757 0.258130 0.076373
H31   H     H_    0.350818 0.446367 0.256922 0.154048
H32   H     H_    0.260586 0.441478 0.221735 0.099022
C58   C     C_3   0.318495 0.345368 0.169303 -0.802453
H33   H     H_    0.276067 0.304356 0.174954 0.236522
H34   H     H_    0.322859 0.366410 0.073412 0.205173
H35   H     H_    0.367103 0.317176 0.190260 0.253816
O12   O     O_3   0.716347 0.631556 0.458461 -0.552743
C59   C     C_3   0.704833 0.635100 0.330329 0.096007
H36   H     H_    0.666365 0.593150 0.302254 0.135706
H37   H     H_    0.752661 0.625054 0.274471 0.095539
C60   C     C_3   0.678385 0.711844 0.299310 -0.854789
H38   H     H_    0.714731 0.755027 0.330723 0.229616
H39   H     H_    0.673224 0.716833 0.198010 0.205931
H40   H     H_    0.627472 0.721309 0.345090 0.243209
O13   O     O_3   0.846805 0.366567 0.570916 -0.553085
C61   C     C_3   0.853461 0.322923 0.462915 0.100744
H41   H     H_    0.881790 0.353332 0.388157 0.120683
H42   H     H_    0.801988 0.305916 0.429901 0.155665
C62   C     C_3   0.893933 0.253504 0.491434 -0.794148
H43   H     H_    0.866485 0.221093 0.564231 0.248865
H44   H     H_    0.899767 0.218728 0.406997 0.195106
H45   H     H_    0.945783 0.268861 0.523848 0.256987
O14   O     O_3   0.144284 0.621459 0.572193 -0.533344
C63   C     C_3   0.119896 0.622462 0.696222 0.088835
H46   H     H_    0.154659 0.657319 0.751753 0.158384
H47   H     H_    0.116426 0.566747 0.739769 0.100412
C64   C     C_3   0.048841 0.657578 0.702337 -0.764717
H48   H     H_    0.012457 0.624746 0.646751 0.271603
H49   H     H_    0.029427 0.659587 0.799495 0.192661
H50   H     H_    0.051421 0.714825 0.665748 0.250373
O15   O     O_3   0.151601 0.367101 0.430294 -0.541947
C65   C     C_3   0.129597 0.368425 0.307024 0.122597
H51   H     H_    0.167103 0.337728 0.247707 0.163954
H52   H     H_    0.124176 0.425112 0.268327 0.096795
C66   C     C_3   0.060442 0.329280 0.299878 -0.816370
H53   H     H_    0.021552 0.358132 0.359344 0.257601
H54   H     H_    0.042892 0.329204 0.203257 0.194094
H55   H     H_    0.065108 0.271160 0.331305 0.252264
O16   O     O_3   0.857016 0.628963 0.517080 -0.548381
C67   C     C_3   0.864876 0.670814 0.408173 0.114717
H56   H     H_    0.822280 0.711188 0.403214 0.185896
H57   H     H_    0.866832 0.636180 0.322832 0.094457
C68   C     C_3   0.931543 0.714820 0.413367 -0.810545
H58   H     H_    0.976099 0.676830 0.418580 0.265056
H59   H     H_    0.937787 0.749195 0.329290 0.198718
H60   H     H_    0.930599 0.751698 0.495776 0.252766
O17   O     O_3   0.406396 0.836351 0.358071 -0.556794
C69   C     C_3   0.414295 0.819906 0.230942 0.069140
H61   H     H_    0.393727 0.763864 0.210033 0.149268
H62   H     H_    0.469137 0.823376 0.199473 0.118627
C70   C     C_3   0.374169 0.876057 0.157928 -0.769979
H63   H     H_    0.394002 0.932737 0.175822 0.247263
H64   H     H_    0.379878 0.863611 0.057741 0.193945
H65   H     H_    0.318810 0.873637 0.185251 0.253828
O18   O     O_3   0.580813 0.166257 0.666868 -0.586688
C71   C     C_3   0.645719 0.151641 0.610868 0.068091
H66   H     H_    0.671757 0.203932 0.581633 0.168281
H67   H     H_    0.640822 0.114410 0.529232 0.146610
C72   C     C_3   0.690677 0.113173 0.703364 -0.790582
H68   H     H_    0.665296 0.061498 0.735819 0.254776
H69   H     H_    0.741208 0.099237 0.659359 0.197183
H70   H     H_    0.699137 0.149951 0.784000 0.247372
O19   O     O_3   0.593147 0.836468 0.643800 -0.579617
C73   C     C_3   0.658954 0.831722 0.586278 0.075879
H71   H     H_    0.658191 0.852562 0.489711 0.136269
H72   H     H_    0.678017 0.773640 0.585848 0.185803
C74   C     C_3   0.709107 0.879164 0.657468 -0.779483
H73   H     H_    0.711087 0.860140 0.754497 0.251855
H74   H     H_    0.761287 0.874850 0.614097 0.200378
H75   H     H_    0.692570 0.937885 0.656295 0.244765
O20   O     O_3   0.421847 0.164377 0.328320 -0.590886
C75   C     C_3   0.352390 0.164194 0.369038 0.079003
H76   H     H_    0.331902 0.221599 0.377292 0.181359
H77   H     H_    0.346378 0.135871 0.459728 0.151149
C76   C     C_3   0.309887 0.122414 0.275561 -0.772178
H78   H     H_    0.328409 0.064466 0.266336 0.255211
H79   H     H_    0.255039 0.121829 0.306483 0.204699
H80   H     H_    0.314284 0.149877 0.184332 0.242894

loop_
_geom_bond_atom_site_label_1
_geom_bond_atom_site_label_2
_ccdc_geom_bond_type
C71   H67   S    
C21   C26   A    
C8    H12   S    
O19   C73   S    
C1    O1    A    
C74   H73   S    
C14   C18   A    
C58   H33   S    
C15   O17   S    
C56   H30   S    
C6    C9    A    
Cu2   O8    S    
C72   H68   S    
O17   C69   S    
O20   C75   S    
C15   C19   A    
C12   H14   S    
C3    C43   A    
C33   H4    S    
C21   H17   S    
C6    C8    A    
C32   C36   A    
C27   O8    A    
Cu1   O3    S    
C38   C42   A    
C68   H58   S    
C57   H32   S    
C53   H22   S    
C20   C25   S    
C29   C33   A    
C28   C41   S    
Cu2   O2    S    
C5    H9    S    
C57   C58   S    
Cu1   O5    S    
C65   C66   S    
C23   C26   A    
C6    H10   S    
C19   C26   S    
C31   H7    S    
C61   H41   S    
C62   H45   S    
C2    O3    A    
C71   C72   S    
C56   H29   S    
C48   O14   S    
C59   H36   S    
C47   O13   S    
C11   C15   A    
O18   C71   S    
C13   N1    A    
C76   H79   S    
C69   C70   S    
C30   H6    S    
C34   H3    S    
C44   O10   S    
C32   C38   A    
C70   H64   S    
Cu2   O4    S    
C50   O16   S    
C64   H50   S    
C49   C52   A    
O14   C63   S    
C35   H2    S    
C28   O7    A    
C73   H72   S    
C14   H16   S    
C67   C68   S    
Cu1   N1    S    
C9    C52   S    
C23   H19   S    
C10   C51   S    
C22   H18   S    
C72   H69   S    
C11   H13   S    
C56   H28   S    
C39   C42   A    
C61   H42   S    
C4    C45   A    
C66   H55   S    
C30   C34   A    
C28   O6    A    
C43   O9    S    
O11   C57   S    
C12   C16   A    
C27   O5    A    
C24   C25   A    
C5    C7    A    
C53   H21   S    
C17   C19   A    
C47   C51   A    
C4    C44   A    
C55   C56   S    
O9    C53   S    
C22   C25   A    
C31   C37   A    
C70   H65   S    
C61   C62   S    
C14   N2    A    
Cu1   O1    S    
C2    O2    A    
C7    H11   S    
O15   C65   S    
C58   H34   S    
C59   C60   S    
C45   C49   A    
C16   C20   A    
C76   H80   S    
C29   C39   A    
C50   C51   A    
C30   C40   A    
C55   H26   S    
O10   C55   S    
C58   H35   S    
C54   H25   S    
C55   H27   S    
C66   H54   S    
C75   C76   S    
C62   H43   S    
C45   O11   S    
Cu2   N2    S    
C40   C41   A    
C12   N2    A    
C73   H71   S    
C74   H75   S    
C69   H62   S    
C21   C24   A    
C54   H24   S    
C54   H23   S    
Cu2   O6    S    
C72   H70   S    
C68   H60   S    
C60   H38   S    
C74   H74   S    
C7    C9    A    
C49   O15   S    
C63   H47   S    
C16   O18   S    
C67   H56   S    
C53   C54   S    
C18   C20   A    
C65   H52   S    
Cu1   Cu2   S    
C65   H51   S    
C66   H53   S    
C46   C50   A    
C3    C46   A    
C63   C64   S    
C13   C17   A    
Cu1   O7    S    
C1    C4    S    
C60   H40   S    
C2    C3    S    
C64   H48   S    
C32   H8    S    
C5    C10   A    
C37   C39   A    
C36   H1    S    
C17   O19   S    
O13   C61   S    
C38   C40   A    
C27   C42   S    
C24   H20   S    
C71   H66   S    
C13   H15   S    
C63   H46   S    
C68   H59   S    
C31   C35   A    
C33   C35   A    
C75   H77   S    
C34   C36   A    
C37   C41   A    
C57   H31   S    
C59   H37   S    
C62   H44   S    
C18   O20   S    
C48   C52   A    
C73   C74   S    
C8    C10   A    
C76   H78   S    
C46   O12   S    
O12   C59   S    
C1    O4    A    
C29   H5    S    
C22   C23   A    
C11   N1    A    
C64   H49   S    
C70   H63   S    
O16   C67   S    
C43   C47   A    
C67   H57   S    
C44   C48   A    
C69   H61   S    
C60   H39   S    
C75   H76   S    
