data_mof_unit_3148.cif
_audit_creation_date              2012-12-11T17:07:28-0500
_audit_creation_method            fapswitch 2.2
_symmetry_space_group_name_H-M    P1
_symmetry_Int_Tables_number       1
_space_group_crystal_system       triclinic
_cell_length_a                    6.960209
_cell_length_b                    14.522849
_cell_length_c                    16.076406
_cell_angle_alpha                 89.978851
_cell_angle_beta                  89.993982
_cell_angle_gamma                 90.028877
_cell_volume                      1625.03597916

loop_
_atom_site_label
_atom_site_type_symbol
_atom_type_description
_atom_site_fract_x
_atom_site_fract_y
_atom_site_fract_z
_atom_type_partial_charge
O1    O     O_R   0.505720 0.583900 0.413310 -0.537539
O2    O     O_R   0.175940 0.594920 0.586080 -0.543400
O3    O     O_R   0.005640 0.416100 0.586690 -0.534567
C1    C     C_R   0.344849 0.616989 0.614796 0.694793
O4    O     O_R   0.176000 0.594930 0.413930 -0.543317
O5    O     O_R   0.005700 0.416110 0.413310 -0.539902
C2    C     C_R   0.344807 0.616905 0.385154 0.694995
O6    O     O_R   0.505660 0.583890 0.586690 -0.539931
O7    O     O_3   0.339200 0.441330 0.500000 -0.366240
V1    V     V_3+5 0.064350 0.510880 0.500000 1.393546
O8    O     O_R   0.675980 0.405080 0.413920 -0.539811
C3    C     C_R   0.845031 0.382822 0.385395 0.696187
O9    O     O_R   0.675920 0.405070 0.586070 -0.537788
C4    C     C_R   0.844598 0.383247 0.614685 0.696500
V2    V     V_3+5 0.564340 0.489120 0.500000 1.405717
O10   O     O_3   0.839360 0.558670 0.500000 -0.374818
H1    H     H_    0.159834 0.100432 0.518051 0.106110
C5    C     C_R   0.687223 0.422295 0.777945 -0.144578
C6    C     C_R   0.614359 0.444252 0.856159 -0.131756
C7    C     C_R   0.629660 0.381744 0.921241 -0.109107
C8    C     C_R   0.717231 0.296677 0.908492 -0.123034
C9    C     C_R   0.790380 0.271828 0.829404 0.067173
C10   C     C_R   0.776251 0.336261 0.762811 0.070315
C11   C     C_R   0.880140 0.185288 0.816562 -0.186125
C12   C     C_R   0.956927 0.163526 0.737158 0.071194
C13   C     C_R   0.944006 0.228197 0.670704 0.071331
C14   C     C_R   0.854160 0.314747 0.683517 -0.186822
C15   C     C_R   0.043455 0.076958 0.721788 -0.144373
C16   C     C_R   0.116837 0.055051 0.643662 -0.128728
C17   C     C_R   0.104058 0.118052 0.578863 -0.124574
C18   C     C_R   0.017875 0.203433 0.591720 -0.132251
H2    H     H_    0.673537 0.473830 0.729871 0.111113
H3    H     H_    0.546940 0.510457 0.866424 0.119172
H4    H     H_    0.574414 0.399436 0.982125 0.146326
H5    H     H_    0.728496 0.251315 0.961622 0.108076
H6    H     H_    0.054194 0.024883 0.769562 0.102796
H7    H     H_    0.182624 0.988498 0.633233 0.114289
H8    H     H_    0.008208 0.249066 0.538716 0.101922
C19   C     C_R   0.729861 0.250938 0.187168 0.073932
C20   C     C_R   0.882333 0.188246 0.180863 -0.144526
C21   C     C_R   0.032549 0.196688 0.239182 -0.120383
H9    H     H_    0.153858 0.150384 0.236557 0.115929
C22   C     C_R   0.020991 0.260354 0.305219 -0.180100
H10   H     H_    0.134850 0.262001 0.350977 0.119746
C23   C     C_R   0.857970 0.316788 0.315344 -0.108961
C24   C     C_R   0.717392 0.312931 0.253180 0.044550
C25   C     C_3   0.505544 0.300875 0.260718 -0.365698
C26   C     C_3   0.518357 0.234138 0.187993 0.185495
H11   H     H_    0.426029 0.365416 0.246594 0.192504
H12   H     H_    0.465382 0.266863 0.320144 0.121355
H13   H     H_    0.478060 0.161857 0.203062 0.073158
C27   C     C_R   0.509795 0.684123 0.740259 0.093589
C28   C     C_R   0.353341 0.682597 0.685371 -0.108186
C29   C     C_R   0.200681 0.743493 0.701769 -0.181729
H14   H     H_    0.077482 0.745151 0.660990 0.133903
C30   C     C_R   0.211459 0.807412 0.767467 -0.181616
H15   H     H_    0.095238 0.855824 0.775674 0.124212
C31   C     C_R   0.375913 0.812929 0.818392 -0.109051
C32   C     C_R   0.520954 0.747860 0.805015 0.103207
C33   C     C_3   0.730015 0.763230 0.791263 -0.407348
C34   C     C_3   0.718173 0.693815 0.720920 -0.405131
H16   H     H_    0.818071 0.739040 0.844647 0.177927
H17   H     H_    0.761019 0.834415 0.769615 0.166665
H18   H     H_    0.800246 0.629776 0.733695 0.169117
H19   H     H_    0.742616 0.724562 0.658459 0.170074
C35   C     C_R   0.506729 0.682349 0.258266 0.107432
C36   C     C_R   0.352765 0.682330 0.314450 -0.111975
C37   C     C_R   0.201402 0.744345 0.298967 -0.179719
H20   H     H_    0.079108 0.746674 0.340297 0.131570
C38   C     C_R   0.212647 0.808569 0.233441 -0.180195
H21   H     H_    0.098096 0.858179 0.226114 0.125264
C39   C     C_R   0.375883 0.812913 0.181614 -0.111114
C40   C     C_R   0.518289 0.746153 0.193652 0.106250
C41   C     C_3   0.729240 0.758030 0.205131 -0.409823
C42   C     C_3   0.716761 0.688094 0.275231 -0.399357
H22   H     H_    0.812576 0.732995 0.150669 0.179053
H23   H     H_    0.792086 0.622440 0.261141 0.173178
O11   O     O_R   0.229140 0.916090 0.913340 -0.541878
O12   O     O_R   0.558860 0.905090 0.086080 -0.540021
O13   O     O_R   0.729100 0.083920 0.086690 -0.552678
C43   C     C_R   0.389803 0.883162 0.114946 0.690214
O14   O     O_R   0.558860 0.905090 0.913930 -0.538388
O15   O     O_R   0.729100 0.083920 0.913310 -0.537278
C44   C     C_R   0.389765 0.883202 0.885051 0.700496
O16   O     O_R   0.229140 0.916080 0.086720 -0.540510
O17   O     O_3   0.395570 0.058660 0.000020 -0.375040
V3    V     V_3+5 0.670450 0.989140 0.000000 1.387382
O18   O     O_R   0.058810 0.094980 0.913910 -0.535167
C45   C     C_R   0.890050 0.116872 0.885405 0.699794
O19   O     O_R   0.058810 0.094980 0.086060 -0.532904
C46   C     C_R   0.890017 0.117437 0.114484 0.686219
V4    V     V_3+5 0.170450 0.010950 0.999970 1.409330
O20   O     O_3   0.895460 0.941370 0.999990 -0.370279
O21   O     O_3   0.429147 0.269591 0.116729 -0.632892
H24   H     H_    0.448956 0.223145 0.072398 0.305043
H25   H     H_    0.766277 0.828474 0.226842 0.164230
H26   H     H_    0.747381 0.717729 0.337579 0.168236

loop_
_geom_bond_atom_site_label_1
_geom_bond_atom_site_label_2
_ccdc_geom_bond_type
O15   V3    S    
C1    C28   S    
C21   H9    S    
C6    C7    A    
C1    O6    A    
C11   C45   S    
O12   V3    S    
C25   H11   S    
C28   C29   A    
C12   C15   A    
C13   C14   A    
C26   O21   S    
C33   H17   S    
C15   C16   A    
O13   V3    S    
C27   C34   S    
O5    C3    A    
C17   C18   A    
O14   V3    S    
C42   H26   S    
C30   H15   S    
C33   H16   S    
C5    C6    A    
C40   C41   S    
C24   C25   S    
O8    V2    S    
C26   H13   S    
O17   V4    S    
O18   V4    S    
C37   H20   S    
C38   H21   S    
O1    V2    S    
C10   C14   A    
C4    C14   S    
O7    V1    S    
C39   C43   S    
C7    H4    S    
C35   C36   A    
C32   C33   S    
C8    C9    A    
H1    C17   S    
C21   C22   A    
O16   V4    S    
C25   H12   S    
O15   C45   A    
C29   C30   A    
C41   C42   S    
C36   C37   A    
C41   H25   S    
C11   C12   A    
C6    H3    S    
C19   C20   A    
O4    C2    A    
O17   V3    S    
C3    C23   S    
O11   V4    S    
C31   C32   A    
C23   C24   A    
C35   C40   A    
O11   C44   A    
C5    C10   A    
C33   C34   S    
C34   H18   S    
O2    C1    A    
C22   H10   S    
C16   C17   A    
C27   C32   A    
C31   C44   S    
C42   H23   S    
O19   V4    S    
C25   C26   S    
O18   C45   A    
C22   C23   A    
O3    C4    A    
C41   H22   S    
C19   C24   A    
C20   C21   A    
O6    V2    S    
O14   C44   A    
O9    V2    S    
C9    C11   A    
C5    H2    S    
O2    V1    S    
C27   C28   A    
O12   C43   A    
C29   H14   S    
O1    C2    A    
C39   C40   A    
O5    V1    S    
O8    C3    A    
C8    H5    S    
C18   H8    S    
O13   C46   A    
C12   C13   A    
O4    V1    S    
O3    V1    S    
V1    O10   S    
O19   C46   A    
C35   C42   S    
V3    O20   S    
V4    O20   S    
C30   C31   A    
C20   C46   S    
O7    V2    S    
O21   H24   S    
C2    C36   S    
C34   H19   S    
C13   C18   A    
C7    C8    A    
C15   H6    S    
C37   C38   A    
C16   H7    S    
C9    C10   A    
C38   C39   A    
O9    C4    A    
C43   O16   A    
V2    O10   S    
C19   C26   S    
