data_mof_unit_3512.cif
_audit_creation_date              2012-12-11T14:34:09-0500
_audit_creation_method            fapswitch 2.2
_symmetry_space_group_name_H-M    P1
_symmetry_Int_Tables_number       1
_space_group_crystal_system       triclinic
_cell_length_a                    14.372205
_cell_length_b                    14.334612
_cell_length_c                    27.199238
_cell_angle_alpha                 90.760112
_cell_angle_beta                  90.133374
_cell_angle_gamma                 120.068785
_cell_volume                      4848.79363405

loop_
_atom_site_label
_atom_site_type_symbol
_atom_type_description
_atom_site_fract_x
_atom_site_fract_y
_atom_site_fract_z
_atom_type_partial_charge
Br1   Br    Br    0.583225 0.921284 0.104317 -0.309327
Br2   Br    Br    0.691933 0.044821 0.701593 -0.264222
Br3   Br    Br    0.066464 0.580453 0.697679 -0.441007
Br4   Br    Br    0.428310 0.431948 0.706066 -0.318071
Br5   Br    Br    0.737638 0.703965 0.410968 -0.363087
Br6   Br    Br    0.313947 0.039473 0.407691 -0.374890
Br7   Br    Br    0.964088 0.281996 0.398349 -0.372670
Br8   Br    Br    0.674219 0.664707 0.703204 -0.231156
Br9   Br    Br    0.063657 0.940374 0.686026 -0.253253
Br10  Br    Br    0.008951 0.185214 0.671900 -0.215867
Br11  Br    Br    0.811573 0.904406 0.685823 -0.177129
Br12  Br    Br    0.973384 0.646163 0.108951 -0.267846
Br13  Br    Br    0.928369 0.700710 0.692494 -0.184628
Br14  Br    Br    0.227085 0.195619 0.683459 -0.293499
Br15  Br    Br    0.768057 0.724218 0.812119 -0.383869
Br16  Br    Br    0.026303 0.942486 0.803987 -0.478665
Br17  Br    Br    0.960339 0.120677 0.783095 -0.383925
Br18  Br    Br    0.358290 0.320469 0.112226 -0.281857
Br19  Br    Br    0.551949 0.041475 0.195589 -0.265366
Br20  Br    Br    0.955665 0.502985 0.197541 -0.284606
Br21  Br    Br    0.500366 0.508688 0.189994 -0.328430
Br22  Br    Br    0.943538 0.891744 0.167980 -0.491097
Br23  Br    Br    0.363960 0.025284 0.122525 -0.238425
Br24  Br    Br    0.996937 0.365764 0.112933 -0.262580
C1    C     C_R   0.235470 0.787487 0.568383 0.540384
C2    C     C_1   0.683346 0.854080 0.866305 0.068187
C3    C     C_1   0.127997 0.833541 0.860534 0.063195
C4    C     C_1   0.149350 0.270339 0.858071 0.047105
C5    C     C_1   0.558615 0.787445 0.668084 0.034445
C6    C     C_1   0.182447 0.812863 0.657454 0.060642
C7    C     C_1   0.208225 0.406661 0.663584 0.058791
C8    C     C_1   0.538344 0.767004 0.624992 0.074652
C9    C     C_1   0.203924 0.805800 0.615452 0.091402
C10   C     C_1   0.210467 0.426826 0.620714 0.102316
C11   C     C_R   0.107646 0.225378 0.085995 0.601031
C12   C     C_R   0.217359 0.457133 0.570587 0.551331
C13   C     C_R   0.780266 0.885817 0.088527 0.618290
C14   C     C_R   0.117728 0.893631 0.086935 0.619904
C15   C     C_R   0.103855 0.214389 0.950060 0.577918
C16   C     C_R   0.780365 0.886619 0.951706 0.581056
C17   C     C_R   0.111553 0.893075 0.950776 0.574587
C18   C     C_R   0.590837 0.875556 0.359430 -0.126469
C19   C     C_R   0.114541 0.720239 0.359182 -0.129010
C20   C     C_R   0.286464 0.411426 0.355671 -0.130214
C21   C     C_R   0.617865 0.893433 0.310211 -0.021601
C22   C     C_R   0.099139 0.728218 0.309008 -0.023564
C23   C     C_R   0.512073 0.743282 0.573937 0.534128
C24   C     C_R   0.281516 0.395338 0.304644 -0.021470
C25   C     C_R   0.647446 0.902675 0.207100 0.009782
C26   C     C_R   0.089561 0.740443 0.204917 0.015192
C27   C     C_R   0.268736 0.370284 0.200938 0.008138
C28   C     C_R   0.232816 0.787869 0.432158 0.561250
C29   C     C_R   0.212785 0.446898 0.431040 0.566247
C30   C     C_R   0.554291 0.766600 0.432528 0.577084
C31   C     C_R   0.597867 0.956258 0.230201 0.208370
C32   C     C_R   0.029056 0.640623 0.229752 0.211221
C33   C     C_R   0.369745 0.420126 0.225253 0.221253
C34   C     C_3   0.540075 0.728867 0.807101 -0.060374
C35   C     C_R   0.590398 0.957481 0.281858 0.097095
C36   C     C_R   0.027828 0.636760 0.281368 0.096836
C37   C     C_R   0.375143 0.424652 0.277034 0.103803
C38   C     C_R   0.665380 0.901630 0.155222 0.150958
C39   C     C_R   0.078140 0.755031 0.153516 0.173445
C40   C     C_R   0.252282 0.333233 0.150909 0.150322
C41   C     C_R   0.743291 0.876072 0.139240 0.028480
C42   C     C_R   0.145464 0.856613 0.132743 0.017904
C43   C     C_R   0.150896 0.298355 0.129128 -0.002516
C44   C     C_R   0.679797 0.770360 0.368366 0.163520
C45   C     C_3   0.243704 0.922075 0.789364 -0.051999
C46   C     C_R   0.238952 0.911923 0.365931 0.164559
C47   C     C_R   0.093635 0.339981 0.359446 0.160000
C48   C     C_R   0.703358 0.783236 0.318142 0.014517
C49   C     C_R   0.230633 0.920002 0.314668 0.009556
C50   C     C_R   0.087901 0.329061 0.307803 0.007942
C51   C     C_R   0.668732 0.841973 0.288733 0.004521
C52   C     C_R   0.163542 0.827057 0.285723 0.002589
C53   C     C_R   0.182347 0.358683 0.280393 0.001601
C54   C     C_R   0.752345 0.730938 0.295689 -0.067084
C55   C     C_R   0.291675 0.018302 0.291588 -0.072989
C56   C     C_3   0.113044 0.372229 0.797602 -0.053390
C57   C     C_R   0.989988 0.290886 0.282762 -0.070609
C58   C     C_R   0.770431 0.739949 0.245777 0.141748
C59   C     C_R   0.296457 0.025131 0.240782 0.139162
C60   C     C_R   0.985325 0.288126 0.231765 0.140239
C61   C     C_R   0.748311 0.808410 0.218426 0.041621
C62   C     C_R   0.233261 0.932047 0.210991 0.028758
C63   C     C_R   0.079341 0.322203 0.204303 0.021546
C64   C     C_3   0.601144 0.916727 0.740048 0.052611
C65   C     C_3   0.155593 0.714432 0.735535 0.028851
C66   C     C_3   0.306735 0.421196 0.743309 0.052838
C67   C     C_3   0.501516 0.718698 0.752602 -0.295686
C68   C     C_R   0.687405 0.850823 0.238051 -0.040309
C69   C     C_R   0.160841 0.833402 0.233848 -0.042192
C70   C     C_R   0.176820 0.349771 0.228679 -0.052612
C71   C     C_R   0.792830 0.842289 0.173041 0.145369
C72   C     C_R   0.235259 0.934161 0.159454 0.158897
C73   C     C_R   0.078424 0.320403 0.153041 0.155392
C74   C     C_R   0.614620 0.808532 0.387459 0.020857
C75   C     C_R   0.190598 0.809024 0.386711 0.017207
C76   C     C_R   0.195183 0.391674 0.382699 0.014689
C77   C     C_3   0.696202 0.804130 0.727755 0.326962
C78   C     C_3   0.260969 0.914825 0.733811 -0.263313
C79   C     C_3   0.058189 0.821447 0.721085 0.334892
C80   C     C_3   0.137752 0.245897 0.715063 0.325357
C81   C     C_3   0.732628 0.828553 0.783038 0.060294
C82   C     C_3   0.044470 0.826246 0.778423 0.059437
C83   C     C_3   0.113870 0.206131 0.769639 0.084530
C84   C     C_1   0.722719 0.867722 0.906604 0.101297
C85   C     C_1   0.122740 0.856130 0.902987 0.097570
C86   C     C_1   0.130992 0.248221 0.900671 0.092418
C87   C     C_3   0.590103 0.808394 0.720434 -0.018679
C88   C     C_3   0.162253 0.814924 0.710344 -0.002949
C89   C     C_3   0.129691 0.411055 0.743954 -0.255552
C90   C     C_3   0.197080 0.371674 0.714890 -0.017626
C91   C     C_3   0.627255 0.928824 0.796378 0.006385
C92   C     C_3   0.129844 0.713688 0.791725 -0.010620
C93   C     C_3   0.289990 0.371534 0.795642 -0.014302
C94   C     C_3   0.646973 0.836814 0.814692 -0.028546
C95   C     C_3   0.136743 0.822595 0.806667 -0.028472
C96   C     C_3   0.167091 0.303546 0.806481 -0.033364
Cr1   Cr    Cr6+3 0.164410 0.584450 0.499910 1.127554
Cr2   Cr    Cr6+3 0.415550 0.579960 0.499910 1.126373
Cr3   Cr    Cr6+3 0.420040 0.835590 0.499910 1.117542
Cr4   Cr    Cr6+3 0.155170 0.075460 0.019960 1.167373
Cr5   Cr    Cr6+3 0.924540 0.079710 0.019960 1.163436
Cr6   Cr    Cr6+3 0.920290 0.844830 0.019960 1.170238
H1    H     H_    0.520935 0.910000 0.735428 0.124994
H2    H     H_    0.541247 0.905138 0.374888 0.180892
H3    H     H_    0.075569 0.642310 0.376145 0.182398
H4    H     H_    0.363505 0.448786 0.374192 0.182824
H5    H     H_    0.769887 0.676677 0.315574 0.195362
H6    H     H_    0.340257 0.091322 0.312832 0.198431
H7    H     H_    0.915542 0.262955 0.302308 0.199829
H8    H     H_    0.807434 0.907110 0.785891 0.234559
H9    H     H_    0.967363 0.756289 0.788497 0.229059
H10   H     H_    0.147586 0.153070 0.776470 0.209561
H11   H     H_    0.425637 0.721476 0.750543 0.131258
H12   H     H_    0.236549 0.722067 0.733412 0.106487
H13   H     H_    0.334884 0.909790 0.727730 0.144678
H14   H     H_    0.173160 0.500310 0.744770 0.175454
H15   H     H_    0.484242 0.640206 0.737593 0.186949
H16   H     H_    0.275351 0.990186 0.715890 0.207714
H17   H     H_    0.050114 0.381180 0.725816 0.230175
H18   H     H_    0.331672 0.506726 0.749843 0.103101
H19   H     H_    0.552544 0.914072 0.814220 0.179384
H20   H     H_    0.191913 0.706631 0.813086 0.179540
H21   H     H_    0.328019 0.439402 0.822841 0.169060
H22   H     H_    0.551542 0.659441 0.815057 0.216940
H23   H     H_    0.239185 0.996440 0.795826 0.211791
H24   H     H_    0.025210 0.324679 0.803952 0.228167
I1    I     I_    0.723674 0.089022 0.827695 -0.092224
I2    I     I_    0.422591 0.713549 0.859788 -0.323321
I3    I     I_    0.383125 0.957059 0.832105 -0.291013
I4    I     I_    0.157699 0.495549 0.852945 -0.292348
I5    I     I_    0.974359 0.576923 0.813416 -0.094214
I6    I     I_    0.372222 0.282097 0.810348 -0.145831
I7    I     I_    0.553286 0.069008 0.318252 -0.178098
I8    I     I_    0.910333 0.492906 0.318083 -0.164202
I9    I     I_    0.525194 0.468757 0.312534 -0.189012
I10   I     I_    0.788585 0.618885 0.210581 -0.049558
I11   I     I_    0.391314 0.186550 0.217554 -0.072789
I12   I     I_    0.829353 0.205013 0.201150 -0.084032
O1    O     O_R   0.137150 0.468200 0.553200 -0.457459
O2    O     O_R   0.140110 0.470540 0.446010 -0.452965
O3    O     O_R   0.529460 0.669570 0.446010 -0.456643
O4    O     O_R   0.330430 0.859890 0.446010 -0.457617
O5    O     O_R   0.176710 0.690910 0.450560 -0.508164
O6    O     O_R   0.309090 0.485800 0.450560 -0.507581
O7    O     O_R   0.514200 0.823290 0.450560 -0.506244
O8    O     O_3   0.333333 0.666667 0.499990 -0.366656
O9    O     O_R   0.176750 0.985260 0.074180 -0.459935
O10   O     O_R   0.014740 0.191490 0.074180 -0.467633
O11   O     O_R   0.808510 0.823250 0.074180 -0.457449
O12   O     O_R   0.531800 0.668950 0.553200 -0.437993
O13   O     O_R   0.146100 0.172630 0.068980 -0.462620
O14   O     O_R   0.827370 0.973470 0.068980 -0.470433
O15   O     O_R   0.026530 0.853900 0.068980 -0.445751
O16   O     O_3   1.000000 0.000000 0.020040 -0.291311
O17   O     O_R   0.148270 0.170520 0.969620 -0.500512
O18   O     O_R   0.829480 0.977750 0.969620 -0.496395
O19   O     O_R   0.022250 0.851730 0.969620 -0.493756
O20   O     O_R   0.331050 0.862850 0.553200 -0.487904
O21   O     O_R   0.179100 0.982980 0.967000 -0.483049
O22   O     O_R   0.017020 0.196120 0.967000 -0.480616
O23   O     O_R   0.803880 0.820900 0.967000 -0.483117
O24   O     O_R   0.173970 0.688730 0.549930 -0.477780
O25   O     O_R   0.311270 0.485240 0.549930 -0.495576
O26   O     O_R   0.514760 0.826030 0.549930 -0.472814

loop_
_geom_bond_atom_site_label_1
_geom_bond_atom_site_label_2
_ccdc_geom_bond_type
C55   C59   A    
C56   C96   S    
C26   C39   A    
C31   C35   A    
C82   C95   S    
C20   C76   A    
Br22  C71   S    
C78   C88   S    
C60   C63   A    
Br20  C32   S    
Br1   C38   S    
C22   C52   A    
Cr2   O25   S    
C14   O9    A    
Cr4   O13   S    
C45   C78   S    
C1    O20   A    
C56   H24   S    
C65   C88   S    
C29   O2    A    
C19   C75   A    
Cr3   O20   S    
C56   I4    S    
Br17  C83   S    
C28   O5    A    
Br7   C47   S    
C34   H22   S    
C20   H4    S    
Cr1   O1    S    
C63   C70   A    
C53   C70   A    
C34   C94   S    
Br23  C72   S    
Cr6   O15   S    
C30   O3    A    
C67   C87   S    
Cr3   O26   S    
Cr5   O10   S    
Cr4   O17   S    
C48   C54   A    
C28   O4    A    
Cr1   O24   S    
C16   O18   A    
C64   C87   S    
C15   C86   S    
C14   C42   S    
C34   I2    S    
Cr2   O8    S    
C50   C53   A    
C13   C41   S    
C12   O1    A    
Br2   C64   S    
C27   C33   A    
Br13  C79   S    
Br8   C77   S    
C7    C90   S    
Cr4   O16   S    
C15   O22   A    
C38   C41   A    
C18   H2    S    
C16   C84   S    
Cr1   O8    S    
C59   I11   S    
C65   C92   S    
Cr2   O3    S    
C17   C85   S    
Cr5   O22   S    
C11   O10   A    
Cr3   O4    S    
C30   O7    A    
C17   O19   A    
C93   I6    S    
C48   C51   A    
C61   C68   A    
Br5   C44   S    
Br4   C66   S    
C29   C76   S    
C77   C81   S    
Cr1   O5    S    
C89   H14   S    
Cr2   O6    S    
Br24  C73   S    
C23   O12   A    
C66   C93   S    
C19   H3    S    
Cr4   O21   S    
C4    C96   S    
C93   C96   S    
C2    C84   T    
C35   I7    S    
Br12  C39   S    
C16   O23   A    
C4    C86   T    
Cr2   O12   S    
Cr1   O2    S    
C45   C95   S    
C26   C32   A    
C89   H17   S    
C6    C88   S    
C79   C88   S    
C18   C21   A    
C24   C53   A    
C54   H5    S    
C40   C43   A    
Br21  C33   S    
C83   H10   S    
C62   C69   A    
C52   C69   A    
C58   I10   S    
C54   C58   A    
C29   O6    A    
Br14  C80   S    
C11   C43   S    
C44   C48   A    
C91   C94   S    
C46   C49   A    
C49   C55   A    
C7    C10   T    
Br11  C77   S    
C57   H7    S    
C21   C51   A    
Cr3   O7    S    
Cr6   O11   S    
C62   C72   A    
C51   C68   A    
C80   C90   S    
C82   H9    S    
C3    C95   S    
C8    C23   S    
C81   C94   S    
C77   C87   S    
C25   C68   A    
C83   C96   S    
C57   C60   A    
C60   I12   S    
C46   C75   A    
C42   C72   A    
C89   C90   S    
C34   C67   S    
Br19  C31   S    
Br6   C46   S    
C21   C35   A    
C25   C38   A    
C6    C9    T    
C22   C36   A    
C5    C87   S    
Cr6   O23   S    
C30   C74   S    
C27   C40   A    
C2    C94   S    
C36   I8    S    
C18   C74   A    
C47   C50   A    
C15   O17   A    
C26   C69   A    
C33   C37   A    
Br16  C82   S    
C64   H1    S    
C58   C61   A    
C47   C76   A    
C91   H19   S    
C28   C75   S    
C92   C95   S    
Br3   C65   S    
C93   H21   S    
C12   O25   A    
C11   O13   A    
Br15  C81   S    
C64   C91   S    
C37   I9    S    
C45   H23   S    
C5    C8    T    
C92   I5    S    
C25   C31   A    
C13   O14   A    
C92   H20   S    
C61   C71   A    
Br18  C40   S    
C24   C37   A    
Cr4   O9    S    
C67   H11   S    
C55   H6    S    
Br10  C80   S    
Br9   C79   S    
C49   C52   A    
Cr6   O16   S    
C79   C82   S    
C10   C12   S    
C78   H13   S    
C66   C90   S    
C19   C22   A    
C44   C74   A    
C39   C42   A    
Cr3   O8    S    
C45   I3    S    
C1    O24   A    
C43   C73   A    
C27   C70   A    
C13   O11   A    
C32   C36   A    
C41   C71   A    
C59   C62   A    
C56   C89   S    
C3    C85   T    
C65   H12   S    
C91   I1    S    
Cr5   O16   S    
C14   O15   A    
Cr5   O18   S    
C17   O21   A    
Cr6   O19   S    
C50   C57   A    
C78   H16   S    
C67   H15   S    
C23   O26   A    
Cr5   O14   S    
C80   C83   S    
C66   H18   S    
C20   C24   A    
C1    C9    S    
C81   H8    S    
C63   C73   A    
