data_mof_unit_2597.cif
_audit_creation_date              2013-03-05T15:40:25-0500
_audit_creation_method            fapswitch 2.2
_symmetry_space_group_name_H-M    P1
_symmetry_Int_Tables_number       1
_space_group_crystal_system       triclinic
_cell_length_a                    7.760917
_cell_length_b                    8.597112
_cell_length_c                    10.654054
_cell_angle_alpha                 90.826738
_cell_angle_beta                  86.008933
_cell_angle_gamma                 93.511186
_cell_volume                      707.762260427

loop_
_atom_site_label
_atom_site_type_symbol
_atom_site_description
_atom_site_fract_x
_atom_site_fract_y
_atom_site_fract_z
_atom_type_partial_charge
O1    O     O_R   0.389250 0.738570 0.508280 -0.653208
O2    O     O_R   0.678390 0.711630 0.486650 -0.616428
C1    C     C_R   0.546383 0.794516 0.501383 0.842256
O3    O     O_R   0.355400 0.513470 0.694050 -0.615435
O4    O     O_R   0.644540 0.486530 0.672420 -0.594437
C2    C     C_R   0.503201 0.504889 0.739238 0.934530
Zn1   Zn    Zn3+2 0.306930 0.517990 0.514440 0.986642
Zn2   Zn    Zn3+2 0.693070 0.482010 0.485560 1.048341
O5    O     O_R   0.321610 0.288370 0.513350 -0.620336
O6    O     O_R   0.610750 0.261430 0.491720 -0.560763
O7    O     O_R   0.355460 0.513470 0.327580 -0.637384
O8    O     O_R   0.644600 0.486530 0.305950 -0.587686
C3    C     C_R   0.455664 0.205549 0.508050 1.071722
C4    C     C_R   0.498249 0.503162 0.260747 0.961357
C5    C     C_R   0.379707 0.770119 0.878527 -0.102993
H1    H     H_    0.388277 0.780648 0.777301 0.147865
C6    C     C_R   0.309116 0.891858 0.948398 -0.051594
H2    H     H_    0.261152 0.989370 0.901118 0.186747
C7    C     C_R   0.302614 0.889294 0.078893 -0.061793
H3    H     H_    0.249638 0.984837 0.133084 0.181031
C8    C     C_R   0.366289 0.764825 0.139889 -0.119239
H4    H     H_    0.363525 0.771520 0.241282 0.154191
C9    C     C_R   0.432294 0.636715 0.070503 0.047950
C10   C     C_R   0.439370 0.639652 0.938972 0.052960
C11   C     C_R   0.509397 0.513095 0.871440 -0.258853
C12   C     C_R   0.578487 0.388696 0.930367 0.212513
C13   C     C_R   0.568653 0.383689 0.059905 0.202042
C14   C     C_R   0.495018 0.506808 0.128497 -0.259689
C15   C     C_2   0.574742 0.956557 0.517047 0.059577
C16   C     C_2   0.436097 0.042284 0.510557 -0.383966
H5    H     H_    0.306751 0.991518 0.497083 0.166713
N1    N     N_2   0.950330 0.457950 0.466250 -0.148202
H6    H     H_    0.013882 0.382750 0.405753 0.217769
N2    N     N_2   0.049670 0.542050 0.533750 -0.159624
H7    H     H_    0.986120 0.617289 0.594219 0.206486
N3    N     N_R   0.647431 0.261656 0.858532 0.243959
O9    O     O_R   0.813934 0.256316 0.836286 -0.315390
O10   O     O_R   0.543802 0.161074 0.804441 -0.435194
N4    N     N_R   0.625908 0.250218 0.121932 0.228798
O11   O     O_R   0.523323 0.175171 0.205185 -0.448071
O12   O     O_R   0.781433 0.204626 0.096789 -0.328836
I1    I     I_    0.836863 0.029910 0.559308 -0.194325

loop_
_geom_bond_atom_site_label_1
_geom_bond_atom_site_label_2
_geom_bond_distance
_ccdc_geom_bond_type
O4    Zn2   2.000475 S    
C9    C10   1.399120 A    
C5    C6    1.393068 A    
C15   C16   1.347112 D    
C15   I1    2.168170 S    
C7    H3    1.082452 S    
Zn2   O8    1.977099 S    
C4    C14   1.411795 S    
N1    H6    1.029292 S    
N3    O10   1.300624 A    
C6    H2    1.082406 S    
N4    O12   1.300850 A    
O1    Zn1   1.964174 S    
C9    C14   1.412240 A    
C10   C11   1.411466 A    
Zn1   O7    2.000475 S    
C12   C13   1.378044 A    
O4    C2    1.282262 A    
O3    Zn1   1.977099 S    
C12   N3    1.433651 S    
C5    C10   1.418861 A    
C6    C7    1.388145 A    
O8    C4    1.280813 A    
O2    C1    1.282885 A    
C8    C9    1.419443 A    
C16   H5    1.087835 S    
O7    C4    1.281904 A    
C2    C11   1.413245 S    
C5    H1    1.080652 S    
Zn2   N1    2.015835 S    
Zn1   O5    1.984129 S    
C3    C16   1.402958 S    
N4    O11   1.300831 A    
Zn1   N2    2.015835 S    
O3    C2    1.281114 A    
N2    H7    1.029328 S    
C13   C14   1.405209 A    
C1    C15   1.406357 S    
O5    C3    1.293813 A    
N3    O9    1.300925 A    
C7    C8    1.393241 A    
C11   C12   1.400681 A    
C8    H4    1.079737 S    
Zn2   O6    1.964174 S    
O2    Zn2   1.984129 S    
C13   N4    1.440850 S    
O1    C1    1.280865 A    
O6    C3    1.269721 A    
N1    N2    1.276017 D    
