data_mof_unit_2119.cif
_audit_creation_date              2013-03-05T15:52:54-0500
_audit_creation_method            fapswitch 2.2
_symmetry_space_group_name_H-M    P1
_symmetry_Int_Tables_number       1
_space_group_crystal_system       triclinic
_cell_length_a                    10.710071
_cell_length_b                    10.770119
_cell_length_c                    17.081679
_cell_angle_alpha                 99.952633
_cell_angle_beta                  99.518694
_cell_angle_gamma                 60.635598
_cell_volume                      1683.87909534

loop_
_atom_site_label
_atom_site_type_symbol
_atom_site_description
_atom_site_fract_x
_atom_site_fract_y
_atom_site_fract_z
_atom_type_partial_charge
O1    O     O_R   0.749810 0.499790 0.438040 -0.510156
O2    O     O_R   0.477660 0.726260 0.439290 -0.503024
C1    C     C_R   0.354580 0.777635 0.401759 0.557835
O3    O     O_R   0.260150 0.743000 0.412270 -0.514659
O4    O     O_R   0.297740 0.466550 0.394720 -0.495473
C2    C     C_R   0.369642 0.346167 0.357485 0.566378
O5    O     O_R   0.488080 0.253500 0.386430 -0.502618
O6    O     O_R   0.722670 0.303800 0.421940 -0.507154
C3    C     C_R   0.780089 0.372890 0.404768 0.553070
O7    O     O_R   0.751130 0.502220 0.613520 -0.472121
O8    O     O_R   0.478890 0.728510 0.601960 -0.484889
C4    C     C_R   0.381245 0.714508 0.631194 0.535394
O9    O     O_R   0.261470 0.745430 0.587750 -0.509022
O10   O     O_R   0.298970 0.468800 0.557390 -0.504062
C5    C     C_R   0.407182 0.375439 0.600068 0.528006
O11   O     O_R   0.489400 0.255930 0.561910 -0.510678
O12   O     O_R   0.723890 0.306050 0.584610 -0.545788
C6    C     C_R   0.772764 0.381191 0.629895 0.538400
Cr1   Cr    Cr6+3 0.608100 0.610860 0.522250 1.039284
Cr2   Cr    Cr6+3 0.288890 0.599990 0.488420 1.016834
Cr3   Cr    Cr6+3 0.603040 0.289190 0.489390 0.997778
O13   O     O_3   0.500010 0.500010 0.500020 -0.285109
C7    C     C_1   0.343274 0.335898 0.274170 -0.035844
C8    C     C_1   0.331214 0.326825 0.203407 -0.031940
H1    H     H_    0.941287 0.464528 0.352984 0.136578
C9    C     C_R   0.862206 0.324113 0.170449 0.024309
C10   C     C_R   0.810997 0.238261 0.192101 -0.022756
C11   C     C_R   0.823724 0.221583 0.273299 0.008823
C12   C     C_R   0.909933 0.396749 0.309155 -0.146042
C13   C     C_R   0.920801 0.394057 0.229729 -0.145928
C14   C     C_R   0.757094 0.161210 0.134533 -0.083729
C15   C     C_R   0.749973 0.043656 0.154237 0.285072
C16   C     C_R   0.776620 0.019055 0.234178 -0.095906
C17   C     C_R   0.810404 0.107258 0.293251 -0.144164
C18   C     C_R   0.851395 0.319310 0.331253 0.009356
H2    H     H_    0.726351 0.188515 0.073842 0.131766
H3    H     H_    0.975224 0.447915 0.214872 0.134599
H4    H     H_    0.774699 0.929072 0.250932 0.133187
H5    H     H_    0.836272 0.077824 0.353492 0.138139
H6    H     H_    0.109281 0.919450 0.314116 0.136050
C19   C     C_R   0.318163 0.855218 0.167509 0.037170
C20   C     C_R   0.454935 0.802123 0.210360 0.033535
C21   C     C_R   0.460844 0.818691 0.294612 0.010313
C22   C     C_R   0.204844 0.894193 0.287182 -0.157095
C23   C     C_R   0.194427 0.902329 0.207197 -0.150543
C24   C     C_R   0.585325 0.736110 0.173230 0.057353
C25   C     C_R   0.711551 0.721196 0.219097 -0.127746
C26   C     C_R   0.713146 0.757254 0.301379 -0.147418
C27   C     C_R   0.589615 0.804907 0.339075 -0.067144
C28   C     C_R   0.338041 0.845093 0.330966 -0.002031
H7    H     H_    0.087065 0.946465 0.176498 0.150235
H8    H     H_    0.810031 0.679757 0.191107 0.114768
H9    H     H_    0.811435 0.746304 0.336267 0.103217
H10   H     H_    0.595177 0.835464 0.402725 0.144176
H11   H     H_    0.175179 0.547367 0.683559 0.165354
C29   C     C_R   0.298419 0.277227 0.799448 -0.006018
C30   C     C_R   0.423407 0.176244 0.761490 0.027367
C31   C     C_R   0.476939 0.224557 0.711415 0.035349
C32   C     C_R   0.248636 0.446925 0.707833 -0.137112
C33   C     C_R   0.210488 0.411406 0.771088 -0.124752
C34   C     C_R   0.499827 0.029964 0.774753 -0.119107
C35   C     C_R   0.638039 0.940166 0.750824 0.023987
C36   C     C_R   0.702110 0.998084 0.714343 -0.086829
C37   C     C_R   0.622668 0.138605 0.695103 -0.116804
C38   C     C_R   0.380745 0.353653 0.676663 -0.010497
H12   H     H_    0.452159 0.985352 0.803659 0.131630
H13   H     H_    0.112902 0.489083 0.798046 0.186900
H14   H     H_    0.811636 0.933917 0.698398 0.157038
H15   H     H_    0.675882 0.177964 0.666291 0.153855
C39   C     C_1   0.817795 0.342600 0.709093 -0.043203
C40   C     C_1   0.845191 0.313691 0.776622 -0.044342
C41   C     C_1   0.358646 0.763572 0.713551 -0.061910
C42   C     C_1   0.326449 0.810311 0.780712 -0.062776
O14   O     O_R   0.171100 0.914680 0.053100 -0.530054
O15   O     O_R   0.941680 0.184840 0.050710 -0.521827
C43   C     C_R   0.897909 0.308456 0.089931 0.552177
O16   O     O_R   0.922080 0.403420 0.072610 -0.542647
O17   O     O_R   0.196880 0.369150 0.083850 -0.501610
C44   C     C_R   0.319087 0.300200 0.120095 0.572376
O18   O     O_R   0.411730 0.181020 0.091530 -0.468551
O19   O     O_R   0.365010 0.944360 0.063320 -0.481891
C45   C     C_R   0.290706 0.896223 0.087214 0.606611
O20   O     O_R   0.159380 0.906670 0.876210 -0.488471
O21   O     O_R   0.930820 0.177420 0.886730 -0.495663
C46   C     C_R   0.886662 0.297122 0.858942 0.555371
O22   O     O_R   0.910360 0.395420 0.895720 -0.518585
O23   O     O_R   0.186010 0.361730 0.919870 -0.490201
C47   C     C_R   0.278995 0.252724 0.877130 0.547616
O24   O     O_R   0.400000 0.173010 0.914630 -0.516325
O25   O     O_R   0.354140 0.936940 0.899340 -0.539346
C48   C     C_R   0.281516 0.880254 0.857900 0.555169
Cr4   Cr    Cr6+3 0.053960 0.052250 0.967380 1.009376
Cr5   Cr    Cr6+3 0.059890 0.373160 0.992710 1.006938
Cr6   Cr    Cr6+3 0.373370 0.061690 0.991710 1.039891
O26   O     O_3   0.162410 0.162370 0.983930 -0.277441
C49   C     C_2   0.714426 0.787945 0.766037 0.229073
H16   H     H_    0.662617 0.745643 0.795085 0.101236
O27   O     O_2   0.835721 0.707851 0.746275 -0.523353
O28   O     O_3   0.717694 0.950689 0.098047 -0.555875
C50   C     C_3   0.782640 0.922096 0.026580 -0.021071
H17   H     H_    0.892640 0.912268 0.038356 0.138761
H18   H     H_    0.713608 0.008029 0.987139 0.148750
C51   C     C_3   0.797937 0.781154 0.982067 -0.357335
H19   H     H_    0.690041 0.788782 0.964261 0.144946
H20   H     H_    0.853230 0.756564 0.927523 0.126133
H21   H     H_    0.863576 0.693047 0.020475 0.154331
C52   C     C_2   0.599456 0.664210 0.090523 0.248550
H22   H     H_    0.685850 0.648465 0.058400 0.123636
O29   O     O_2   0.520844 0.613512 0.059411 -0.517408

loop_
_geom_bond_atom_site_label_1
_geom_bond_atom_site_label_2
_geom_bond_distance
_ccdc_geom_bond_type
C6    C39   1.420393 S    
O23   C47   1.304079 A    
O11   Cr3   2.055185 S    
H11   C32   1.083333 S    
C19   C20   1.406087 A    
C2    C7    1.400228 S    
O19   C45   1.286022 A    
C30   C31   1.392743 A    
C33   H13   1.082954 S    
O4    Cr2   1.938466 S    
C46   O22   1.249313 A    
O20   Cr4   2.039556 S    
O8    Cr1   1.918758 S    
C9    C10   1.405410 A    
C12   C13   1.374932 A    
C35   C49   1.478563 S    
O4    C2    1.255523 A    
C29   C47   1.462833 S    
C23   H7    1.083423 S    
O17   Cr5   1.945202 S    
C5    O11   1.282659 A    
C5    C38   1.463167 S    
C29   C30   1.417980 A    
O12   C6    1.261912 A    
C20   C24   1.421701 A    
O14   Cr4   2.057325 S    
O24   Cr6   2.063390 S    
C31   C38   1.423081 A    
C40   C46   1.417340 S    
C34   H12   1.068289 S    
O28   C50   1.417671 S    
C11   C18   1.422797 A    
O6    C3    1.265625 A    
C49   O27   1.221073 D    
C9    C43   1.448058 S    
C7    C8    1.186262 T    
C39   C40   1.198416 T    
C4    C41   1.430763 S    
C11   C17   1.409246 A    
C32   C33   1.386683 A    
Cr5   O26   1.968287 S    
Cr3   O13   1.967893 S    
C49   H16   1.085733 S    
C31   C37   1.417140 A    
C52   O29   1.221480 D    
Cr6   O26   1.961149 S    
O14   C45   1.250381 A    
C1    C28   1.458835 S    
O25   Cr6   1.941206 S    
H1    C12   1.083740 S    
C26   H9    1.082713 S    
O1    Cr1   2.037228 S    
C10   C14   1.410283 A    
C17   H5    1.080961 S    
C25   C26   1.391563 A    
O10   Cr2   1.944157 S    
Cr1   O13   1.990733 S    
O1    C3    1.286043 A    
C43   O16   1.261039 A    
C42   C48   1.431252 S    
O17   C44   1.259185 A    
C21   C27   1.411626 A    
O5    Cr3   2.066663 S    
C50   C51   1.519056 S    
O12   Cr3   1.945739 S    
C44   O18   1.250895 A    
C13   H3    1.082595 S    
O15   C43   1.274591 A    
C35   C36   1.394241 A    
O22   Cr5   2.061615 S    
C8    C44   1.399533 S    
C14   C15   1.404462 A    
O7    Cr1   2.056484 S    
C52   H22   1.080682 S    
C24   C52   1.481921 S    
C50   H18   1.112116 S    
C16   C17   1.391600 A    
C51   H20   1.110068 S    
C37   H15   1.071705 S    
O21   C46   1.284660 A    
C25   H8    1.082407 S    
O15   Cr4   1.921139 S    
C26   C27   1.389252 A    
Cr2   O13   1.961917 S    
C9    C13   1.405850 A    
C20   C21   1.413942 A    
O18   Cr6   2.063133 S    
C1    O3    1.283516 A    
C10   C11   1.405069 A    
C22   C23   1.366843 A    
C22   C28   1.384935 A    
C12   C18   1.389623 A    
C24   C25   1.395530 A    
O9    Cr2   2.052729 S    
O2    Cr1   1.937976 S    
C14   H2    1.080360 S    
C41   C42   1.203914 T    
O6    Cr3   1.934539 S    
O8    C4    1.311181 A    
C21   C28   1.427802 A    
C30   C34   1.414464 A    
C2    O5    1.253447 A    
O20   C48   1.276495 A    
C36   H14   1.083213 S    
C16   H4    1.067206 S    
C15   O28   1.393140 S    
C15   C16   1.392230 A    
O2    C1    1.258005 A    
C32   C38   1.401745 A    
O19   Cr6   1.944893 S    
O25   C48   1.270041 A    
O7    C6    1.280400 A    
C19   C45   1.453043 S    
O23   Cr5   1.930708 S    
O16   Cr5   2.046498 S    
C50   H17   1.116365 S    
C51   H21   1.110640 S    
Cr4   O26   1.990509 S    
C34   C35   1.397511 A    
C36   C37   1.392470 A    
O3    Cr2   2.062577 S    
C29   C33   1.402263 A    
H6    C22   1.082871 S    
C47   O24   1.285021 A    
C51   H19   1.110808 S    
C3    C18   1.458649 S    
C19   C23   1.411391 A    
O10   C5    1.310250 A    
O21   Cr4   1.937005 S    
C4    O9    1.287947 A    
C27   H10   1.080776 S    
