data_mof_unit_2393.cif
_audit_creation_date              2012-12-10T17:15:50-0500
_audit_creation_method            fapswitch 2.2
_symmetry_space_group_name_H-M    P1
_symmetry_Int_Tables_number       1
_space_group_crystal_system       triclinic
_cell_length_a                    10.142702
_cell_length_b                    10.66156
_cell_length_c                    10.617427
_cell_angle_alpha                 89.551231
_cell_angle_beta                  95.14956
_cell_angle_gamma                 81.478159
_cell_volume                      1130.61764083

loop_
_atom_site_label
_atom_site_type_symbol
_atom_type_description
_atom_site_fract_x
_atom_site_fract_y
_atom_site_fract_z
_atom_type_partial_charge
C1    C     C_R   0.444299 0.512972 0.265993 0.887687
C2    C     C_R   0.520873 0.064875 0.381832 0.076861
C3    C     C_R   0.497864 0.128295 0.496210 -0.184621
C4    C     C_R   0.472473 0.064658 0.606290 -0.033702
C5    C     C_R   0.471877 0.935914 0.601334 -0.268311
C6    C     C_R   0.499063 0.871664 0.491446 -0.103288
C7    C     C_2   0.414858 0.540368 0.131767 -0.365765
C8    C     C_2   0.509099 0.583688 0.070321 -0.292110
C9    C     C_2   0.587948 0.520382 0.868464 -0.332790
C10   C     C_2   0.495841 0.593397 0.932873 0.420306
C11   C     C_2   0.072785 0.489571 0.489622 -0.115609
C12   C     C_R   0.499523 0.260585 0.500226 0.938718
C13   C     C_2   0.927253 0.510246 0.510617 -0.095670
C14   C     C_R   0.555766 0.499997 0.733888 0.977817
C15   C     C_R   0.499702 0.739413 0.496730 0.855592
C16   C     C_R   0.539527 0.129407 0.268929 -0.175543
C17   C     C_R   0.562851 0.063011 0.158476 -0.093795
C18   C     C_R   0.566751 0.932101 0.157853 -0.130790
C19   C     C_R   0.545826 0.867570 0.267231 -0.182981
C20   C     C_R   0.522982 0.933305 0.380152 0.106654
H1    H     H_    0.319913 0.524430 0.083416 0.191922
H2    H     H_    0.891201 0.578801 0.579375 0.164903
H3    H     H_    0.108849 0.420893 0.420983 0.163647
H4    H     H_    0.880160 0.384294 0.384232 0.173382
H5    H     H_    0.119883 0.615839 0.615687 0.182088
H6    H     H_    0.535302 0.231232 0.264279 0.139768
H7    H     H_    0.577505 0.113357 0.073091 0.160966
H8    H     H_    0.585314 0.880490 0.072332 0.137257
H9    H     H_    0.546784 0.766468 0.262567 0.139766
H10   H     H_    0.455593 0.883759 0.685199 0.167325
H11   H     H_    0.601722 0.602528 0.120408 0.215204
N1    N     N_2   0.157290 0.551390 0.551110 -0.181943
N2    N     N_2   0.842740 0.448550 0.448960 -0.185694
O1    O     O_R   0.568950 0.489660 0.307530 -0.608181
O2    O     O_R   0.348880 0.522640 0.340350 -0.611079
O3    O     O_R   0.610060 0.300270 0.483590 -0.591545
O4    O     O_R   0.389990 0.333260 0.516410 -0.612537
O5    O     O_R   0.651120 0.477360 0.659650 -0.587640
O6    O     O_R   0.431050 0.510340 0.692470 -0.532903
O7    O     O_R   0.610010 0.666740 0.483590 -0.626596
O8    O     O_R   0.389940 0.699730 0.516410 -0.605073
Zn1   Zn    Zn3+2 0.646940 0.477980 0.478090 0.979621
Zn2   Zn    Zn3+2 0.353060 0.522020 0.521910 0.990892
C21   C     C_2   0.451731 0.127813 0.728984 0.915311
O9    O     O_2   0.374769 0.091509 0.798720 -0.657354
O10   O     O_R   0.523430 0.225135 0.767376 -0.790273
H12   H     H_    0.501755 0.258228 0.853560 0.336149
O11   O     O_3   0.374830 0.650917 0.870585 -0.586855
C22   C     C_3   0.339500 0.775305 0.913640 0.098230
H13   H     H_    0.421139 0.832683 0.903026 0.147372
H14   H     H_    0.316675 0.774832 0.014147 0.162846
C23   C     C_3   0.214030 0.838041 0.834874 -0.735875
H15   H     H_    0.130159 0.783893 0.846086 0.239679
H16   H     H_    0.185492 0.936497 0.866676 0.246501
H17   H     H_    0.232162 0.840691 0.733361 0.256898
C24   C     C_2   0.720614 0.458318 0.928087 0.874017
O12   O     O_2   0.766813 0.352143 0.895841 -0.579912
O13   O     O_R   0.795235 0.522656 0.016149 -0.826520
H18   H     H_    0.883813 0.470389 0.048340 0.347575

loop_
_geom_bond_atom_site_label_1
_geom_bond_atom_site_label_2
_ccdc_geom_bond_type
C1    O1    A    
C9    C14   S    
C13   N2    D    
C14   O5    A    
C6    C20   A    
C9    C10   D    
O3    Zn1   S    
C19   C20   A    
O1    Zn1   S    
C23   H17   S    
C22   C23   S    
O2    Zn2   S    
C23   H16   S    
H5    N1    S    
O7    Zn1   S    
C17   C18   A    
C14   O6    A    
C18   H8    S    
C7    C8    D    
C9    C24   S    
C7    H1    S    
C24   O12   D    
C10   O11   S    
O8    Zn2   S    
C15   O8    A    
C16   C17   A    
C13   H2    S    
N2    Zn1   S    
C11   H3    S    
O11   C22   S    
N1    Zn2   S    
C24   O13   S    
C11   N1    D    
C2    C3    A    
C16   H6    S    
C5    C6    A    
C15   O7    A    
O4    Zn2   S    
O13   H18   S    
C12   O3    A    
C2    C20   A    
C3    C4    A    
C19   H9    S    
O5    Zn1   S    
C11   C13   S    
C2    C16   A    
C23   H15   S    
C1    O2    A    
C8    C10   S    
C22   H13   S    
C5    H10   S    
C12   O4    A    
O10   H12   S    
C18   C19   A    
O6    Zn2   S    
C3    C12   S    
C4    C21   S    
C6    C15   S    
C1    C7    S    
C8    H11   S    
C21   O9    D    
H4    N2    S    
C21   O10   S    
C4    C5    A    
C22   H14   S    
C17   H7    S    
