data_mof_unit_3978.cif
_audit_creation_date              2012-12-10T17:11:05-0500
_audit_creation_method            fapswitch 2.2
_symmetry_space_group_name_H-M    P1
_symmetry_Int_Tables_number       1
_space_group_crystal_system       triclinic
_cell_length_a                    10.031433
_cell_length_b                    10.714339
_cell_length_c                    16.749922
_cell_angle_alpha                 90.358928
_cell_angle_beta                  85.004817
_cell_angle_gamma                 91.46003
_cell_volume                      1792.85003615

loop_
_atom_site_label
_atom_site_type_symbol
_atom_type_description
_atom_site_fract_x
_atom_site_fract_y
_atom_site_fract_z
_atom_type_partial_charge
C1    C     C_R   0.501930 0.737527 0.502164 0.825461
C2    C     C_R   0.359448 0.516100 0.788810 0.495643
C3    C     C_R   0.638567 0.490804 0.130000 -0.084693
C4    C     C_R   0.636378 0.477191 0.212524 -0.219433
C5    C     C_R   0.432713 0.596735 0.229299 -0.153163
C6    C     C_R   0.436447 0.612250 0.147286 -0.228967
C7    C     C_R   0.535934 0.554942 0.097753 0.068110
C8    C     C_2   0.472579 0.430397 0.986254 0.472498
C9    C     C_2   0.515309 0.542050 0.013258 0.277649
C10   C     C_R   0.530134 0.525851 0.261814 -0.021498
C11   C     C_2   0.609477 0.069898 0.488230 -0.309227
C12   C     C_R   0.481021 0.495682 0.652977 0.923518
C13   C     C_2   0.502302 0.131166 0.469042 0.352504
C14   C     C_2   0.612020 0.935612 0.475958 0.503317
C15   C     C_2   0.509360 0.869967 0.514000 0.241556
C16   C     C_2   0.081609 0.468802 0.438210 0.592182
C17   C     C_2   0.934436 0.494397 0.435657 -0.196178
C18   C     C_R   0.499337 0.262819 0.491061 0.782647
C19   C     C_R   0.518786 0.504298 0.347176 0.858457
C20   C     C_R   0.468298 0.471804 0.738580 -0.281688
C21   C     C_R   0.563306 0.396190 0.769335 -0.375891
C22   C     C_R   0.556311 0.369684 0.850937 0.476085
C23   C     C_R   0.452139 0.419305 0.901436 -0.119354
C24   C     C_R   0.348236 0.485628 0.869961 0.313475
H1    H     H_    0.644351 0.359147 0.729862 0.185955
H2    H     H_    0.356571 0.660972 0.122140 0.153813
H3    H     H_    0.687614 0.113073 0.520959 0.120676
H4    H     H_    0.894828 0.502268 0.377730 0.143689
H5    H     H_    0.887256 0.471256 0.552071 0.226294
H6    H     H_    0.712941 0.423636 0.237412 0.144501
H7    H     H_    0.351943 0.637458 0.267178 0.165678
H8    H     H_    0.715091 0.445688 0.091182 0.161604
N1    N     N_2   0.147950 0.498670 0.499150 0.032495
N2    N     N_2   0.852290 0.498640 0.499130 -0.169414
O1    O     O_R   0.386960 0.680940 0.500010 -0.633360
O2    O     O_R   0.613100 0.680900 0.499990 -0.566863
O3    O     O_R   0.373570 0.500040 0.615810 -0.598594
O4    O     O_R   0.599710 0.500000 0.615790 -0.610948
O5    O     O_R   0.386900 0.319100 0.500010 -0.614035
O6    O     O_R   0.613040 0.319060 0.499990 -0.634061
O7    O     O_R   0.400290 0.500000 0.384210 -0.564864
O8    O     O_R   0.626430 0.499960 0.384190 -0.617829
Zn1   Zn    Zn3+2 0.349000 0.500030 0.500020 1.007138
Zn2   Zn    Zn3+2 0.651000 0.499970 0.499980 0.974532
O9    O     O_3   0.414568 0.068959 0.419987 -0.659043
C25   C     C_3   0.284230 0.116105 0.421002 0.112892
H9    H     H_    0.234172 0.066350 0.372985 0.141856
H10   H     H_    0.284585 0.214963 0.402342 0.202306
C26   C     C_3   0.200544 0.087068 0.500402 -0.280120
H11   H     H_    0.177606 0.985031 0.503177 0.228183
H12   H     H_    0.256974 0.112474 0.552526 0.256770
C27   C     C_3   0.069806 0.157384 0.507862 -0.966279
H13   H     H_    0.088907 0.254622 0.527409 0.279332
H14   H     H_    0.998026 0.112136 0.553677 0.259319
H15   H     H_    0.024471 0.158699 0.449843 0.252837
O10   O     O_3   0.703278 0.876354 0.420767 -0.654722
C28   C     C_3   0.811629 0.953947 0.389777 0.097143
H16   H     H_    0.897137 0.892660 0.372431 0.171523
H17   H     H_    0.847959 0.019075 0.435313 0.129273
C29   C     C_3   0.776758 0.022235 0.314364 -0.323615
H18   H     H_    0.757272 0.952380 0.267162 0.233682
H19   H     H_    0.684784 0.076787 0.327355 0.237946
C30   C     C_3   0.890445 0.110980 0.282799 -0.991347
H20   H     H_    0.905919 0.186088 0.327299 0.259223
H21   H     H_    0.864658 0.154774 0.226417 0.276950
H22   H     H_    0.984745 0.059478 0.270219 0.264524
O11   O     O_3   0.418546 0.927336 0.568677 -0.825521
H23   H     H_    0.352736 0.863909 0.591511 0.320574
O12   O     O_3   0.149808 0.412980 0.372996 -0.802326
H24   H     H_    0.085655 0.393249 0.332643 0.296683
O13   O     O_3   0.088961 0.580117 0.551323 -0.737014
H25   H     H_    0.159332 0.606583 0.586088 0.382687
O14   O     O_3   0.525586 0.645201 0.963545 -0.795494
H26   H     H_    0.556297 0.717817 0.994738 0.346801
O15   O     O_3   0.239237 0.529242 0.917233 -0.736902
H27   H     H_    0.235798 0.491069 0.970971 0.314757
O16   O     O_3   0.259373 0.584446 0.759059 -0.594745
C31   C     C_3   0.303534 0.709882 0.745813 0.100424
H28   H     H_    0.244185 0.747802 0.699019 0.155340
H29   H     H_    0.410808 0.719242 0.722346 0.100877
C32   C     C_3   0.277647 0.789017 0.821890 -0.299514
H30   H     H_    0.170947 0.777725 0.845346 0.255526
H31   H     H_    0.341374 0.757243 0.868404 0.266083
C33   C     C_3   0.309492 0.926975 0.805157 -0.933778
H32   H     H_    0.416282 0.940536 0.782538 0.280979
H33   H     H_    0.290631 0.981746 0.861344 0.267458
H34   H     H_    0.245073 0.962433 0.760035 0.271299
O17   O     O_3   0.474888 0.323177 0.032192 -0.621244
C34   C     C_3   0.348557 0.301883 0.074998 0.060391
H35   H     H_    0.292986 0.389084 0.090055 0.108658
H36   H     H_    0.366361 0.259077 0.133257 0.185225
C35   C     C_3   0.263264 0.210407 0.029096 -0.349904
H37   H     H_    0.243722 0.251376 0.970634 0.221763
H38   H     H_    0.318456 0.122613 0.017244 0.242757
C36   C     C_3   0.129682 0.180092 0.076615 -0.929409
H39   H     H_    0.146415 0.136551 0.134810 0.261064
H40   H     H_    0.070256 0.113623 0.041965 0.275883
H41   H     H_    0.071743 0.266381 0.087906 0.267144
O18   O     O_3   0.654278 0.302693 0.883452 -0.718416
H42   H     H_    0.720818 0.275916 0.839843 0.333847

loop_
_geom_bond_atom_site_label_1
_geom_bond_atom_site_label_2
_ccdc_geom_bond_type
C14   O10   S    
C30   H21   S    
O14   H26   S    
C36   H39   S    
C33   H34   S    
C18   O5    A    
C32   H30   S    
C36   H41   S    
O16   C31   S    
C25   C26   S    
C9    O14   S    
C13   C18   S    
C29   C30   S    
C33   H33   S    
C3    C7    A    
C5    C6    A    
C11   C14   S    
C31   H29   S    
C28   H17   S    
C8    C23   S    
O10   C28   S    
C29   H19   S    
C12   O3    A    
C18   O6    A    
C8    C9    D    
C26   H12   S    
C23   C24   A    
C1    C15   S    
C34   H36   S    
O1    Zn1   S    
C19   O8    A    
C30   H22   S    
C21   C22   A    
O7    Zn1   S    
O12   H24   S    
O8    Zn2   S    
C5    C10   A    
C32   H31   S    
C27   H14   S    
C25   H10   S    
C2    C20   A    
O11   H23   S    
N1    Zn1   S    
N2    Zn2   S    
C33   H32   S    
C31   H28   S    
C16   C17   S    
C28   C29   S    
O5    Zn1   S    
O9    C25   S    
H5    N2    S    
C35   C36   S    
C29   H18   S    
C8    O17   S    
O3    Zn1   S    
O15   H27   S    
O4    Zn2   S    
C16   N1    D    
O18   H42   S    
C11   H3    S    
C10   C19   S    
C26   C27   S    
C15   O11   S    
C12   C20   S    
C35   H38   S    
C36   H40   S    
O17   C34   S    
C34   C35   S    
C2    C24   A    
O2    Zn2   S    
C17   N2    D    
C4    C10   A    
C3    C4    A    
C32   C33   S    
C27   H13   S    
C1    O1    A    
C7    C9    S    
C21   H1    S    
C25   H9    S    
C22   O18   S    
C14   C15   D    
C17   H4    S    
C16   O12   S    
C27   H15   S    
C24   O15   S    
C6    C7    A    
O13   H25   S    
C2    O16   S    
C13   O9    S    
C11   C13   D    
C31   C32   S    
C28   H16   S    
C6    H2    S    
C35   H37   S    
C12   O4    A    
C3    H8    S    
N1    O13   S    
C30   H20   S    
O6    Zn2   S    
C20   C21   A    
C26   H11   S    
C22   C23   A    
C34   H35   S    
C4    H6    S    
C19   O7    A    
C1    O2    A    
C5    H7    S    
