data_mof_unit_4215.cif
_audit_creation_date              2012-12-10T20:39:12-0500
_audit_creation_method            fapswitch 2.2
_symmetry_space_group_name_H-M    P1
_symmetry_Int_Tables_number       1
_space_group_crystal_system       triclinic
_cell_length_a                    19.003647
_cell_length_b                    10.651184
_cell_length_c                    9.855506
_cell_angle_alpha                 89.530278
_cell_angle_beta                  90.314972
_cell_angle_gamma                 90.63664
_cell_volume                      1994.64684983

loop_
_atom_site_label
_atom_site_type_symbol
_atom_type_description
_atom_site_fract_x
_atom_site_fract_y
_atom_site_fract_z
_atom_type_partial_charge
C1    C     C_R   0.499238 0.260167 0.500132 0.976602
C2    C     C_R   0.854167 0.425561 0.500829 0.094911
C3    C     C_R   0.444752 0.060198 0.557442 0.035358
C4    C     C_R   0.365246 0.498512 0.499531 0.911153
C5    C     C_R   0.499314 0.127976 0.496553 -0.258827
C6    C     C_R   0.547584 0.067403 0.411603 0.471960
C7    C     C_R   0.548339 0.936596 0.412088 -0.326186
C8    C     C_R   0.501213 0.870884 0.495514 -0.129879
C9    C     C_R   0.447583 0.932498 0.560356 0.070956
C10   C     C_3   0.420113 0.921417 0.701206 -0.497188
C11   C     C_3   0.413155 0.063757 0.696248 0.301173
C12   C     C_R   0.289910 0.475161 0.497932 -0.051259
C13   C     C_R   0.464049 0.409500 0.071941 0.200224
C14   C     C_R   0.540864 0.582223 0.072078 -0.268074
C15   C     C_R   0.542391 0.581242 0.926403 0.525314
C16   C     C_R   0.502018 0.739474 0.499305 0.925878
C17   C     C_R   0.463944 0.409502 0.929549 0.072353
C18   C     C_3   0.386711 0.384265 0.924646 -0.389341
C19   C     C_3   0.386989 0.384720 0.078332 -0.509461
C20   C     C_R   0.634890 0.497763 0.500307 0.866146
C21   C     C_R   0.248198 0.514939 0.605060 -0.126976
C22   C     C_R   0.177459 0.481785 0.608098 -0.154288
C23   C     C_R   0.930031 0.404767 0.500645 0.273891
C24   C     C_R   0.147969 0.407200 0.505085 -0.059178
C25   C     C_R   0.190852 0.361567 0.400130 0.420533
C26   C     C_R   0.261287 0.398337 0.396562 -0.221104
C27   C     C_3   0.648870 0.691392 0.902512 0.068265
C28   C     C_3   0.654142 0.824519 0.959343 -0.379735
C29   C     C_3   0.726253 0.850084 0.022669 -0.920414
C30   C     C_3   0.589931 0.124273 0.202929 0.110501
C31   C     C_3   0.633185 0.226628 0.131219 -0.321112
C32   C     C_3   0.626829 0.216840 0.977161 -0.979946
C33   C     C_R   0.071756 0.392169 0.502272 0.360048
C34   C     C_R   0.817821 0.433175 0.623940 -0.149373
C35   C     C_R   0.746585 0.460434 0.624036 -0.200045
C36   C     C_R   0.710797 0.480075 0.500996 -0.018975
C37   C     C_R   0.747084 0.472657 0.377944 -0.192023
C38   C     C_R   0.818254 0.445447 0.377854 -0.149015
H1    H     H_    0.270229 0.572130 0.685537 0.151345
H2    H     H_    0.145232 0.517730 0.689065 0.178101
H3    H     H_    0.374838 0.291296 0.124059 0.210452
H4    H     H_    0.294764 0.362491 0.317780 0.165629
H5    H     H_    0.844351 0.418985 0.720278 0.156770
H6    H     H_    0.719464 0.464252 0.720281 0.145515
H7    H     H_    0.720446 0.486437 0.281573 0.146039
H8    H     H_    0.845040 0.440478 0.281372 0.157003
H9    H     H_    0.234468 0.072207 0.555610 0.409433
H10   H     H_    0.685921 0.684845 0.816111 0.169120
H11   H     H_    0.666883 0.620311 0.978545 0.105944
H12   H     H_    0.587951 0.887196 0.355284 0.155751
H13   H     H_    0.644803 0.893428 0.876027 0.232449
H14   H     H_    0.613069 0.838057 0.037286 0.207447
H15   H     H_    0.735650 0.784503 0.108959 0.264412
H16   H     H_    0.728579 0.947760 0.061122 0.269180
H17   H     H_    0.768240 0.838686 0.945908 0.275043
H18   H     H_    0.243719 0.219117 0.133141 0.371591
H19   H     H_    0.533597 0.135525 0.172713 0.140467
H20   H     H_    0.608610 0.031021 0.169616 0.135976
H21   H     H_    0.614508 0.320273 0.163251 0.238418
H22   H     H_    0.689454 0.218319 0.161044 0.231581
H23   H     H_    0.369606 0.867884 0.705428 0.246774
H24   H     H_    0.570834 0.220956 0.944913 0.261857
H25   H     H_    0.655940 0.296062 0.928560 0.264337
H26   H     H_    0.649571 0.127274 0.942137 0.272489
H27   H     H_    0.460899 0.889258 0.774638 0.189263
H28   H     H_    0.445914 0.114574 0.772309 0.065382
H29   H     H_    0.571063 0.650672 0.128670 0.158779
H30   H     H_    0.356473 0.462678 0.878543 0.222256
H31   H     H_    0.374720 0.290059 0.883875 0.257063
H32   H     H_    0.357481 0.464509 0.121368 0.225446
N1    N     N_R   0.036242 0.409625 0.384346 -0.080011
N2    N     N_R   0.966587 0.415115 0.383385 -0.149322
N3    N     N_R   0.965557 0.385578 0.618625 -0.161762
N4    N     N_R   0.035322 0.379820 0.619530 -0.144135
N5    N     N_R   0.499530 0.499140 0.142800 -0.121228
N6    N     N_R   0.499530 0.499180 0.857150 -0.136749
O1    O     O_R   0.500010 0.316790 0.614690 -0.626888
O2    O     O_2   0.319650 0.247575 0.655525 -0.344237
O3    O     O_3   0.279969 0.028852 0.567516 -0.509792
O4    O     O_3   0.580112 0.669657 0.851202 -0.614660
O5    O     O_2   0.107989 0.163363 0.338716 -0.241258
O6    O     O_2   0.124986 0.324164 0.162782 -0.281380
O7    O     O_3   0.227748 0.171457 0.214254 -0.509966
O8    O     O_3   0.599281 0.136214 0.344589 -0.633602
O9    O     O_R   0.500000 0.316760 0.385350 -0.598088
O10   O     O_R   0.398140 0.500000 0.614710 -0.604881
O11   O     O_R   0.398130 0.499970 0.385370 -0.626774
O12   O     O_R   0.500000 0.683240 0.614650 -0.573947
O13   O     O_R   0.499990 0.683210 0.385310 -0.621686
O14   O     O_R   0.601870 0.500030 0.614630 -0.600736
O15   O     O_R   0.601860 0.500000 0.385290 -0.631418
O16   O     O_2   0.288868 0.085445 0.823527 -0.273661
S1    S     S_3+6 0.322944 0.110204 0.688558 0.014818
S2    S     S_3+6 0.160201 0.253638 0.276658 0.055353
Zn1   Zn    Zn3+2 0.500000 0.500020 0.653130 0.996511
Zn2   Zn    Zn3+2 0.500000 0.499980 0.346870 0.955321

loop_
_geom_bond_atom_site_label_1
_geom_bond_atom_site_label_2
_ccdc_geom_bond_type
C27   H10   S    
O6    S2    D    
C1    O1    A    
N3    N4    A    
C35   C36   A    
H9    O3    S    
C7    C8    A    
C4    O11   A    
C1    C5    S    
C36   C37   A    
O3    S1    S    
N6    Zn1   S    
C30   C31   S    
O9    Zn2   S    
C4    O10   A    
C29   H16   S    
O2    S1    D    
C18   H30   S    
C30   H19   S    
C34   C35   A    
C31   H21   S    
O15   Zn2   S    
C31   C32   S    
C8    C9    A    
C17   N6    A    
C14   H29   S    
C4    C12   S    
C9    C10   S    
C11   H28   S    
C2    C34   A    
C18   H31   S    
C15   N6    A    
O12   Zn1   S    
C16   O13   A    
C8    C16   S    
C21   C22   A    
C7    H12   S    
C23   N3    A    
N5    Zn2   S    
C1    O9    A    
C20   O15   A    
C6    O8    S    
C13   C19   S    
C13   N5    A    
O14   Zn1   S    
C24   C25   A    
C32   H26   S    
C27   O4    S    
O10   Zn1   S    
C18   C19   S    
C29   H17   S    
C25   C26   A    
O7    S2    S    
C20   O14   A    
C12   C21   A    
O1    Zn1   S    
C12   C26   A    
C31   H22   S    
C37   C38   A    
C3    C9    A    
C2    C38   A    
C15   O4    S    
C21   H1    S    
C22   H2    S    
O11   Zn2   S    
C17   C18   S    
C35   H6    S    
C22   C24   A    
C10   H23   S    
C37   H7    S    
C2    C23   S    
C26   H4    S    
H18   O7    S    
C10   H27   S    
C28   C29   S    
C23   N2    A    
C34   H5    S    
C32   H25   S    
C3    C5    A    
C6    C7    A    
C24   C33   S    
C13   C17   A    
C14   N5    A    
O13   Zn2   S    
C32   H24   S    
N1    N2    A    
O5    S2    D    
C28   H14   S    
C11   S1    S    
C5    C6    A    
C29   H15   S    
C30   H20   S    
O16   S1    D    
C28   H13   S    
C30   O8    S    
C38   H8    S    
C3    C11   S    
C10   C11   S    
C33   N1    A    
C20   C36   S    
C27   H11   S    
C33   N4    A    
C25   S2    S    
C27   C28   S    
C16   O12   A    
C14   C15   A    
C19   H32   S    
C19   H3    S    
