data_mof_unit_2133.cif
_audit_creation_date              2012-12-10T20:43:58-0500
_audit_creation_method            fapswitch 2.2
_symmetry_space_group_name_H-M    P1
_symmetry_Int_Tables_number       1
_space_group_crystal_system       triclinic
_cell_length_a                    17.420796
_cell_length_b                    10.688646
_cell_length_c                    9.857859
_cell_angle_alpha                 89.360292
_cell_angle_beta                  89.815795
_cell_angle_gamma                 90.28386
_cell_volume                      1835.43313927

loop_
_atom_site_label
_atom_site_type_symbol
_atom_type_description
_atom_site_fract_x
_atom_site_fract_y
_atom_site_fract_z
_atom_type_partial_charge
C1    C     C_R   0.502768 0.259742 0.500394 0.901200
C2    C     C_R   0.885378 0.573565 0.491812 -0.044401
C3    C     C_1   0.966196 0.586759 0.491409 -0.018970
C4    C     C_1   0.034412 0.587682 0.491494 0.063796
C5    C     C_R   0.156565 0.603625 0.609884 0.493664
C6    C     C_R   0.235175 0.577462 0.612443 -0.257954
C7    C     C_R   0.270853 0.523764 0.499480 -0.073037
C8    C     C_R   0.228461 0.498935 0.382313 -0.179703
C9    C     C_R   0.150711 0.525083 0.378961 -0.231784
C10   C     C_R   0.115172 0.576613 0.492214 0.085389
C11   C     C_R   0.524100 0.061860 0.621107 0.147107
C12   C     C_R   0.353255 0.503295 0.500120 0.907938
C13   C     C_R   0.516447 0.128386 0.499713 -0.107863
C14   C     C_R   0.525237 0.066155 0.375795 -0.184853
C15   C     C_R   0.525515 0.936732 0.374950 -0.210693
C16   C     C_R   0.517119 0.871114 0.498025 -0.107644
C17   C     C_R   0.524370 0.934074 0.620105 0.140071
C18   C     C_3   0.477831 0.923307 0.747161 -0.459439
C19   C     C_3   0.477366 0.064839 0.748302 -0.492397
C20   C     C_R   0.435644 0.466059 0.072505 0.163926
C21   C     C_R   0.561137 0.544580 0.071023 -0.086441
C22   C     C_R   0.561182 0.544455 0.927076 -0.124616
C23   C     C_R   0.503099 0.740028 0.499259 0.871734
C24   C     C_R   0.435234 0.466783 0.929704 0.186189
C25   C     C_3   0.395887 0.342308 0.928478 0.064747
C26   C     C_3   0.396416 0.342561 0.082288 -0.514321
C27   C     C_R   0.646793 0.500224 0.499633 0.932777
C28   C     C_R   0.839675 0.623001 0.596484 0.503984
C29   C     C_R   0.761895 0.593886 0.598713 -0.230278
C30   C     C_R   0.729484 0.517764 0.498731 -0.202940
C31   C     C_R   0.775774 0.468304 0.395302 0.272556
C32   C     C_R   0.853495 0.496985 0.392732 -0.211505
H1    H     H_    0.526173 0.889307 0.278404 0.175560
H2    H     H_    0.420080 0.881485 0.730362 0.211870
H3    H     H_    0.510975 0.881262 0.832255 0.209467
H4    H     H_    0.419229 0.104665 0.731846 0.226053
H5    H     H_    0.510521 0.103748 0.834375 0.206826
H6    H     H_    0.611000 0.578707 0.124469 0.174340
H7    H     H_    0.611074 0.578485 0.872264 0.161551
H8    H     H_    0.432453 0.269126 0.884657 0.138728
H9    H     H_    0.338677 0.349782 0.129525 0.226287
H10   H     H_    0.726298 0.633416 0.677660 0.182560
H11   H     H_    0.433601 0.268767 0.127146 0.192339
H12   H     H_    0.889617 0.456815 0.314856 0.192213
H13   H     H_    0.268419 0.600194 0.701608 0.175355
H14   H     H_    0.255257 0.458761 0.293783 0.170181
H15   H     H_    0.117921 0.502852 0.289024 0.175057
H16   H     H_    0.525916 0.116077 0.279559 0.177932
N1    N     N_R   0.499490 0.499140 0.142800 -0.107049
N2    N     N_R   0.499490 0.499180 0.857150 -0.129323
O1    O     O_R   0.500010 0.316790 0.614690 -0.612428
O2    O     O_R   0.500000 0.316760 0.385350 -0.614528
O3    O     O_R   0.389120 0.500020 0.614710 -0.587726
O4    O     O_R   0.389110 0.499990 0.385370 -0.623871
O5    O     O_R   0.500000 0.683240 0.614650 -0.623165
O6    O     O_R   0.499990 0.683210 0.385310 -0.624237
O7    O     O_R   0.610890 0.500010 0.614630 -0.628646
O8    O     O_R   0.610880 0.499980 0.385290 -0.584281
Zn1   Zn    Zn3+2 0.500010 0.500020 0.653130 0.965902
Zn2   Zn    Zn3+2 0.499990 0.499980 0.346870 0.973249
O9    O     O_3   0.867876 0.698249 0.698202 -0.738331
H17   H     H_    0.922626 0.717785 0.681203 0.361168
Br1   Br    Br    0.292959 0.349880 0.854628 -0.518435
Br2   Br    Br    0.737756 0.355292 0.260411 -0.492131
O10   O     O_3   0.119117 0.653568 0.720391 -0.752511
H18   H     H_    0.156638 0.665773 0.794592 0.343783

loop_
_geom_bond_atom_site_label_1
_geom_bond_atom_site_label_2
_ccdc_geom_bond_type
C14   H16   S    
C23   O5    A    
C6    C7    A    
C19   H5    S    
C6    H13   S    
O5    Zn1   S    
C29   H10   S    
C20   N1    A    
C11   C13   A    
C18   H3    S    
C31   C32   A    
C30   C31   A    
C22   N2    A    
C28   O9    S    
C21   N1    A    
C17   C18   S    
O3    Zn1   S    
C23   O6    A    
O4    Zn2   S    
C21   C22   A    
C27   C30   S    
C27   O7    A    
C21   H6    S    
C1    O1    A    
C11   C19   S    
C29   C30   A    
N1    Zn2   S    
C20   C26   S    
O8    Zn2   S    
C12   O4    A    
C5    C6    A    
C9    C10   A    
C2    C32   A    
C28   C29   A    
O6    Zn2   S    
C26   H11   S    
C9    H15   S    
C16   C23   S    
C2    C3    S    
C19   H4    S    
C18   H2    S    
C25   H8    S    
C24   N2    A    
O9    H17   S    
C1    O2    A    
C8    H14   S    
C7    C12   S    
O7    Zn1   S    
C1    C13   S    
N2    Zn1   S    
C4    C10   S    
C15   C16   A    
C16   C17   A    
C20   C24   A    
C5    C10   A    
O1    Zn1   S    
C24   C25   S    
C32   H12   S    
C5    O10   S    
O10   H18   S    
C25   Br1   S    
C7    C8    A    
C14   C15   A    
C18   C19   S    
C2    C28   A    
O2    Zn2   S    
C25   C26   S    
C13   C14   A    
C22   H7    S    
C31   Br2   S    
C15   H1    S    
C11   C17   A    
C3    C4    T    
C12   O3    A    
C26   H9    S    
C8    C9    A    
C27   O8    A    
