data_mof_unit_819.cif
_audit_creation_date              2012-12-10T17:38:46-0500
_audit_creation_method            fapswitch 2.2
_symmetry_space_group_name_H-M    P1
_symmetry_Int_Tables_number       1
_space_group_crystal_system       triclinic
_cell_length_a                    12.31278
_cell_length_b                    13.092665
_cell_length_c                    23.505111
_cell_angle_alpha                 77.981445
_cell_angle_beta                  100.891842
_cell_angle_gamma                 116.337397
_cell_volume                      3301.20512988

loop_
_atom_site_label
_atom_site_type_symbol
_atom_type_description
_atom_site_fract_x
_atom_site_fract_y
_atom_site_fract_z
_atom_type_partial_charge
C1    C     C_R   0.855069 0.286158 0.506037 0.777665
C2    C     C_R   0.839757 0.305945 0.036525 -0.162320
C3    C     C_R   0.840023 0.305612 0.977232 -0.162682
C4    C     C_R   0.924045 0.400297 0.944228 -0.016328
C5    C     C_R   0.008821 0.495798 0.971448 -0.017939
C6    C     C_R   0.093354 0.591289 0.938752 -0.016428
C7    C     C_R   0.177741 0.685922 0.966363 -0.162848
C8    C     C_R   0.177832 0.686031 0.025710 -0.162592
C9    C     C_R   0.925054 0.402566 0.884392 0.536514
C10   C     C_R   0.090804 0.589667 0.879032 0.535766
C11   C     C_R   0.960547 0.569556 0.751239 -0.100491
C12   C     C_R   0.000143 0.501527 0.608805 0.803405
C13   C     C_R   0.957237 0.572757 0.690951 0.129606
C14   C     C_R   0.999348 0.502346 0.671391 -0.050026
C15   C     C_R   0.043852 0.431660 0.712805 -0.261818
C16   C     C_R   0.045880 0.429289 0.772445 -0.104197
C17   C     C_R   0.004403 0.498206 0.791770 0.316606
C18   C     C_R   0.100079 0.488238 0.251075 -0.106410
C19   C     C_R   0.098560 0.488878 0.310143 -0.216865
C20   C     C_R   0.002703 0.499994 0.328692 -0.038480
C21   C     C_R   0.908617 0.510601 0.287076 -0.225635
C22   C     C_R   0.910181 0.509531 0.228054 -0.102280
C23   C     C_R   0.145019 0.713942 0.489689 0.808704
C24   C     C_R   0.005841 0.498334 0.209901 0.359635
C25   C     C_R   0.286117 0.019686 0.411628 -0.174465
C26   C     C_R   0.228034 0.835897 0.474688 -0.065748
C27   C     C_R   0.811787 0.086388 0.551916 -0.186151
C28   C     C_R   0.730475 0.972858 0.566376 -0.135077
C29   C     C_R   0.608654 0.934937 0.543249 -0.182629
C30   C     C_R   0.566374 0.009346 0.502513 0.089769
C31   C     C_R   0.652879 0.121625 0.483285 0.079904
C32   C     C_R   0.441583 0.976034 0.479723 0.076396
C33   C     C_R   0.407958 0.050949 0.434886 0.116624
C34   C     C_R   0.000858 0.500228 0.391092 0.789644
C35   C     C_R   0.496590 0.155605 0.412396 -0.220991
C36   C     C_R   0.617351 0.189840 0.435621 -0.187912
C37   C     C_R   0.348968 0.870855 0.500250 -0.292179
C38   C     C_R   0.195482 0.912087 0.430295 0.170632
C39   C     C_R   0.773395 0.162578 0.511846 -0.102626
C40   C     C_R   0.354534 0.341276 0.598188 -0.291239
C41   C     C_R   0.760115 0.644404 0.420631 0.017933
C42   C     C_R   0.674228 0.689731 0.408492 -0.251766
C43   C     C_R   0.577029 0.647376 0.442393 0.178636
C44   C     C_R   0.558355 0.547343 0.485058 -0.025877
C45   C     C_R   0.091002 0.590213 0.118228 0.531944
C46   C     C_R   0.655404 0.510624 0.498750 0.244668
C47   C     C_R   0.451740 0.484059 0.516227 -0.030233
C48   C     C_R   0.453660 0.400085 0.565086 0.169687
C49   C     C_R   0.552931 0.372636 0.579898 -0.274861
C50   C     C_R   0.649457 0.423952 0.546414 -0.177570
C51   C     C_R   0.340120 0.494864 0.499766 0.015344
C52   C     C_R   0.251865 0.363287 0.582182 0.078834
C53   C     C_R   0.924600 0.403509 0.123512 0.531363
C54   C     C_R   0.923596 0.400915 0.064048 -0.014486
C55   C     C_R   0.008724 0.496027 0.031447 -0.017404
C56   C     C_R   0.093456 0.591559 0.058650 -0.014693
Cu1   Cu    Cu3+1 0.098270 0.475410 0.513370 0.936778
Cu2   Cu    Cu3+1 0.901730 0.524590 0.486630 0.919967
H1    H     H_    0.773522 0.231710 0.060646 0.189072
H2    H     H_    0.172502 0.480928 0.341171 0.154993
H3    H     H_    0.833597 0.519223 0.300079 0.157631
H4    H     H_    0.837243 0.517662 0.196328 0.141246
H5    H     H_    0.472501 0.211519 0.376539 0.147328
H6    H     H_    0.262325 0.078210 0.377280 0.138021
H7    H     H_    0.368570 0.812712 0.535851 0.157231
H8    H     H_    0.904037 0.115575 0.573631 0.150276
H9    H     H_    0.550867 0.846291 0.557326 0.131674
H10   H     H_    0.761127 0.914678 0.597327 0.145289
H11   H     H_    0.773958 0.231153 0.957339 0.188941
H12   H     H_    0.682701 0.269506 0.414720 0.171245
H13   H     H_    0.175754 0.319775 0.608064 0.119100
H14   H     H_    0.554315 0.307583 0.616767 0.162499
H15   H     H_    0.356420 0.278514 0.636129 0.144365
H16   H     H_    0.324091 0.545130 0.459556 0.146191
H17   H     H_    0.835977 0.680521 0.394954 0.142988
H18   H     H_    0.687696 0.762833 0.374435 0.158461
H19   H     H_    0.718410 0.393257 0.560058 0.211579
H20   H     H_    0.243750 0.760298 0.942204 0.189071
H21   H     H_    0.243934 0.760471 0.045606 0.189041
H22   H     H_    0.929050 0.622595 0.767145 0.139012
H23   H     H_    0.076296 0.377118 0.698979 0.158184
H24   H     H_    0.080168 0.374157 0.803755 0.149008
H25   H     H_    0.174221 0.479480 0.237246 0.139161
N1    N     N_R   0.007281 0.497266 0.149212 -0.469986
N2    N     N_R   0.007265 0.496459 0.853179 -0.465221
N3    N     N_R   0.246280 0.438190 0.533650 -0.182300
N4    N     N_R   0.754320 0.561190 0.466710 -0.200585
O1    O     O_R   0.972510 0.318130 0.516820 -0.575658
O2    O     O_2   0.844141 0.312955 0.155523 -0.538806
O3    O     O_2   0.843844 0.312347 0.857425 -0.538709
O4    O     O_2   0.171225 0.680249 0.847015 -0.537515
O5    O     O_R   0.806530 0.359650 0.494230 -0.599105
O6    O     O_R   0.082990 0.479200 0.593420 -0.581283
O7    O     O_R   0.917010 0.520720 0.570830 -0.592597
O8    O     O_R   0.193470 0.640350 0.505770 -0.582385
O9    O     O_R   0.027490 0.681870 0.483180 -0.576264
O10   O     O_R   0.082990 0.479280 0.429170 -0.585577
O11   O     O_R   0.917010 0.520800 0.406580 -0.595547
O12   O     O_2   0.170810 0.681346 0.144918 -0.537921
C57   C     C_3   0.067969 0.879430 0.399863 -0.845877
H26   H     H_    0.004186 0.862246 0.431930 0.244914
H27   H     H_    0.061055 0.949165 0.365331 0.224178
H28   H     H_    0.040457 0.802333 0.378410 0.228658
C58   C     C_3   0.511293 0.723251 0.437121 -0.864907
H29   H     H_    0.435532 0.702313 0.401139 0.229766
H30   H     H_    0.478472 0.716720 0.479099 0.229875
H31   H     H_    0.574332 0.815414 0.426728 0.243576
C59   C     C_3   0.912410 0.653938 0.649282 -0.819084
H32   H     H_    0.981525 0.710738 0.618923 0.236360
H33   H     H_    0.824958 0.604329 0.624066 0.250997
H34   H     H_    0.895747 0.710060 0.672819 0.216617

loop_
_geom_bond_atom_site_label_1
_geom_bond_atom_site_label_2
_ccdc_geom_bond_type
C55   C56   A    
C10   N2    A    
C41   C42   A    
C35   C36   A    
Cu2   O11   S    
C51   H16   S    
Cu2   N4    S    
C8    C56   A    
C58   H30   S    
C7    C8    A    
C15   H23   S    
C53   C54   A    
C23   O9    A    
C23   O8    A    
C53   N1    A    
C18   C24   A    
C28   C29   A    
C28   H10   S    
C5    C6    A    
C33   C35   A    
C2    C54   A    
C41   H17   S    
C15   C16   A    
C34   O10   A    
C59   H32   S    
C18   C19   A    
C23   C26   S    
Cu2   O9    S    
C43   C58   S    
C9    N2    A    
C29   H9    S    
C19   C20   A    
C45   C56   A    
C44   C46   A    
C16   C17   A    
C49   H14   S    
C37   H7    S    
Cu1   N3    S    
C8    H21   S    
C21   H3    S    
C44   C47   A    
C20   C34   S    
C1    O1    A    
Cu1   O6    S    
C21   C22   A    
C12   O7    A    
C13   C59   S    
C51   N3    A    
C57   H27   S    
C58   H29   S    
C36   H12   S    
C41   N4    A    
C38   C57   S    
C45   O12   S    
C27   C39   A    
C2    H1    S    
C26   C38   A    
C47   C51   A    
C40   C52   A    
C57   H28   S    
C25   H6    S    
C43   C44   A    
C29   C30   A    
C40   H15   S    
C25   C38   A    
C22   H4    S    
C47   C48   A    
C31   C39   A    
Cu1   O10   S    
C16   H24   S    
C18   H25   S    
C32   C37   A    
C7    H20   S    
C48   C49   A    
C12   C14   S    
C10   O4    S    
C1    O5    A    
C53   O2    S    
C17   N2    S    
C12   O6    A    
C45   N1    A    
C42   C43   A    
C3    C4    A    
C50   H19   S    
C46   N4    A    
C40   C48   A    
C54   C55   A    
C11   C17   A    
C3    H11   S    
C31   C36   A    
C5    C55   A    
C4    C5    A    
C9    O3    S    
C6    C10   A    
Cu1   O1    S    
C26   C37   A    
C6    C7    A    
C19   H2    S    
C46   C50   A    
C42   H18   S    
C59   H34   S    
C32   C33   A    
C52   N3    A    
C2    C3    A    
C24   N1    S    
C27   H8    S    
C30   C32   A    
C11   C13   A    
Cu1   Cu2   S    
C30   C31   A    
C57   H26   S    
C34   O11   A    
C59   H33   S    
C22   C24   A    
Cu2   O7    S    
C11   H22   S    
C1    C39   S    
C20   C21   A    
C49   C50   A    
Cu1   O8    S    
C27   C28   A    
C52   H13   S    
C14   C15   A    
C35   H5    S    
C4    C9    A    
C13   C14   A    
Cu2   O5    S    
C58   H31   S    
C25   C33   A    
