data_mof_unit_2295.cif
_audit_creation_date              2012-12-11T15:55:39-0500
_audit_creation_method            fapswitch 2.2
_symmetry_space_group_name_H-M    P1
_symmetry_Int_Tables_number       1
_space_group_crystal_system       triclinic
_cell_length_a                    6.955346
_cell_length_b                    14.534715
_cell_length_c                    16.079473
_cell_angle_alpha                 89.974986
_cell_angle_beta                  90.019632
_cell_angle_gamma                 90.076196
_cell_volume                      1625.53610317

loop_
_atom_site_label
_atom_site_type_symbol
_atom_type_description
_atom_site_fract_x
_atom_site_fract_y
_atom_site_fract_z
_atom_type_partial_charge
O1    O     O_R   0.505680 0.583900 0.413320 -0.537509
O2    O     O_R   0.176010 0.594950 0.586080 -0.547273
O3    O     O_R   0.005680 0.416100 0.586680 -0.536125
C1    C     C_R   0.345664 0.615215 0.616548 0.683043
O4    O     O_R   0.175960 0.594930 0.413930 -0.537466
O5    O     O_R   0.005640 0.416080 0.413300 -0.537135
C2    C     C_R   0.344946 0.618589 0.386381 0.706243
O6    O     O_R   0.505720 0.583920 0.586700 -0.533998
O7    O     O_3   0.339190 0.441320 0.500000 -0.367353
V1    V     V_3+5 0.064350 0.510890 0.500000 1.393107
O8    O     O_R   0.675920 0.405050 0.413920 -0.536497
C3    C     C_R   0.845271 0.380231 0.387437 0.702233
O9    O     O_R   0.675960 0.405070 0.586070 -0.546995
C4    C     C_R   0.844833 0.384074 0.615622 0.693268
V2    V     V_3+5 0.564340 0.489110 0.500000 1.395659
O10   O     O_3   0.839370 0.558680 0.500000 -0.369907
C5    C     C_R   0.021938 0.264394 0.698274 0.094241
C6    C     C_R   0.855026 0.315080 0.683422 -0.100550
C7    C     C_R   0.700949 0.301350 0.737922 -0.203158
H1    H     H_    0.579349 0.345808 0.733003 0.145501
C8    C     C_R   0.711212 0.236922 0.803205 -0.181740
H2    H     H_    0.593556 0.232116 0.846816 0.133886
C9    C     C_R   0.877756 0.183939 0.815841 -0.092744
C10   C     C_R   0.031291 0.197464 0.760911 0.059242
C11   C     C_3   0.230948 0.223733 0.783703 -0.413294
C12   C     C_3   0.216624 0.300621 0.720049 -0.019844
H3    H     H_    0.333845 0.168874 0.765552 0.153023
H4    H     H_    0.243538 0.247052 0.849412 0.178493
H5    H     H_    0.317885 0.293503 0.667021 0.144593
C13   C     C_R   0.005074 0.252516 0.194558 -0.199956
H6    H     H_    0.112345 0.262730 0.146582 0.127213
C14   C     C_R   0.993349 0.316344 0.259089 -0.196259
H7    H     H_    0.090776 0.374575 0.258616 0.130520
C15   C     C_R   0.856789 0.306913 0.322741 -0.085236
C16   C     C_R   0.735136 0.228171 0.323315 0.167222
C17   C     C_R   0.736586 0.166610 0.253960 0.171508
C18   C     C_R   0.875572 0.178857 0.189308 -0.066119
C19   C     C_R   0.204994 0.741103 0.703397 -0.201514
H8    H     H_    0.077029 0.738959 0.665061 0.133382
C20   C     C_R   0.213654 0.805580 0.767849 -0.153626
H9    H     H_    0.092043 0.850793 0.777546 0.127355
C21   C     C_R   0.378405 0.813073 0.817903 -0.084771
C22   C     C_R   0.532322 0.753054 0.803609 -0.155969
H10   H     H_    0.658482 0.757254 0.843018 0.123067
C23   C     C_R   0.524832 0.686439 0.740259 0.166232
C24   C     C_R   0.359742 0.681360 0.687516 -0.057835
C25   C     C_R   0.240273 0.771042 0.322312 0.121913
C26   C     C_R   0.254613 0.836133 0.256367 -0.024067
C27   C     C_R   0.380007 0.820165 0.188370 -0.123494
C28   C     C_R   0.497670 0.741989 0.189526 -0.161156
H11   H     H_    0.596952 0.729158 0.138957 0.124685
C29   C     C_R   0.485818 0.678247 0.254422 -0.191207
H12   H     H_    0.576792 0.617836 0.252362 0.121349
C30   C     C_R   0.355208 0.690248 0.320111 -0.061852
O11   O     O_R   0.229200 0.915950 0.913350 -0.539745
O12   O     O_R   0.559090 0.905000 0.086080 -0.540014
O13   O     O_R   0.729280 0.083880 0.086680 -0.543423
C31   C     C_R   0.390475 0.884768 0.116372 0.700151
O14   O     O_R   0.558920 0.904980 0.913920 -0.544325
O15   O     O_R   0.729110 0.083860 0.913300 -0.541167
C32   C     C_R   0.389673 0.882638 0.885372 0.693471
O16   O     O_R   0.229360 0.915970 0.086730 -0.531159
O17   O     O_3   0.395680 0.058580 0.000030 -0.374869
V3    V     V_3+5 0.670570 0.989070 0.999990 1.403788
O18   O     O_R   0.058820 0.094950 0.913870 -0.542996
C33   C     C_R   0.889793 0.117274 0.885431 0.687602
O19   O     O_R   0.058990 0.094970 0.086020 -0.537293
C34   C     C_R   0.889507 0.114898 0.116665 0.733877
V4    V     V_3+5 0.170560 0.010930 0.999930 1.416220
O20   O     O_3   0.895590 0.941310 0.999960 -0.367678
C35   C     C_3   0.593735 0.087333 0.249023 -0.719313
H13   H     H_    0.492587 0.099063 0.196724 0.211993
H14   H     H_    0.670896 0.021319 0.239848 0.212333
H15   H     H_    0.501951 0.078597 0.304518 0.205209
C36   C     C_3   0.692442 0.620847 0.733042 -0.758971
H16   H     H_    0.795448 0.628730 0.785388 0.188973
H17   H     H_    0.640163 0.548606 0.734130 0.196060
H18   H     H_    0.773515 0.634407 0.674897 0.223682
C37   C     C_3   0.109041 0.788290 0.396160 -0.755625
H19   H     H_    0.048996 0.858770 0.398151 0.208205
H20   H     H_    0.985579 0.739901 0.394205 0.222751
H21   H     H_    0.189930 0.778569 0.455087 0.190084
C38   C     C_1   0.149075 0.921771 0.260577 0.287087
N1    N     N_1   0.065614 0.990383 0.264601 -0.386039
C39   C     C_3   0.212289 0.396941 0.760639 -0.745914
H22   H     H_    0.080823 0.406674 0.798911 0.216867
H23   H     H_    0.337226 0.406915 0.802529 0.190478
H24   H     H_    0.217428 0.451027 0.712133 0.212270
C40   C     C_3   0.613800 0.206041 0.399213 -0.765619
H25   H     H_    0.651148 0.247451 0.454636 0.200478
H26   H     H_    0.459108 0.216004 0.384713 0.216481
H27   H     H_    0.639853 0.133948 0.419027 0.203759

loop_
_geom_bond_atom_site_label_1
_geom_bond_atom_site_label_2
_ccdc_geom_bond_type
C31   O16   A    
C19   C20   A    
C4    C6    S    
C16   C17   A    
C25   C37   S    
C1    O6    A    
C1    C24   S    
C23   C24   A    
C11   H4    S    
O14   V3    S    
C5    C12   S    
C9    C33   S    
C17   C18   A    
C7    C8    A    
C6    C7    A    
O5    C3    A    
C13   H6    S    
V2    O10   S    
C18   C34   S    
C15   C16   A    
O8    V2    S    
C38   N1    T    
C28   C29   A    
C9    C10   A    
O12   V3    S    
O1    V2    S    
V3    O20   S    
C40   H26   S    
O7    V1    S    
C17   C35   S    
C20   C21   A    
O15   C33   A    
O9    C4    A    
C29   C30   A    
C28   H11   S    
C39   H23   S    
O14   C32   A    
C5    C10   A    
O19   C34   A    
O17   V4    S    
C10   C11   S    
C37   H20   S    
C11   C12   S    
C39   H22   S    
C27   C31   S    
C37   H19   S    
C13   C18   A    
O19   V4    S    
C14   C15   A    
O2    C1    A    
C36   H16   S    
C35   H15   S    
C22   C23   A    
C25   C26   A    
C5    C6    A    
C40   H27   S    
C36   H17   S    
C21   C32   S    
O11   V4    S    
O3    C4    A    
C25   C30   A    
C16   C40   S    
C26   C27   A    
O18   C33   A    
O6    V2    S    
C8    C9    A    
C22   H10   S    
C21   C22   A    
O13   C34   A    
C3    C15   S    
O2    V1    S    
C29   H12   S    
O13   V3    S    
O4    C2    A    
C39   H24   S    
C20   H9    S    
O1    C2    A    
O5    V1    S    
C37   H21   S    
O8    C3    A    
C11   H3    S    
C26   C38   S    
O15   V3    S    
C23   C36   S    
C14   H7    S    
C7    H1    S    
O9    V2    S    
O7    V2    S    
C35   H13   S    
O3    V1    S    
V1    O10   S    
C13   C14   A    
C19   H8    S    
C12   C39   S    
O18   V4    S    
O11   C32   A    
O12   C31   A    
V4    O20   S    
C36   H18   S    
C19   C24   A    
O17   V3    S    
O4    V1    S    
O16   V4    S    
C12   H5    S    
C27   C28   A    
C35   H14   S    
C2    C30   S    
C40   H25   S    
C8    H2    S    
