data_mof_unit_4881.cif
_audit_creation_date              2013-03-05T15:53:42-0500
_audit_creation_method            fapswitch 2.2
_symmetry_space_group_name_H-M    P1
_symmetry_Int_Tables_number       1
_space_group_crystal_system       triclinic
_cell_length_a                    12.991978
_cell_length_b                    13.327209
_cell_length_c                    27.694766
_cell_angle_alpha                 94.531479
_cell_angle_beta                  90.596739
_cell_angle_gamma                 119.187555
_cell_volume                      4166.7054631

loop_
_atom_site_label
_atom_site_type_symbol
_atom_site_description
_atom_site_fract_x
_atom_site_fract_y
_atom_site_fract_z
_atom_type_partial_charge
O1    O     O_R   0.296680 0.802170 0.437540 -0.485683
O2    O     O_R   0.525380 0.838530 0.443500 -0.480691
C1    C     C_R   0.628503 0.893458 0.427909 0.556904
O3    O     O_R   0.702130 0.995190 0.446810 -0.469415
O4    O     O_R   0.661770 0.181390 0.458760 -0.482005
C2    C     C_R   0.600837 0.222625 0.440932 0.551731
O5    O     O_R   0.499820 0.198480 0.455280 -0.487050
O6    O     O_R   0.311660 0.976250 0.449080 -0.508049
C3    C     C_R   0.268295 0.877105 0.426372 0.539536
O7    O     O_R   0.297580 0.804960 0.544440 -0.478988
O8    O     O_R   0.526220 0.841130 0.542590 -0.483710
C4    C     C_R   0.627198 0.899067 0.564979 0.555223
O9    O     O_R   0.703030 0.997990 0.553710 -0.449494
O10   O     O_R   0.662610 0.183990 0.557860 -0.456315
C5    C     C_R   0.604251 0.228139 0.578620 0.575769
O11   O     O_R   0.500730 0.201280 0.562180 -0.439591
O12   O     O_R   0.312500 0.978850 0.548170 -0.476246
C6    C     C_R   0.271624 0.879166 0.563128 0.554901
Cr1   Cr    Cr6+3 0.416430 0.829200 0.492370 1.135487
Cr2   Cr    Cr6+3 0.674630 0.087020 0.504170 1.171169
Cr3   Cr    Cr6+3 0.408920 0.083740 0.503490 1.143105
O13   O     O_3   0.499990 0.999990 0.500010 -0.306633
C7    C     C_1   0.629730 0.268954 0.395109 0.087477
C8    C     C_R   0.649084 0.223226 0.269629 0.190408
C9    C     C_R   0.656893 0.238140 0.219861 0.202494
C10   C     C_R   0.662809 0.423963 0.236922 0.222357
C11   C     C_R   0.654315 0.408900 0.286531 0.185211
C12   C     C_R   0.650505 0.309940 0.303030 0.035753
C13   C     C_R   0.668159 0.340682 0.203723 -0.005880
C14   C     C_1   0.684798 0.362662 0.153270 0.115488
C15   C     C_1   0.642784 0.293557 0.353905 0.109975
C16   C     C_1   0.700151 0.391529 0.112561 0.109438
C17   C     C_R   0.139816 0.751191 0.357324 -0.081987
C18   C     C_R   0.117143 0.735760 0.307208 -0.018366
C19   C     C_R   0.100581 0.709958 0.205401 -0.026187
C20   C     C_R   0.057291 0.610495 0.232005 0.186779
C21   C     C_R   0.063970 0.624346 0.282818 0.226680
C22   C     C_R   0.105390 0.703128 0.154796 0.135148
H1    H     H_    0.115387 0.678904 0.378561 0.195332
C23   C     C_R   0.118853 0.796956 0.129111 -0.005478
C24   C     C_R   0.232956 0.958288 0.355770 -0.080001
C25   C     C_R   0.209648 0.946422 0.305914 0.034222
C26   C     C_R   0.154958 0.834181 0.281064 0.003030
C27   C     C_R   0.248592 0.044281 0.279961 0.163564
C28   C     C_R   0.234961 0.030510 0.229716 0.000032
C29   C     C_R   0.182522 0.920373 0.204316 -0.005821
C30   C     C_R   0.143512 0.821068 0.230241 -0.043827
C31   C     C_R   0.165786 0.907349 0.153523 0.186107
C32   C     C_R   0.206198 0.861240 0.380315 -0.013820
H2    H     H_    0.266051 0.107201 0.210683 0.226772
H3    H     H_    0.282558 0.043512 0.374866 0.190510
C33   C     C_R   0.762135 0.914019 0.361130 0.159995
C34   C     C_R   0.765373 0.918222 0.310218 0.001952
C35   C     C_R   0.764547 0.921473 0.207478 -0.000139
C36   C     C_R   0.861068 0.008218 0.237525 0.241125
C37   C     C_R   0.862850 0.005780 0.288095 0.190286
C38   C     C_R   0.761916 0.917961 0.156098 0.176313
C39   C     C_R   0.683107 0.813768 0.127990 0.001137
C40   C     C_R   0.562075 0.752853 0.353021 0.148496
C41   C     C_R   0.564029 0.748203 0.301783 0.039687
C42   C     C_R   0.665375 0.834022 0.280470 -0.017215
C43   C     C_R   0.467273 0.663820 0.270723 0.197803
C44   C     C_R   0.471921 0.665472 0.220749 -0.009328
C45   C     C_R   0.572970 0.744143 0.199469 0.015093
C46   C     C_R   0.668107 0.833077 0.229218 -0.010772
C47   C     C_R   0.582878 0.731768 0.148986 0.194710
C48   C     C_R   0.653846 0.847479 0.381496 -0.003388
H4    H     H_    0.396692 0.599904 0.198311 0.212756
C49   C     C_R   0.740237 0.291496 0.653453 0.158362
C50   C     C_R   0.749446 0.310118 0.704347 -0.024743
C51   C     C_R   0.757159 0.330884 0.806566 0.044914
C52   C     C_R   0.836853 0.305433 0.781955 0.204836
C53   C     C_R   0.832934 0.295968 0.731520 -0.011227
C54   C     C_R   0.764963 0.350380 0.857309 -0.095184
H5    H     H_    0.838926 0.356970 0.878414 0.192839
H6    H     H_    0.896081 0.276715 0.714007 0.228532
C55   C     C_R   0.680215 0.368240 0.881048 -0.026049
C56   C     C_R   0.581969 0.340835 0.650965 0.193667
C57   C     C_R   0.592943 0.363216 0.702188 -0.014914
C58   C     C_R   0.671328 0.339412 0.728669 -0.042458
C59   C     C_R   0.525666 0.405493 0.728020 0.246910
C60   C     C_R   0.520055 0.402532 0.778526 0.195320
C61   C     C_R   0.588756 0.366144 0.804096 0.011360
C62   C     C_R   0.672697 0.345913 0.779716 -0.011405
C63   C     C_R   0.580624 0.354380 0.853977 0.187764
C64   C     C_R   0.647687 0.294322 0.627242 -0.017409
C65   C     C_1   0.221595 0.861622 0.609530 0.097953
C66   C     C_R   0.118542 0.737046 0.719422 -0.090676
C67   C     C_R   0.102207 0.726257 0.769000 0.194008
C68   C     C_R   0.199578 0.937044 0.784263 0.197949
C69   C     C_R   0.212900 0.946087 0.733886 0.227109
C70   C     C_R   0.172131 0.845271 0.701754 -0.032062
C71   C     C_R   0.142709 0.826717 0.801786 -0.023580
C72   C     C_1   0.126385 0.815455 0.853117 0.100788
C73   C     C_1   0.193271 0.852095 0.650872 0.080906
C74   C     C_1   0.102197 0.798524 0.894723 0.100234
H7    H     H_    0.089081 0.660180 0.694355 0.194991
C75   C     C_1   0.641103 0.868117 0.611833 0.115525
C76   C     C_R   0.760371 0.880930 0.729714 0.163228
C77   C     C_R   0.765728 0.872129 0.779776 0.194890
C78   C     C_R   0.551205 0.775052 0.779309 -0.101699
C79   C     C_R   0.543965 0.784481 0.729441 0.218640
C80   C     C_R   0.649779 0.836768 0.704433 0.009833
C81   C     C_R   0.660701 0.818909 0.804372 -0.031287
C82   C     C_1   0.665835 0.804280 0.855064 0.034605
C83   C     C_1   0.646373 0.850184 0.653435 0.110330
C84   C     C_1   0.681334 0.792091 0.896599 0.066149
H8    H     H_    0.471117 0.734257 0.798848 0.192238
O14   O     O_R   0.820790 0.857990 0.068830 -0.462289
O15   O     O_R   0.016700 0.827330 0.062850 -0.452105
C85   C     C_R   0.064568 0.770711 0.079520 0.568720
O16   O     O_R   0.041970 0.673520 0.060040 -0.478657
O17   O     O_R   0.817980 0.483660 0.048840 -0.490945
C86   C     C_R   0.716615 0.440600 0.067052 0.554145
O18   O     O_R   0.637200 0.461990 0.052510 -0.454129
O19   O     O_R   0.664790 0.681920 0.057970 -0.450313
C87   C     C_R   0.720115 0.784317 0.080782 0.570519
O20   O     O_R   0.815840 0.852920 0.961840 -0.475580
O21   O     O_R   0.012100 0.822630 0.963670 -0.478602
C88   C     C_R   0.056733 0.766457 0.941398 0.555948
O22   O     O_R   0.037010 0.668460 0.953040 -0.479903
O23   O     O_R   0.813390 0.478970 0.949660 -0.495642
C89   C     C_R   0.708219 0.431221 0.929729 0.545230
O24   O     O_R   0.632250 0.456930 0.945520 -0.475719
O25   O     O_R   0.660200 0.677230 0.958780 -0.487526
C90   C     C_R   0.715558 0.776651 0.943421 0.551780
Cr4   Cr    Cr6+3 0.914010 0.832750 0.013970 1.174858
Cr5   Cr    Cr6+3 0.922310 0.578600 0.003000 1.123915
Cr6   Cr    Cr6+3 0.656280 0.574630 0.003870 1.168322
O26   O     O_3   0.830870 0.661990 0.006950 -0.310819
Br1   Br    Br    0.631580 0.082032 0.292057 -0.474760
Br2   Br    Br    0.324462 0.200068 0.310469 -0.361970
Br3   Br    Br    0.849880 0.056737 0.122551 -0.212623
N1    N     N_R   0.868318 0.973753 0.392088 -0.150283
O27   O     O_R   0.881622 0.930737 0.430787 -0.000241
O28   O     O_R   0.881553 0.930688 0.430737 -0.000241
N2    N     N_R   0.965019 0.093012 0.217083 0.132654
O29   O     O_R   0.036505 0.062430 0.196686 -0.285419
O30   O     O_R   0.993709 0.201786 0.222434 -0.147768
Br4   Br    Br    0.000987 0.131828 0.324255 -0.214277
N3    N     N_R   0.491179 0.637333 0.118771 0.077483
O31   O     O_R   0.425005 0.656896 0.089126 -0.288787
O32   O     O_R   0.474423 0.532974 0.119905 -0.226678
Br5   Br    Br    0.324026 0.537729 0.290486 -0.222829
Br6   Br    Br    0.642844 0.115030 0.173472 -0.345859
N4    N     N_R   0.468768 0.661361 0.376035 -0.106250
O33   O     O_R   0.490815 0.620635 0.413636 -0.000132
O34   O     O_R   0.490770 0.620646 0.413609 -0.000132
N5    N     N_R   0.821300 0.264350 0.628645 0.087098
O35   O     O_R   0.899808 0.339226 0.602256 -0.269879
O36   O     O_R   0.820264 0.167614 0.633703 -0.294940
Br7   Br    Br    0.950880 0.278392 0.814922 -0.279226
N6    N     N_R   0.470981 0.325314 0.876103 -0.059147
O37   O     O_R   0.435407 0.257594 0.910861 -0.000019
O38   O     O_R   0.435397 0.257582 0.910859 -0.000019
Br8   Br    Br    0.438068 0.473258 0.812307 -0.300706
N7    N     N_R   0.471101 0.460813 0.704150 0.128531
O39   O     O_R   0.357781 0.421706 0.705229 -0.138062
O40   O     O_R   0.536143 0.554777 0.683691 -0.300148
N8    N     N_R   0.497263 0.355509 0.623094 0.130586
O41   O     O_R   0.532384 0.425508 0.589160 -0.265551
O42   O     O_R   0.384884 0.285364 0.625992 -0.190894
N9    N     N_R   0.649396 0.515377 0.219512 0.097637
O43   O     O_R   0.739360 0.604274 0.203637 -0.355882
O44   O     O_R   0.542666 0.495628 0.209340 -0.267315
N10   N     N_R   0.048088 0.612756 0.785427 0.091414
O45   O     O_R   0.066690 0.533363 0.763657 -0.254521
O46   O     O_R   0.972448 0.585160 0.819114 -0.352203
N11   N     N_R   0.252603 0.040099 0.817394 0.120238
O47   O     O_R   0.358782 0.122483 0.810895 -0.290058
O48   O     O_R   0.196838 0.051884 0.854312 -0.241859
N12   N     N_R   0.266824 0.057621 0.715529 0.121063
O49   O     O_R   0.355361 0.088034 0.687692 -0.324845
O50   O     O_R   0.229675 0.130453 0.727792 -0.165424
Br9   Br    Br    0.904563 0.954064 0.695820 -0.319564
Br10  Br    Br    0.916582 0.932261 0.814730 -0.332607
N13   N     N_R   0.429057 0.740010 0.705153 0.109052
O51   O     O_R   0.336445 0.656405 0.722106 -0.232389
O52   O     O_R   0.413873 0.789926 0.669333 -0.344462
Br11  Br    Br    0.647317 0.524177 0.331186 -0.367802
N14   N     N_R   0.099026 0.601651 0.129591 -0.102145
O53   O     O_R   0.186672 0.606341 0.105598 -0.003951
O54   O     O_R   0.188633 0.609152 0.105916 -0.003925
Br12  Br    Br    0.986744 0.450925 0.202625 -0.256219
N15   N     N_R   0.019598 0.524412 0.309583 0.106500
O55   O     O_R   0.091613 0.504687 0.335105 -0.234537
O56   O     O_R   0.907438 0.448613 0.305836 -0.301786
N16   N     N_R   0.207428 0.006101 0.126389 0.077870
O57   O     O_R   0.319057 0.064575 0.118311 -0.288241
O58   O     O_R   0.135907 0.041276 0.111911 -0.209831

loop_
_geom_bond_atom_site_label_1
_geom_bond_atom_site_label_2
_geom_bond_distance
_ccdc_geom_bond_type
C76   C80   1.410722 A    
C36   C37   1.403668 A    
C78   C79   1.402951 A    
C18   C21   1.403416 A    
C33   N1    1.438154 S    
N11   O47   1.303837 A    
C85   O16   1.253157 A    
C58   C62   1.408937 A    
C19   C30   1.415118 A    
C86   O18   1.266620 A    
C68   C69   1.415012 A    
O14   C87   1.261815 A    
C89   O24   1.264093 A    
C47   N3    1.433159 S    
C28   C29   1.401783 A    
N12   O49   1.301878 A    
C4    O9    1.269139 A    
N2    O30   1.303941 A    
O8    Cr1   1.922709 S    
C10   C11   1.401888 A    
C17   H1    1.081654 S    
C22   N14   1.436545 S    
C69   N12   1.438715 S    
C41   C43   1.424990 A    
C20   C21   1.400989 A    
N9    O44   1.302146 A    
O17   C86   1.280826 A    
N5    O36   1.301356 A    
O4    C2    1.277311 A    
C37   Br4   1.949860 S    
N15   O56   1.303523 A    
C17   C32   1.381144 A    
C5    O11   1.279155 A    
C10   N9    1.430116 S    
C77   C81   1.407365 A    
O6    Cr3   1.942482 S    
O19   C87   1.294487 A    
N16   O58   1.300289 A    
C24   C25   1.390427 A    
O15   C85   1.294620 A    
C40   C48   1.410882 A    
C29   C30   1.423883 A    
C34   C42   1.426721 A    
C39   C47   1.398668 A    
N7    O39   1.301930 A    
C21   N15   1.439307 S    
O19   Cr6   1.950762 S    
C66   C70   1.394167 A    
N12   O50   1.303333 A    
O6    C3    1.262559 A    
C52   Br7   1.924235 S    
C54   C55   1.395414 A    
C65   C73   1.203601 T    
C77   Br10  1.930409 S    
C75   C83   1.202951 T    
C20   Br12  1.958210 S    
N6    O38   1.301793 A    
C4    C75   1.427927 S    
C66   H7    1.085137 S    
O15   Cr4   1.920819 S    
C60   Br8   1.938809 S    
C56   C64   1.417212 A    
C78   H8    1.085135 S    
C55   C63   1.412479 A    
C40   C41   1.416520 A    
N7    O40   1.301277 A    
C22   C23   1.424805 A    
Cr3   O13   1.982026 S    
N10   O46   1.300829 A    
N11   O48   1.302293 A    
C38   Br3   1.954982 S    
C49   C50   1.405294 A    
C25   C27   1.409112 A    
C50   C53   1.408315 A    
C24   C32   1.400398 A    
C81   C82   1.437850 S    
O14   Cr4   2.059913 S    
C17   C18   1.393848 A    
C23   C85   1.472872 S    
N4    O34   1.301283 A    
N14   O54   1.306877 A    
C9    C13   1.411223 A    
C29   C31   1.405155 A    
O1    Cr1   2.042997 S    
C59   N7    1.435306 S    
C54   H5    1.081946 S    
C50   C58   1.412551 A    
O10   Cr2   1.950262 S    
C19   C22   1.401277 A    
O1    C3    1.278532 A    
C11   Br11  1.932952 S    
O22   Cr5   2.033087 S    
C69   C70   1.408837 A    
C35   C46   1.417171 A    
C56   C57   1.417463 A    
N1    O28   1.301619 A    
N13   O52   1.301457 A    
N14   O53   1.301913 A    
C39   C87   1.486824 S    
C59   C60   1.404075 A    
C57   C58   1.418402 A    
C41   C42   1.429773 A    
C19   C20   1.432517 A    
C45   C47   1.409435 A    
C51   C62   1.420605 A    
C13   C14   1.447123 S    
C55   C89   1.472318 S    
O25   Cr6   1.906544 S    
O23   Cr5   1.939495 S    
C82   C84   1.202802 T    
C61   C62   1.411133 A    
O7    Cr1   2.049785 S    
O8    C4    1.273251 A    
Cr1   O13   1.978189 S    
C43   C44   1.387411 A    
O12   C6    1.273567 A    
C38   C39   1.417181 A    
C3    C32   1.446422 S    
C71   C72   1.448236 S    
C63   N6    1.439498 S    
C33   C34   1.415773 A    
C8    C9    1.405738 A    
C72   C74   1.207001 T    
C2    O5    1.266106 A    
C33   C48   1.400918 A    
C5    C64   1.490208 S    
C56   N8    1.435696 S    
C61   C63   1.401879 A    
Cr2   O13   1.978193 S    
N13   O51   1.302497 A    
C78   C81   1.396951 A    
N10   O45   1.301205 A    
C53   H6    1.080781 S    
C25   C26   1.416530 A    
C1    O3    1.280515 A    
N8    O42   1.301967 A    
O17   Cr5   1.914898 S    
C27   C28   1.387159 A    
C68   C71   1.415617 A    
C57   C59   1.422293 A    
N4    O33   1.302222 A    
O18   Cr6   2.023148 S    
C34   C37   1.424316 A    
C23   C31   1.397378 A    
C35   C36   1.419078 A    
O9    Cr2   2.024854 S    
O2    Cr1   1.935375 S    
O10   C5    1.281536 A    
C74   C88   1.435096 S    
C12   C15   1.439832 S    
C1    C48   1.489053 S    
C18   C26   1.419519 A    
C8    C12   1.414728 A    
C84   C90   1.428617 S    
C43   Br5   1.924387 S    
C52   C53   1.390635 A    
Cr5   O26   1.982323 S    
C51   C54   1.402250 A    
O21   C88   1.278693 A    
O11   Cr3   2.062386 S    
C31   N16   1.435177 S    
N1    O27   1.302727 A    
C27   Br2   1.924965 S    
N2    O29   1.300594 A    
C44   H4    1.083299 S    
C6    C65   1.430125 S    
C36   N2    1.431777 S    
C76   C77   1.404477 A    
C49   N5    1.435104 S    
N8    O41   1.301518 A    
N3    O32   1.301722 A    
O2    C1    1.273861 A    
Cr6   O26   1.977971 S    
Cr4   O26   1.977816 S    
C51   C52   1.404406 A    
O5    Cr3   2.027261 S    
N3    O31   1.311071 A    
C45   C46   1.416679 A    
C14   C16   1.207172 T    
C8    Br1   1.936140 S    
N15   O55   1.303682 A    
O25   C90   1.272716 A    
C28   H2    1.082843 S    
O7    C6    1.267936 A    
C2    C7    1.428398 S    
C68   N11   1.437956 S    
O24   Cr6   2.068993 S    
C80   C83   1.440510 S    
C70   C73   1.439927 S    
C67   C71   1.415880 A    
C79   C80   1.420177 A    
O4    Cr2   1.908350 S    
O12   Cr3   1.911065 S    
C67   N10   1.437885 S    
O16   Cr5   2.056099 S    
N9    O43   1.305922 A    
C44   C45   1.393336 A    
O3    Cr2   2.068835 S    
C40   N4    1.435178 S    
C42   C46   1.419437 A    
C76   Br9   1.934118 S    
C66   C67   1.399461 A    
C10   C13   1.413295 A    
C60   C61   1.413010 A    
O20   Cr4   2.034864 S    
C11   C12   1.408063 A    
O23   C89   1.287382 A    
C79   N13   1.444139 S    
C88   O22   1.271675 A    
N16   O57   1.301015 A    
C9    Br6   1.935391 S    
O20   C90   1.266262 A    
C16   C86   1.435733 S    
N6    O37   1.301738 A    
N5    O35   1.307020 A    
C26   C30   1.401881 A    
C24   H3    1.081261 S    
C49   C64   1.415792 A    
C7    C15   1.203088 T    
C35   C38   1.419531 A    
O21   Cr4   1.938490 S    
