data_mof_unit_3993.cif
_audit_creation_date              2012-12-11T14:29:44-0500
_audit_creation_method            fapswitch 2.2
_symmetry_space_group_name_H-M    P1
_symmetry_Int_Tables_number       1
_space_group_crystal_system       triclinic
_cell_length_a                    6.93534
_cell_length_b                    14.712144
_cell_length_c                    16.312018
_cell_angle_alpha                 90.461998
_cell_angle_beta                  89.824678
_cell_angle_gamma                 90.056749
_cell_volume                      1664.31321474

loop_
_atom_site_label
_atom_site_type_symbol
_atom_type_description
_atom_site_fract_x
_atom_site_fract_y
_atom_site_fract_z
_atom_type_partial_charge
O1    O     O_R   0.494400 0.416610 0.413880 -0.561090
O2    O     O_R   0.823920 0.406790 0.585520 -0.507922
O3    O     O_R   0.994250 0.583390 0.586120 -0.534201
C1    C     C_R   0.654701 0.386293 0.614492 0.751046
O4    O     O_R   0.824110 0.405730 0.414490 -0.527629
O5    O     O_R   0.994440 0.582310 0.413870 -0.552572
C2    C     C_R   0.655789 0.386725 0.384203 0.645131
O6    O     O_R   0.494210 0.417690 0.586130 -0.498677
O7    O     O_3   0.660810 0.557940 0.500000 -0.395473
V1    V     V_3+5 0.935650 0.489250 0.500000 1.656698
O8    O     O_R   0.324160 0.593210 0.414480 -0.547051
C3    C     C_R   0.155774 0.615399 0.386829 0.804101
O9    O     O_R   0.323970 0.594270 0.585510 -0.532754
C4    C     C_R   0.154896 0.616892 0.613396 0.945455
V2    V     V_3+5 0.435660 0.510750 0.500000 1.605830
O10   O     O_3   0.160630 0.442060 0.500000 -0.347965
C5    C     C_R   0.127918 0.559364 0.783037 0.507298
C6    C     C_R   0.110822 0.528997 0.863443 0.213616
C7    C     C_R   0.095977 0.592314 0.927440 0.450022
C8    C     C_R   0.098667 0.685051 0.911458 0.452804
C9    C     C_R   0.115332 0.718471 0.829959 -0.208742
C10   C     C_R   0.129156 0.654040 0.764189 -0.224931
C11   C     C_R   0.119778 0.813703 0.813474 -0.031411
C12   C     C_R   0.136209 0.845103 0.730671 -0.095180
C13   C     C_R   0.147016 0.779997 0.665042 -0.182057
C14   C     C_R   0.144344 0.684810 0.681854 -0.056393
C15   C     C_R   0.141730 0.940280 0.711299 0.246751
C16   C     C_R   0.163695 0.968782 0.629240 0.148178
C17   C     C_R   0.161356 0.904126 0.565246 0.256082
C18   C     C_R   0.157165 0.811994 0.583150 0.520955
C19   C     C_2   0.988858 0.715540 0.287342 -0.118320
C20   C     C_2   0.151833 0.687097 0.323846 -0.237564
H1    H     H_    0.851298 0.687381 0.306555 0.152388
H2    H     H_    0.288319 0.719568 0.309809 0.190180
C21   C     C_2   0.983108 0.790203 0.225954 0.596179
C22   C     C_2   0.123839 0.805052 0.169717 0.144378
C23   C     C_2   0.777997 0.218032 0.788855 0.603834
C24   C     C_2   0.616360 0.173976 0.812608 -0.418290
H3    H     H_    0.484156 0.180444 0.777945 0.203369
C25   C     C_2   0.788835 0.276548 0.714920 0.464576
C26   C     C_2   0.638792 0.325370 0.685990 0.267888
C27   C     C_2   0.772423 0.215471 0.210142 0.270413
C28   C     C_2   0.613687 0.166772 0.188960 0.222727
C29   C     C_2   0.779191 0.266801 0.290066 0.267670
C30   C     C_2   0.645750 0.331229 0.307696 0.225192
O11   O     O_R   0.770210 0.079270 0.910680 -0.505293
O12   O     O_R   0.440150 0.091160 0.082270 -0.556898
O13   O     O_R   0.269970 0.914530 0.082860 -0.561462
C31   C     C_R   0.608306 0.110318 0.112670 0.685032
O14   O     O_R   0.440480 0.090100 0.911240 -0.525173
O15   O     O_R   0.270310 0.913460 0.910610 -0.540993
C32   C     C_R   0.609589 0.111323 0.882914 0.809547
O16   O     O_R   0.769870 0.080340 0.082930 -0.519573
O17   O     O_3   0.603660 0.938980 0.996790 -0.387611
V3    V     V_3+5 0.328750 0.007610 0.996740 1.607387
O18   O     O_R   0.940600 0.902510 0.911180 -0.537236
C33   C     C_R   0.109652 0.880145 0.883098 0.909594
O19   O     O_R   0.940270 0.903570 0.082200 -0.506207
C34   C     C_R   0.109312 0.880733 0.109554 0.760814
V4    V     V_3+5 0.828770 0.986010 0.996670 1.659107
O20   O     O_3   0.103730 0.054750 0.996710 -0.348416
O21   O     O_3   0.160167 0.928276 0.483589 -0.593546
H4    H     H_    0.099824 0.988938 0.478415 0.313474
F1    F     F_    0.822103 0.843004 0.226112 -0.688496
O22   O     O_3   0.279525 0.746301 0.165899 -0.632387
H5    H     H_    0.360097 0.761361 0.117621 0.343860
F2    F     F_    0.945023 0.206165 0.830986 -0.601100
F3    F     F_    0.964824 0.283116 0.678301 -0.576960
F4    F     F_    0.466145 0.325092 0.725838 -0.609538
O23   O     O_3   0.931854 0.216008 0.158978 -0.642047
H6    H     H_    0.029908 0.257311 0.183101 0.316347
O24   O     O_3   0.458685 0.165342 0.242838 -0.633954
H7    H     H_    0.360768 0.121608 0.222636 0.297478
O25   O     O_3   0.926216 0.249958 0.344975 -0.643570
H8    H     H_    0.004996 0.198993 0.323092 0.307337
F5    F     F_    0.144616 0.493786 0.724381 -0.596487
O26   O     O_3   0.503462 0.348875 0.250495 -0.625756
H9    H     H_    0.426951 0.402105 0.268954 0.298293
O27   O     O_3   0.109578 0.436387 0.876889 -0.534326
H10   H     H_    0.096300 0.424757 0.936373 0.366012
F6    F     F_    0.079528 0.564421 0.006340 -0.614281
F7    F     F_    0.084444 0.740796 0.977666 -0.682732
O28   O     O_3   0.129355 0.004902 0.773286 -0.637311
H11   H     H_    0.118064 0.066884 0.750803 0.381611
O29   O     O_3   0.189962 0.060225 0.613730 -0.615466
H12   H     H_    0.269527 0.066842 0.563588 0.319305
F8    F     F_    0.157923 0.754731 0.517668 -0.692918

loop_
_geom_bond_atom_site_label_1
_geom_bond_atom_site_label_2
_ccdc_geom_bond_type
O13   V3    S    
C28   O24   S    
C8    F7    S    
C7    C8    A    
C12   C15   A    
C1    O6    A    
C22   C34   S    
O12   C31   A    
O17   V4    S    
O26   H9    S    
C17   C18   A    
C2    C30   S    
O12   V3    S    
C16   C17   A    
C23   C25   S    
O5    C3    A    
C24   H3    S    
C24   C32   S    
C1    C26   S    
O19   V4    S    
V2    O10   S    
O11   C32   A    
C27   O23   S    
O18   C33   A    
C6    C7    A    
O17   V3    S    
O8    V2    S    
C21   C22   D    
C6    O27   S    
C5    F5    S    
O14   C32   A    
C11   C12   A    
C19   H1    S    
C21   F1    S    
O15   C33   A    
O7    V1    S    
C9    C10   A    
C3    C20   S    
C27   C29   S    
O16   V4    S    
O25   H8    S    
C12   C13   A    
C7    F6    S    
O4    C2    A    
C22   O22   S    
C28   C31   S    
O19   C34   A    
O29   H12   S    
O18   V4    S    
V4    O20   S    
C20   H2    S    
O2    C1    A    
C23   C24   D    
O28   H11   S    
O21   H4    S    
C5    C6    A    
C4    C14   S    
C29   O25   S    
O23   H6    S    
O3    C4    A    
O1    V2    S    
C25   C26   D    
O6    V2    S    
O9    V2    S    
C10   C14   A    
C19   C21   S    
C27   C28   D    
V3    O20   S    
O2    V1    S    
C16   O29   S    
C29   C30   D    
O13   C34   A    
C26   F4    S    
C13   C18   A    
C11   C33   S    
C17   O21   S    
O11   V4    S    
O1    C2    A    
C19   C20   D    
C5    C10   A    
O24   H7    S    
O5    V1    S    
O8    C3    A    
O14   V3    S    
C9    C11   A    
C13   C14   A    
O4    V1    S    
O3    V1    S    
V1    O10   S    
C31   O16   A    
C23   F2    S    
C15   O28   S    
O15   V3    S    
O7    V2    S    
O27   H10   S    
C8    C9    A    
O22   H5    S    
C25   F3    S    
C15   C16   A    
C30   O26   S    
C18   F8    S    
O9    C4    A    
