data_mof_unit_4921.cif
_audit_creation_date              2012-12-10T20:27:13-0500
_audit_creation_method            fapswitch 2.2
_symmetry_space_group_name_H-M    P1
_symmetry_Int_Tables_number       1
_space_group_crystal_system       triclinic
_cell_length_a                    10.815973
_cell_length_b                    10.68956
_cell_length_c                    9.867454
_cell_angle_alpha                 90.050304
_cell_angle_beta                  103.947969
_cell_angle_gamma                 89.864474
_cell_volume                      1107.21397268

loop_
_atom_site_label
_atom_site_type_symbol
_atom_type_description
_atom_site_fract_x
_atom_site_fract_y
_atom_site_fract_z
_atom_type_partial_charge
C1    C     C_R   0.497087 0.260034 0.499355 0.882632
C2    C     C_R   0.601234 0.544373 0.098637 -0.129535
C3    C     C_R   0.601292 0.544269 0.954745 -0.142561
C4    C     C_R   0.259113 0.503400 0.441850 0.941204
C5    C     C_R   0.392983 0.467353 0.900425 0.216590
C6    C     C_3   0.325320 0.345161 0.876005 -0.504100
C7    C     C_3   0.326171 0.344289 0.030209 -0.517310
C8    C     C_R   0.497149 0.739911 0.499335 0.884824
C9    C     C_R   0.740866 0.503560 0.558213 0.953656
C10   C     C_2   0.122768 0.516945 0.409052 -0.375960
C11   C     C_2   0.067873 0.540881 0.513342 -0.149115
C12   C     C_R   0.480310 0.128542 0.496505 -0.088501
C13   C     C_2   0.877185 0.517024 0.591360 -0.360420
C14   C     C_2   0.932202 0.541334 0.487423 -0.141502
C15   C     C_R   0.493552 0.063953 0.621580 0.099218
C16   C     C_1   0.717941 0.877236 0.740798 0.214575
C17   C     C_R   0.445523 0.064590 0.368894 -0.219643
C18   C     C_R   0.445597 0.935183 0.368879 -0.215284
C19   C     C_R   0.481111 0.871450 0.496526 -0.098140
C20   C     C_R   0.495493 0.936477 0.621728 0.087652
C21   C     C_3   0.596110 0.930238 0.756178 -0.206231
C22   C     C_3   0.594223 0.072594 0.755265 -0.511401
C23   C     C_R   0.393079 0.467044 0.042882 0.219986
H1    H     H_    0.682946 0.117686 0.741041 0.204573
H2    H     H_    0.425327 0.885986 0.269963 0.170434
H3    H     H_    0.877508 0.552536 0.380097 0.177235
H4    H     H_    0.384456 0.269848 0.845829 0.216635
H5    H     H_    0.122653 0.551329 0.620802 0.185225
H6    H     H_    0.561078 0.888091 0.842855 0.154847
H7    H     H_    0.556530 0.112796 0.841183 0.192511
H8    H     H_    0.683752 0.578604 0.174309 0.144199
H9    H     H_    0.683868 0.578134 0.922407 0.152991
H10   H     H_    0.228185 0.354846 0.806653 0.200619
H11   H     H_    0.229486 0.352519 0.049775 0.201655
H12   H     H_    0.386637 0.268896 0.089464 0.209713
H13   H     H_    0.932339 0.505602 0.698434 0.146393
H14   H     H_    0.067530 0.506136 0.301945 0.147757
H15   H     H_    0.425561 0.113513 0.270062 0.160570
N1    N     N_R   0.499160 0.499140 0.142600 -0.106415
N2    N     N_R   0.499160 0.499180 0.856960 -0.107198
N3    N     N_1   0.813460 0.835390 0.728639 -0.221757
O1    O     O_R   0.500020 0.316790 0.614700 -0.615184
O2    O     O_R   0.500000 0.316760 0.385350 -0.620732
O3    O     O_R   0.317820 0.500020 0.571850 -0.618141
O4    O     O_R   0.317800 0.499980 0.342510 -0.618283
O5    O     O_R   0.500000 0.683240 0.614650 -0.620217
O6    O     O_R   0.499980 0.683210 0.385300 -0.623756
O7    O     O_R   0.682200 0.500020 0.657490 -0.619325
O8    O     O_R   0.682180 0.499980 0.428150 -0.620633
Zn1   Zn    Zn3+2 0.500010 0.500020 0.653140 0.943318
Zn2   Zn    Zn3+2 0.499990 0.499980 0.346860 0.942332

loop_
_geom_bond_atom_site_label_1
_geom_bond_atom_site_label_2
_ccdc_geom_bond_type
C12   C17   A    
N1    Zn2   S    
C6    H10   S    
C16   C21   S    
C4    O3    A    
O5    Zn1   S    
C19   C20   A    
C5    C23   A    
C12   C15   A    
C9    O7    A    
C4    O4    A    
O7    Zn1   S    
C2    C3    A    
C8    O6    A    
C13   C14   D    
C14   H3    S    
C1    C12   S    
O2    Zn2   S    
C6    C7    S    
C18   H2    S    
C7    H12   S    
C11   H5    S    
O1    Zn1   S    
C10   H14   S    
C7    C23   S    
C5    C6    S    
C2    N1    A    
C7    H11   S    
C1    O2    A    
C3    N2    A    
C17   C18   A    
C22   H1    S    
C17   H15   S    
C3    H9    S    
C11   C14   S    
N2    Zn1   S    
C8    C19   S    
C10   C11   D    
O4    Zn2   S    
C4    C10   S    
C1    O1    A    
C9    O8    A    
C20   C21   S    
C13   H13   S    
C18   C19   A    
C5    N2    A    
O3    Zn1   S    
C9    C13   S    
C2    H8    S    
O6    Zn2   S    
C22   H7    S    
C8    O5    A    
C21   C22   S    
C21   H6    S    
C16   N3    T    
C23   N1    A    
C15   C22   S    
C6    H4    S    
C15   C20   A    
O8    Zn2   S    
