data_mof_unit_3264.cif
_audit_creation_date              2012-12-10T18:57:10-0500
_audit_creation_method            fapswitch 2.2
_symmetry_space_group_name_H-M    P1
_symmetry_Int_Tables_number       1
_space_group_crystal_system       triclinic
_cell_length_a                    10.766239
_cell_length_b                    9.915241
_cell_length_c                    10.729804
_cell_angle_alpha                 90.931427
_cell_angle_beta                  93.477403
_cell_angle_gamma                 90.44304
_cell_volume                      1143.10140584

loop_
_atom_site_label
_atom_site_type_symbol
_atom_type_description
_atom_site_fract_x
_atom_site_fract_y
_atom_site_fract_z
_atom_type_partial_charge
C1    C     C_R   0.260632 0.500523 0.507295 0.900470
C2    C     C_R   0.483487 0.621850 0.939034 0.134549
C3    C     C_R   0.476202 0.498321 0.127729 -0.121112
C4    C     C_R   0.475902 0.501290 0.870638 -0.111933
C5    C     C_R   0.446499 0.379401 0.059675 -0.196830
C6    C     C_R   0.446451 0.380870 0.930298 -0.186953
C7    C     C_3   0.582278 0.728253 0.942940 -0.421334
C8    C     C_3   0.585581 0.723878 0.083083 -0.449114
C9    C     C_R   0.062657 0.382377 0.502094 -0.171748
C10   C     C_R   0.935506 0.382869 0.492918 -0.165744
C11   C     C_R   0.872503 0.505368 0.487056 -0.114432
C12   C     C_R   0.739530 0.501068 0.493167 0.912471
C13   C     C_R   0.127966 0.504230 0.514816 -0.104963
C14   C     C_R   0.937885 0.630262 0.489003 -0.116882
C15   C     C_R   0.065203 0.629314 0.520333 -0.100855
C16   C     C_2   0.876598 0.758942 0.450944 1.016606
C17   C     C_2   0.130139 0.756333 0.564462 1.017041
C18   C     C_2   0.656539 0.879381 0.691338 0.937176
C19   C     C_2   0.362225 0.864766 0.298468 0.949752
C20   C     C_R   0.567049 0.076904 0.588908 -0.095289
C21   C     C_R   0.433632 0.071530 0.410067 -0.089668
C22   C     C_R   0.569740 0.933983 0.590610 -0.006103
C23   C     C_R   0.433111 0.928438 0.407748 0.009311
C24   C     C_R   0.495173 0.498923 0.260070 0.895602
C25   C     C_R   0.495870 0.500662 0.739926 0.899645
C26   C     C_R   0.485006 0.619813 0.066557 0.149580
H1    H     H_    0.431405 0.284813 0.105822 0.187238
H2    H     H_    0.380678 0.126932 0.339045 0.165334
H3    H     H_    0.770508 0.856187 0.320197 0.337036
H4    H     H_    0.237387 0.850034 0.700774 0.341002
H5    H     H_    0.782572 0.739722 0.745289 0.330862
H6    H     H_    0.243575 0.720724 0.228194 0.335941
H7    H     H_    0.431406 0.286912 0.878456 0.184434
H8    H     H_    0.670191 0.691748 0.906583 0.215204
H9    H     H_    0.555515 0.819312 0.126377 0.244225
H10   H     H_    0.544767 0.824674 0.906402 0.240517
H11   H     H_    0.673909 0.682617 0.125271 0.233363
H12   H     H_    0.109573 0.286143 0.499840 0.187879
H13   H     H_    0.886774 0.286714 0.489129 0.188392
H14   H     H_    0.621216 0.137686 0.657410 0.187843
N1    N     N_R   0.500000 0.857200 0.500000 -0.146785
N2    N     N_R   0.500000 0.142810 0.500000 -0.111436
O1    O     O_R   0.316770 0.614620 0.499990 -0.564707
O2    O     O_R   0.809926 0.764891 0.335280 -0.811230
O3    O     O_2   0.130749 0.855064 0.497649 -0.597922
O4    O     O_R   0.194278 0.760117 0.681779 -0.797306
O5    O     O_2   0.690328 0.952072 0.780641 -0.661438
O6    O     O_R   0.708998 0.752878 0.683246 -0.755775
O7    O     O_2   0.361429 0.919947 0.197227 -0.677791
O8    O     O_R   0.288312 0.750642 0.309995 -0.741970
O9    O     O_R   0.683230 0.614620 0.500010 -0.557471
O10   O     O_R   0.316800 0.385290 0.500000 -0.632783
O11   O     O_R   0.683200 0.385290 0.500000 -0.628059
O12   O     O_R   0.500000 0.614690 0.316780 -0.603281
O13   O     O_R   0.500000 0.614690 0.683220 -0.585171
O14   O     O_R   0.500020 0.385360 0.316780 -0.629453
O15   O     O_R   0.499980 0.385360 0.683220 -0.633102
O16   O     O_2   0.883164 0.858220 0.520222 -0.611226
Zn1   Zn    Zn3+2 0.500000 0.653120 0.500000 1.030128
Zn2   Zn    Zn3+2 0.500000 0.346880 0.500000 0.968268

loop_
_geom_bond_atom_site_label_1
_geom_bond_atom_site_label_2
_ccdc_geom_bond_type
C19   C23   S    
C11   C12   S    
O13   Zn1   S    
C24   O14   A    
C18   C22   S    
C8    C26   S    
C9    C10   A    
C16   O2    S    
H4    O4    S    
C20   N2    A    
C12   O11   A    
C23   N1    A    
C6    H7    S    
O1    Zn1   S    
H5    O6    S    
C18   O5    D    
O11   Zn2   S    
C4    C25   S    
C7    C8    S    
C2    C26   A    
C16   O16   D    
C19   O8    S    
H6    O8    S    
C3    C24   S    
C7    H10   S    
C25   O15   A    
C2    C4    A    
C9    H12   S    
C1    O10   A    
C21   H2    S    
C20   C22   A    
H3    O2    S    
O12   Zn1   S    
C13   C15   A    
C21   C23   A    
C5    C6    A    
C20   H14   S    
C7    H8    S    
C14   C16   S    
C22   N1    A    
O9    Zn1   S    
C8    H11   S    
C24   O12   A    
C21   N2    A    
O14   Zn2   S    
C12   O9    A    
C1    C13   S    
C17   O4    S    
N1    Zn1   S    
C4    C6    A    
C10   C11   A    
N2    Zn2   S    
C11   C14   A    
C15   C17   S    
C19   O7    D    
C14   C15   A    
O15   Zn2   S    
C9    C13   A    
O10   Zn2   S    
C2    C7    S    
C5    H1    S    
C1    O1    A    
C3    C26   A    
C25   O13   A    
C17   O3    D    
C10   H13   S    
C3    C5    A    
C8    H9    S    
C18   O6    S    
