data_mof_unit_786.cif
_audit_creation_date              2012-12-11T15:26:45-0500
_audit_creation_method            fapswitch 2.2
_symmetry_space_group_name_H-M    P1
_symmetry_Int_Tables_number       1
_space_group_crystal_system       triclinic
_cell_length_a                    7.454027
_cell_length_b                    11.634212
_cell_length_c                    28.907745
_cell_angle_alpha                 89.999851
_cell_angle_beta                  89.657482
_cell_angle_gamma                 90.000706
_cell_volume                      2506.88487205

loop_
_atom_site_label
_atom_site_type_symbol
_atom_type_description
_atom_site_fract_x
_atom_site_fract_y
_atom_site_fract_z
_atom_type_partial_charge
O1    O     O_R   0.647170 0.849180 0.201220 -0.533787
O2    O     O_R   0.352830 0.150820 0.798780 -0.533269
O3    O     O_R   0.352830 0.150820 0.701220 -0.530834
O4    O     O_R   0.647170 0.849180 0.298780 -0.534359
O5    O     O_R   0.147170 0.650820 0.298780 -0.534360
O6    O     O_R   0.852830 0.349180 0.701220 -0.530836
O7    O     O_R   0.852830 0.349180 0.798780 -0.533271
O8    O     O_R   0.147170 0.650820 0.201220 -0.533784
O9    O     O_R   0.317430 0.862210 0.298450 -0.532586
O10   O     O_R   0.682570 0.137790 0.701550 -0.537162
O11   O     O_R   0.682570 0.137790 0.798450 -0.533884
O12   O     O_R   0.317430 0.862210 0.201550 -0.533787
O13   O     O_R   0.817430 0.637790 0.201550 -0.533786
O14   O     O_R   0.182570 0.362210 0.798450 -0.533887
O15   O     O_R   0.182570 0.362210 0.701550 -0.537162
O16   O     O_R   0.817430 0.637790 0.298450 -0.532585
C1    C     C_R   0.485084 0.887647 0.313374 0.688577
C2    C     C_R   0.514911 0.112511 0.686536 0.685654
C3    C     C_R   0.514270 0.112389 0.813512 0.688753
C4    C     C_R   0.485730 0.887626 0.186494 0.687441
C5    C     C_R   0.985730 0.612373 0.186494 0.687462
C6    C     C_R   0.014273 0.387613 0.813511 0.688729
C7    C     C_R   0.014912 0.387490 0.686536 0.685657
C8    C     C_R   0.985083 0.612354 0.313375 0.688570
H1    H     H_    0.095757 0.609625 0.689705 0.111041
H2    H     H_    0.967091 0.384746 0.306327 0.108557
H3    H     H_    0.887561 0.393046 0.190350 0.113009
H4    H     H_    0.112397 0.606946 0.809674 0.113095
H5    H     H_    0.612365 0.893054 0.809672 0.113129
H6    H     H_    0.387597 0.106953 0.190353 0.113023
H7    H     H_    0.467067 0.115263 0.306327 0.108578
H8    H     H_    0.595731 0.890374 0.689705 0.111048
H9    H     H_    0.915542 0.348100 0.600695 0.181529
H10   H     H_    0.071117 0.647785 0.401195 0.184823
H11   H     H_    0.106090 0.642697 0.099818 0.179324
H12   H     H_    0.894012 0.357220 0.900193 0.179389
H13   H     H_    0.393972 0.142765 0.900196 0.179379
H14   H     H_    0.606062 0.857299 0.099820 0.179326
H15   H     H_    0.571180 0.852219 0.401195 0.184815
H16   H     H_    0.415577 0.151910 0.600693 0.181529
O17   O     O_3   0.480630 0.680630 0.250000 -0.374574
O18   O     O_3   0.519370 0.319370 0.750000 -0.374060
O19   O     O_3   0.980630 0.819370 0.250000 -0.374571
O20   O     O_3   0.019370 0.180630 0.750000 -0.374060
V1    V     V_3+5 0.205800 0.762860 0.250000 1.378069
V2    V     V_3+5 0.794200 0.237140 0.750000 1.375607
V3    V     V_3+5 0.705800 0.737140 0.250000 1.378065
V4    V     V_3+5 0.294200 0.262860 0.750000 1.375609
C9    C     C_R   0.990205 0.528644 0.351244 -0.102523
C10   C     C_R   0.009271 0.469719 0.648072 -0.102698
C11   C     C_R   0.008509 0.471456 0.851574 -0.102373
C12   C     C_R   0.991504 0.528507 0.148443 -0.102043
C13   C     C_R   0.491506 0.971491 0.148443 -0.102040
C14   C     C_R   0.508494 0.028544 0.851574 -0.102371
C15   C     C_R   0.509268 0.030283 0.648071 -0.102688
C16   C     C_R   0.490214 0.971357 0.351243 -0.102518
C17   C     C_R   0.987788 0.332443 0.377847 0.195786
C18   C     C_R   0.052755 0.662552 0.618974 0.193054
C19   C     C_R   0.073843 0.662255 0.880399 0.185392
C20   C     C_R   0.926081 0.337716 0.119626 0.185691
C21   C     C_R   0.426095 0.162284 0.119628 0.185755
C22   C     C_R   0.573838 0.837746 0.880398 0.185454
C23   C     C_R   0.552749 0.837450 0.618974 0.193052
C24   C     C_R   0.487814 0.167558 0.377847 0.195765
C25   C     C_R   0.973487 0.412854 0.342082 -0.187824
C26   C     C_R   0.057495 0.582817 0.655181 -0.185836
C27   C     C_R   0.070686 0.582067 0.844286 -0.188263
C28   C     C_R   0.929285 0.417909 0.155737 -0.188832
C29   C     C_R   0.429308 0.082091 0.155739 -0.188865
C30   C     C_R   0.570657 0.917933 0.844284 -0.188333
C31   C     C_R   0.557478 0.917184 0.655181 -0.185851
C32   C     C_R   0.473477 0.087149 0.342082 -0.187850
C33   C     C_R   0.017356 0.564058 0.396409 -0.148243
C34   C     C_R   0.966733 0.433153 0.603798 -0.157594
C35   C     C_R   0.960393 0.437886 0.896116 -0.145697
C36   C     C_R   0.039661 0.562050 0.103901 -0.145510
C37   C     C_R   0.539640 0.937947 0.103901 -0.145501
C38   C     C_R   0.460372 0.062108 0.896117 -0.145663
C39   C     C_R   0.466752 0.066852 0.603796 -0.157612
C40   C     C_R   0.517402 0.935944 0.396408 -0.148228
C41   C     C_R   0.984010 0.491302 0.434464 0.023047
C42   C     C_R   0.984624 0.504903 0.564704 0.027625
C43   C     C_R   0.996935 0.507359 0.934937 0.029704
C44   C     C_R   0.003073 0.492580 0.065084 0.029569
C45   C     C_R   0.503054 0.007418 0.065084 0.029562
C46   C     C_R   0.496932 0.992637 0.934937 0.029716
C47   C     C_R   0.484643 0.995101 0.564702 0.027617
C48   C     C_R   0.484054 0.008699 0.434463 0.023040
C49   C     C_R   0.973542 0.370378 0.425587 0.017045
C50   C     C_R   0.004202 0.625349 0.572807 0.027038
C51   C     C_R   0.026206 0.626633 0.926841 0.029883
C52   C     C_R   0.973746 0.373316 0.073183 0.029936
C53   C     C_R   0.473734 0.126684 0.073182 0.029924
C54   C     C_R   0.526220 0.873365 0.926841 0.029830
C55   C     C_R   0.504204 0.874655 0.572805 0.027034
C56   C     C_R   0.473580 0.129622 0.425585 0.017045
C57   C     C_R   0.971719 0.537189 0.480553 -0.132873
C58   C     C_R   0.977178 0.458825 0.518580 -0.129861
C59   C     C_R   0.999179 0.460891 0.980911 -0.134411
C60   C     C_R   0.000827 0.539046 0.019112 -0.134425
C61   C     C_R   0.500812 0.960951 0.019111 -0.134425
C62   C     C_R   0.499169 0.039106 0.980910 -0.134412
C63   C     C_R   0.477212 0.041178 0.518579 -0.129874
C64   C     C_R   0.471756 0.962814 0.480552 -0.132866
C65   C     C_R   0.985470 0.336382 0.510012 0.425934
C66   C     C_R   0.952281 0.659311 0.489144 0.409392
C67   C     C_R   0.985516 0.661271 0.010878 0.406907
C68   C     C_R   0.014487 0.338666 0.989149 0.406986
C69   C     C_R   0.514479 0.161332 0.989147 0.406976
C70   C     C_R   0.485507 0.838724 0.010876 0.406925
C71   C     C_R   0.452299 0.840695 0.489141 0.409427
C72   C     C_R   0.485502 0.163620 0.510009 0.425943
C73   C     C_R   0.959076 0.293876 0.464082 0.099748
C74   C     C_R   0.966190 0.702087 0.535546 0.057683
C75   C     C_R   0.995525 0.703985 0.964365 0.059133
C76   C     C_R   0.004433 0.295956 0.035662 0.059196
C77   C     C_R   0.504422 0.204043 0.035660 0.059199
C78   C     C_R   0.495524 0.796011 0.964364 0.059098
C79   C     C_R   0.466187 0.797920 0.535543 0.057669
C80   C     C_R   0.459101 0.206122 0.464079 0.099751
C81   C     C_3   0.915471 0.168019 0.456641 -0.786595
H17   H     H_    0.818994 0.134802 0.481904 0.194993
H18   H     H_    0.838534 0.153898 0.424857 0.228081
H19   H     H_    0.038655 0.114566 0.457189 0.200607
C82   C     C_3   0.917666 0.825992 0.545515 -0.780107
H20   H     H_    0.801913 0.852656 0.525051 0.209420
H21   H     H_    0.869941 0.839893 0.580932 0.241180
H22   H     H_    0.032524 0.884107 0.538681 0.183181
C83   C     C_3   0.944835 0.827504 0.954539 -0.790068
H23   H     H_    0.830203 0.854043 0.975915 0.209460
H24   H     H_    0.059615 0.886085 0.960362 0.184492
H25   H     H_    0.894668 0.840233 0.919339 0.237411
C84   C     C_3   0.055108 0.172434 0.045499 -0.790051
H26   H     H_    0.169739 0.145860 0.024127 0.209453
H27   H     H_    0.105232 0.159729 0.080704 0.237480
H28   H     H_    0.940305 0.113851 0.039676 0.184432
C85   C     C_3   0.555076 0.327571 0.045497 -0.790224
H29   H     H_    0.669665 0.354166 0.024128 0.209459
H30   H     H_    0.440266 0.386130 0.039682 0.184487
H31   H     H_    0.605218 0.340279 0.080697 0.237513
C86   C     C_3   0.444816 0.672489 0.954532 -0.790133
H32   H     H_    0.330230 0.645916 0.975916 0.209469
H33   H     H_    0.394630 0.659787 0.919333 0.237465
H34   H     H_    0.559627 0.613904 0.960337 0.184461
C87   C     C_3   0.417655 0.674014 0.545509 -0.780058
H35   H     H_    0.301872 0.647356 0.525049 0.209416
H36   H     H_    0.532525 0.615901 0.538669 0.183175
H37   H     H_    0.369956 0.660113 0.580930 0.241181
C88   C     C_3   0.415407 0.331966 0.456639 -0.786711
H38   H     H_    0.318845 0.365122 0.481892 0.195068
H39   H     H_    0.538544 0.385464 0.457209 0.200584
H40   H     H_    0.338541 0.346080 0.424843 0.228111
C89   C     C_3   0.040549 0.213541 0.361430 -0.796491
H41   H     H_    0.125829 0.218952 0.329822 0.204560
H42   H     H_    0.124732 0.168311 0.386792 0.232488
H43   H     H_    0.920184 0.162739 0.351979 0.212950
C90   C     C_3   0.117386 0.781291 0.632342 -0.808745
H44   H     H_    0.226142 0.775438 0.658265 0.211087
H45   H     H_    0.175128 0.828618 0.602886 0.237035
H46   H     H_    0.007442 0.831190 0.648824 0.208393
C91   C     C_3   0.143268 0.779565 0.866644 -0.802164
H47   H     H_    0.251918 0.771343 0.840468 0.210621
H48   H     H_    0.035182 0.831012 0.850446 0.206595
H49   H     H_    0.201524 0.826528 0.895935 0.240107
C92   C     C_3   0.856564 0.220441 0.133389 -0.802595
H50   H     H_    0.747687 0.228760 0.159492 0.210517
H51   H     H_    0.798554 0.173369 0.104094 0.240156
H52   H     H_    0.964489 0.169056 0.149681 0.206588
C93   C     C_3   0.356581 0.279552 0.133400 -0.802878
H53   H     H_    0.247654 0.271201 0.159470 0.210548
H54   H     H_    0.464430 0.330885 0.149731 0.206646
H55   H     H_    0.298664 0.326684 0.104118 0.240178
C94   C     C_3   0.643302 0.720455 0.866634 -0.802295
H56   H     H_    0.752190 0.728753 0.840534 0.210665
H57   H     H_    0.701306 0.673370 0.895925 0.240077
H58   H     H_    0.535348 0.669102 0.850340 0.206677
C95   C     C_3   0.617390 0.718715 0.632343 -0.808806
H59   H     H_    0.726179 0.724581 0.658252 0.211106
H60   H     H_    0.507482 0.668836 0.648846 0.208402
H61   H     H_    0.675079 0.671363 0.602887 0.237030
C96   C     C_3   0.540642 0.286460 0.361431 -0.796480
H62   H     H_    0.626039 0.281030 0.329846 0.204589
H63   H     H_    0.420304 0.337252 0.351942 0.212930
H64   H     H_    0.624720 0.331720 0.386807 0.232499
O21   O     O_3   0.080889 0.270334 0.542325 -0.582084
C97   C     C_3   0.006785 0.162927 0.555501 0.042659
H65   H     H_    0.072412 0.093725 0.535165 0.143145
H66   H     H_    0.861453 0.159220 0.551689 0.198852
C98   C     C_3   0.039807 0.138862 0.606813 -0.731328
H67   H     H_    0.913633 0.149345 0.627016 0.207091
H68   H     H_    0.086613 0.049124 0.611745 0.201227
H69   H     H_    0.139290 0.199330 0.621406 0.230786
O22   O     O_3   0.881997 0.727933 0.453274 -0.575124
C99   C     C_3   0.964357 0.837306 0.446347 0.057259
H70   H     H_    0.091838 0.847941 0.464943 0.181970
H71   H     H_    0.869895 0.905381 0.457672 0.140657
C100  C     C_3   0.997135 0.862230 0.395069 -0.701937
H72   H     H_    0.888500 0.825110 0.373677 0.223118
H73   H     H_    0.000858 0.956506 0.389199 0.189155
H74   H     H_    0.128678 0.827694 0.383584 0.224800
O23   O     O_3   0.920741 0.730093 0.047473 -0.574480
C101  C     C_3   0.005296 0.838750 0.053294 0.067705
H75   H     H_    0.910799 0.907101 0.042628 0.131206
H76   H     H_    0.131262 0.848112 0.033499 0.179456
C102  C     C_3   0.042632 0.863523 0.104205 -0.684091
H77   H     H_    0.169178 0.822191 0.115261 0.227589
H78   H     H_    0.059067 0.957471 0.109460 0.186640
H79   H     H_    0.929827 0.833222 0.126288 0.215568
O24   O     O_3   0.079291 0.269839 0.952560 -0.574482
C103  C     C_3   0.994713 0.161189 0.946733 0.067848
H80   H     H_    0.868741 0.151826 0.966528 0.179422
H81   H     H_    0.089211 0.092827 0.957394 0.131212
C104  C     C_3   0.957365 0.136450 0.895818 -0.684409
H82   H     H_    0.070005 0.166919 0.873731 0.215675
H83   H     H_    0.941222 0.042514 0.890537 0.186652
H84   H     H_    0.830699 0.177641 0.884786 0.227611
O25   O     O_3   0.579295 0.230153 0.952556 -0.574484
C105  C     C_3   0.494745 0.338808 0.946723 0.067789
H85   H     H_    0.589250 0.407162 0.957385 0.131231
H86   H     H_    0.368768 0.348183 0.966512 0.179449
C106  C     C_3   0.457442 0.363558 0.895810 -0.684393
H87   H     H_    0.330849 0.322303 0.884760 0.227582
H88   H     H_    0.441176 0.457498 0.890535 0.186673
H89   H     H_    0.570173 0.333166 0.873733 0.215669
O26   O     O_3   0.420751 0.769895 0.047471 -0.574483
C107  C     C_3   0.505325 0.661244 0.053290 0.067765
H90   H     H_    0.631255 0.651875 0.033479 0.179443
H91   H     H_    0.410800 0.592886 0.042641 0.131195
C108  C     C_3   0.542762 0.636497 0.104199 -0.684099
H92   H     H_    0.430030 0.666835 0.126297 0.215562
H93   H     H_    0.559145 0.542554 0.109461 0.186660
H94   H     H_    0.669352 0.677805 0.115233 0.227627
O27   O     O_3   0.382004 0.772080 0.453271 -0.575121
C109  C     C_3   0.464335 0.662700 0.446342 0.057241
H95   H     H_    0.369870 0.594630 0.457669 0.140668
H96   H     H_    0.591816 0.652056 0.464933 0.181969
C110  C     C_3   0.497081 0.637774 0.395065 -0.701956
H97   H     H_    0.628615 0.672304 0.383575 0.224791
H98   H     H_    0.500788 0.543496 0.389195 0.189150
H99   H     H_    0.388443 0.674899 0.373678 0.223131
O28   O     O_3   0.580903 0.229678 0.542323 -0.582081
C111  C     C_3   0.506781 0.337086 0.555491 0.042677
H100  H     H_    0.361453 0.340781 0.551677 0.198859
H101  H     H_    0.572394 0.406286 0.535150 0.143126
C112  C     C_3   0.539781 0.361172 0.606803 -0.731352
H102  H     H_    0.639242 0.300702 0.621405 0.230780
H103  H     H_    0.586605 0.450907 0.611730 0.201232
H104  H     H_    0.413594 0.350708 0.627001 0.207094

loop_
_geom_bond_atom_site_label_1
_geom_bond_atom_site_label_2
_ccdc_geom_bond_type
C99   H71   S    
C48   C56   A    
C112  H103  S    
O9    V1    S    
C61   C62   A    
C100  H74   S    
C42   C58   A    
C93   H53   S    
O2    V4    S    
C68   C76   A    
C78   C86   S    
C13   C29   A    
C36   C44   A    
C11   C27   A    
C39   C47   A    
C91   H47   S    
C17   C49   A    
C69   C77   A    
C106  H89   S    
C96   H62   S    
C59   C68   A    
C85   H30   S    
O11   C3    A    
C80   C88   S    
C92   H50   S    
C58   C65   A    
C9    C25   A    
C66   C74   A    
O7    C6    A    
C65   C73   A    
C11   C35   A    
C83   H23   S    
C108  H94   S    
C10   C34   A    
C75   C83   S    
C21   C53   A    
C102  H79   S    
C99   C100  S    
C110  H98   S    
C23   C55   A    
O3    V4    S    
C71   O27   S    
O8    C5    A    
C22   C30   A    
O3    C2    A    
C71   C79   A    
O28   C111  S    
O23   C101  S    
C65   O21   S    
C98   H68   S    
O8    V1    S    
C81   H19   S    
H3    C28   S    
C46   C54   A    
C19   C27   A    
C45   C53   A    
C18   C26   A    
C90   H44   S    
O21   C97   S    
C89   H41   S    
C16   C32   A    
C101  C102  S    
C47   C55   A    
O10   V2    S    
C82   H22   S    
C111  H101  S    
C91   H48   S    
C89   H42   S    
O27   C109  S    
C20   C52   A    
C12   C28   A    
C46   C62   A    
C57   C58   A    
C83   H25   S    
C41   C49   A    
C38   C46   A    
O15   C7    A    
C99   H70   S    
C37   C45   A    
O16   C8    A    
C43   C59   A    
C112  H102  S    
C84   H27   S    
C93   H54   S    
C88   H39   S    
C70   C78   A    
C100  H72   S    
C86   H32   S    
C109  H96   S    
O15   V4    S    
C34   C42   A    
C66   O22   S    
O16   V3    S    
C33   C41   A    
C48   C64   A    
O20   V2    S    
C87   H35   S    
H8    C31   S    
C104  H83   S    
C85   H31   S    
C49   C73   A    
H11   C36   S    
C111  C112  S    
C101  H75   S    
C87   H36   S    
C44   C60   A    
O7    V2    S    
H4    C27   S    
C62   C69   A    
C24   C56   A    
C60   C67   A    
C110  H99   S    
C86   H34   S    
C72   C80   A    
C74   C82   S    
O1    V3    S    
C7    C10   S    
O14   V4    S    
C76   C84   S    
C95   H60   S    
O25   C105  S    
C104  H82   S    
C22   C94   S    
C17   C89   S    
C70   O26   S    
C23   C95   S    
C63   C72   A    
C109  C110  S    
C90   H45   S    
C98   H69   S    
C13   C37   A    
C108  H92   S    
C19   C91   S    
H12   C35   S    
C84   H28   S    
C106  H87   S    
C15   C39   A    
C105  H86   S    
C59   C60   A    
C14   C30   A    
C95   H61   S    
H6    C29   S    
O12   C4    A    
O24   C103  S    
O17   V3    S    
H16   C39   S    
O13   C5    A    
C107  H90   S    
O18   V4    S    
C42   C50   A    
C89   H43   S    
O19   V1    S    
C18   C50   A    
C1    C16   S    
C67   C75   A    
C81   H17   S    
C94   H57   S    
C101  H76   S    
C2    C15   S    
C95   H59   S    
C47   C63   A    
C24   C96   S    
C3    C14   S    
O9    C1    A    
C72   O28   S    
C23   C31   A    
C100  H73   S    
C103  H80   S    
C90   H46   S    
C107  H91   S    
C22   C54   A    
C84   H26   S    
C108  H93   S    
C93   H55   S    
C9    C33   A    
C88   H40   S    
C21   C93   S    
C109  H95   S    
O4    C1    A    
C97   H66   S    
C103  C104  S    
C91   H49   S    
C45   C61   A    
C87   H37   S    
C105  C106  S    
O13   V3    S    
H5    C30   S    
C19   C51   A    
C96   H64   S    
C21   C29   A    
C8    C9    S    
C102  H77   S    
H7    C32   S    
O1    C4    A    
O6    V2    S    
O26   C107  S    
O2    C3    A    
H2    C25   S    
C56   C80   A    
C77   C85   S    
H1    C26   S    
C17   C25   A    
C4    C13   S    
C12   C36   A    
C18   C90   S    
C16   C40   A    
C64   C71   A    
C10   C26   A    
C67   O23   S    
C92   H52   S    
O12   V1    S    
H14   C37   S    
C79   C87   S    
C107  C108  S    
C43   C51   A    
C85   H29   S    
C68   O24   S    
C103  H81   S    
C20   C92   S    
C53   C77   A    
C106  H88   S    
C55   C79   A    
H15   C40   S    
O14   C6    A    
C97   C98   S    
C86   H33   S    
C61   C70   A    
C40   C48   A    
C88   H38   S    
C54   C78   A    
C35   C43   A    
C105  H85   S    
C82   H20   S    
O5    C8    A    
O5    V1    S    
O10   C2    A    
O6    C7    A    
C111  H100  S    
C104  H84   S    
C94   H58   S    
C51   C75   A    
C102  H78   S    
C50   C74   A    
C98   H67   S    
C81   H18   S    
C69   O25   S    
H10   C33   S    
C94   H56   S    
C57   C66   A    
H9    C34   S    
C96   H63   S    
C73   C81   S    
C20   C28   A    
C92   H51   S    
O22   C99   S    
C112  H104  S    
C63   C64   A    
C82   H21   S    
C41   C57   A    
O11   V2    S    
C44   C52   A    
C83   H24   S    
C97   H65   S    
C110  H97   S    
H13   C38   S    
C5    C12   S    
C15   C31   A    
C24   C32   A    
C6    C11   S    
C14   C38   A    
O4    V3    S    
C52   C76   A    
