data_mof_unit_3000.cif
_audit_creation_date              2012-10-26T19:35:34-0400
_audit_creation_method            fapswitch 2.2
_symmetry_space_group_name_H-M    P1
_symmetry_Int_Tables_number       1
_space_group_crystal_system       triclinic
_cell_length_a                    15.843319
_cell_length_b                    10.815546
_cell_length_c                    9.588329
_cell_angle_alpha                 89.875357
_cell_angle_beta                  90.025596
_cell_angle_gamma                 90.134314
_cell_volume                      1642.99135955

loop_
_atom_site_label
_atom_site_type_symbol
_atom_type_description
_atom_site_fract_x
_atom_site_fract_y
_atom_site_fract_z
_atom_type_partial_charge
C1    C     C_R   0.498561 0.262448 0.500078 0.551504
C2    C     C_R   0.490423 0.129246 0.500218 0.011734
C3    C     C_R   0.475356 0.064652 0.375474 -0.144148
C4    C     C_R   0.339913 0.500082 0.499952 0.540577
C5    C     C_R   0.475249 0.935726 0.375438 -0.126998
C6    C     C_R   0.490496 0.870706 0.500018 0.025243
C7    C     C_R   0.493638 0.936125 0.625228 0.013349
C8    C     C_3   0.556083 0.929600 0.741798 -0.264209
C9    C     C_3   0.556010 0.070000 0.741854 -0.242329
C10   C     C_R   0.574156 0.506670 0.073147 0.196575
C11   C     C_R   0.427509 0.483091 0.074036 -0.037565
C12   C     C_3   0.082768 0.501256 0.499671 0.032845
C13   C     C_R   0.427470 0.483421 0.925974 -0.030894
C14   C     C_R   0.574229 0.504794 0.926103 0.203773
C15   C     C_3   0.641331 0.602679 0.916796 -0.147449
C16   C     C_R   0.498605 0.737550 0.499885 0.558056
C17   C     C_3   0.641346 0.605917 0.077398 -0.030912
C18   C     C_R   0.660038 0.500298 0.500049 0.574434
C19   C     C_3   0.971771 0.432163 0.606778 -0.099258
C20   C     C_3   0.028030 0.384351 0.485984 -0.083686
C21   C     C_1   0.250126 0.500559 0.499902 -0.034628
C22   C     C_1   0.749748 0.500900 0.500107 0.046583
C23   C     C_3   0.972087 0.618032 0.513464 -0.123019
C24   C     C_3   0.028188 0.548811 0.620570 -0.105642
C25   C     C_2   0.722982 0.559085 0.851559 0.245380
C26   C     C_2   0.723527 0.563617 0.144208 0.296456
C27   C     C_2   0.608992 0.727671 0.133092 0.210870
C28   C     C_2   0.940471 0.402149 0.246257 0.253470
C29   C     C_3   0.917033 0.501445 0.499817 0.048260
C30   C     C_3   0.028333 0.570703 0.392423 -0.137421
C31   C     C_3   0.972295 0.454518 0.380618 0.036271
C32   C     C_1   0.174493 0.500977 0.499852 -0.059538
C33   C     C_1   0.825327 0.501322 0.500070 0.002779
C34   C     C_R   0.493566 0.063334 0.625323 0.010617
Cu1   Cu    Cu3+1 0.500000 0.499980 0.640670 0.964401
Cu2   Cu    Cu3+1 0.500000 0.500020 0.359330 0.991031
H1    H     H_    0.052037 0.288616 0.473899 0.125102
H2    H     H_    0.467416 0.113044 0.277344 0.141921
H3    H     H_    0.466975 0.887721 0.277408 0.137677
H4    H     H_    0.528228 0.888898 0.837936 0.131067
H5    H     H_    0.617290 0.111233 0.709188 0.167892
H6    H     H_    0.768984 0.627017 0.817137 0.080949
H7    H     H_    0.772425 0.630767 0.168076 0.111091
H8    H     H_    0.549673 0.764457 0.094502 0.091176
H9    H     H_    0.950753 0.451809 0.149328 0.098335
H10   H     H_    0.947896 0.713700 0.525070 0.120309
H11   H     H_    0.617425 0.889112 0.709134 0.142624
H12   H     H_    0.528149 0.110127 0.837995 0.152536
H13   H     H_    0.368316 0.470531 0.128008 0.129182
H14   H     H_    0.368219 0.471295 0.872030 0.130563
H15   H     H_    0.617140 0.687867 0.865541 0.071101
H16   H     H_    0.947287 0.375769 0.694847 0.142873
H17   H     H_    0.052619 0.626903 0.304038 0.103085
H18   H     H_    0.052676 0.587732 0.719728 0.112783
N1    N     N_R   0.500530 0.500930 0.147930 -0.260342
N2    N     N_R   0.500530 0.500890 0.852020 -0.253192
O1    O     O_R   0.500000 0.319640 0.618810 -0.492552
O2    O     O_2   0.737250 0.454187 0.166327 -0.443418
O3    O     O_2   0.648432 0.786245 0.220376 -0.513307
O4    O     O_2   0.901758 0.304515 0.245555 -0.444980
O5    O     O_R   0.500010 0.319680 0.381230 -0.495687
O6    O     O_R   0.379070 0.499970 0.618770 -0.511618
O7    O     O_R   0.379080 0.500010 0.381190 -0.517009
O8    O     O_R   0.499990 0.680320 0.618770 -0.512501
O9    O     O_R   0.500000 0.680360 0.381190 -0.492700
O10   O     O_R   0.620920 0.499990 0.618810 -0.482253
O11   O     O_R   0.620930 0.500030 0.381230 -0.455007
O12   O     O_2   0.739055 0.449106 0.840104 -0.462214

loop_
_geom_bond_atom_site_label_1
_geom_bond_atom_site_label_2
_ccdc_geom_bond_type
C25   H6    S    
C26   H7    S    
C14   N2    A    
C23   C24   S    
C6    C7    A    
C11   H13   S    
C18   C22   S    
C1    O1    A    
C18   O10   A    
Cu2   O7    S    
C26   O2    D    
C12   C24   S    
C17   C27   S    
C9    H5    S    
C19   C20   S    
C30   C31   S    
Cu1   O1    S    
C13   N2    A    
C19   H16   S    
C2    C34   A    
C28   O4    D    
C19   C24   S    
Cu1   N2    S    
C8    H11   S    
C7    C8    S    
C29   C31   S    
Cu2   N1    S    
C27   O3    D    
C12   C32   S    
C4    C21   S    
C11   C13   A    
C4    O7    A    
C12   C20   S    
Cu1   O8    S    
C25   O12   D    
C17   C26   S    
C23   C29   S    
C13   H14   S    
C21   C32   T    
C9    C34   S    
C2    C3    A    
Cu1   O6    S    
C15   H15   S    
C5    H3    S    
C10   N1    A    
C5    C6    A    
C30   H17   S    
C28   H9    S    
Cu2   O11   S    
C15   C25   S    
C10   C17   S    
C24   H18   S    
Cu2   O5    S    
C19   C29   S    
C23   C30   S    
C4    O6    A    
C11   N1    A    
C7    C34   A    
C3    H2    S    
C9    H12   S    
C15   C17   S    
C1    C2    S    
C10   C14   A    
C8    H4    S    
C23   H10   S    
C22   C33   T    
Cu2   O9    S    
C16   O9    A    
C16   O8    A    
Cu1   O10   S    
C12   C30   S    
C18   O11   A    
C14   C15   S    
C20   H1    S    
C6    C16   S    
C27   H8    S    
C28   C31   S    
Cu1   Cu2   S    
C29   C33   S    
C8    C9    S    
C3    C5    A    
C20   C31   S    
C1    O5    A    
