data_mof_unit_4423.cif
_audit_creation_date              2012-12-10T18:56:23-0500
_audit_creation_method            fapswitch 2.2
_symmetry_space_group_name_H-M    P1
_symmetry_Int_Tables_number       1
_space_group_crystal_system       triclinic
_cell_length_a                    10.731862
_cell_length_b                    9.895707
_cell_length_c                    19.257146
_cell_angle_alpha                 90.000053
_cell_angle_beta                  91.228506
_cell_angle_gamma                 89.99999
_cell_volume                      2044.62653242

loop_
_atom_site_label
_atom_site_type_symbol
_atom_type_description
_atom_site_fract_x
_atom_site_fract_y
_atom_site_fract_z
_atom_type_partial_charge
C1    C     C_R   0.872504 0.501083 0.498616 -0.010024
C2    C     C_R   0.127496 0.501083 0.501384 -0.010024
C3    C     C_R   0.386340 0.508665 0.962991 -0.187067
C4    C     C_R   0.613661 0.508666 0.037009 -0.187067
C5    C     C_R   0.387024 0.508308 0.034938 -0.188852
C6    C     C_R   0.612977 0.508310 0.965062 -0.188852
C7    C     C_R   0.500684 0.507908 0.072016 0.107538
C8    C     C_R   0.499318 0.507908 0.927984 0.107538
C9    C     C_R   0.260042 0.500204 0.500689 0.857024
C10   C     C_R   0.739958 0.500204 0.499311 0.857024
C11   C     C_R   0.500318 0.500030 0.366069 0.854721
C12   C     C_R   0.499682 0.500030 0.633931 0.854722
C13   C     C_R   0.063658 0.378357 0.501939 -0.210846
C14   C     C_R   0.936081 0.624462 0.499669 -0.198669
C15   C     C_R   0.936342 0.378357 0.498062 -0.210845
C16   C     C_R   0.063919 0.624462 0.500330 -0.198668
C17   C     C_R   0.571457 0.407958 0.746240 -0.207732
C18   C     C_R   0.575308 0.595080 0.256939 -0.211516
C19   C     C_R   0.428545 0.407956 0.253760 -0.207731
C20   C     C_R   0.424692 0.595079 0.743061 -0.211516
C21   C     C_R   0.571933 0.410483 0.818168 -0.176810
C22   C     C_R   0.575326 0.597306 0.185010 -0.175336
C23   C     C_R   0.428069 0.410481 0.181832 -0.176810
C24   C     C_R   0.424674 0.597306 0.814990 -0.175336
C25   C     C_R   0.498620 0.505254 0.852627 0.115635
C26   C     C_R   0.501381 0.505253 0.147373 0.115635
C27   C     C_R   0.569358 0.072493 0.548364 0.172290
C28   C     C_R   0.431471 0.927461 0.451193 0.158963
C29   C     C_R   0.430642 0.072492 0.451636 0.172290
C30   C     C_R   0.568529 0.927461 0.548807 0.158964
C31   C     C_R   0.498177 0.500499 0.708765 -0.022204
C32   C     C_R   0.501823 0.500499 0.291235 -0.022205
H1    H     H_    0.111502 0.282506 0.505038 0.162901
H2    H     H_    0.887623 0.720521 0.499754 0.148911
H3    H     H_    0.888498 0.282506 0.494963 0.162902
H4    H     H_    0.112376 0.720521 0.500244 0.148911
H5    H     H_    0.630126 0.336163 0.719999 0.143624
H6    H     H_    0.632824 0.666422 0.285811 0.142330
H7    H     H_    0.369877 0.336160 0.280000 0.143624
H8    H     H_    0.367175 0.666420 0.714189 0.142330
H9    H     H_    0.628839 0.338412 0.846927 0.131043
H10   H     H_    0.631706 0.671452 0.158728 0.131358
H11   H     H_    0.371165 0.338410 0.153073 0.131043
H12   H     H_    0.368294 0.671451 0.841272 0.131358
H13   H     H_    0.298039 0.507556 0.934652 0.131470
H14   H     H_    0.701963 0.507557 0.065348 0.131470
H15   H     H_    0.299238 0.508792 0.061692 0.131039
H16   H     H_    0.700764 0.508794 0.938308 0.131038
N1    N     N_R   0.500000 0.857200 0.500000 -0.135678
N2    N     N_R   0.500000 0.142800 0.500000 -0.135864
O1    O     O_R   0.316770 0.614620 0.500000 -0.620109
O2    O     O_R   0.683230 0.385380 0.500000 -0.602053
O3    O     O_R   0.683230 0.614620 0.500000 -0.620110
O4    O     O_R   0.316770 0.385380 0.500000 -0.602054
O5    O     O_R   0.500030 0.614710 0.398180 -0.590999
O6    O     O_R   0.499970 0.385290 0.601820 -0.607478
O7    O     O_R   0.499970 0.614710 0.601820 -0.590998
O8    O     O_R   0.500030 0.385290 0.398180 -0.607476
Zn1   Zn    Zn3+2 0.500000 0.653120 0.500000 0.968851
Zn2   Zn    Zn3+2 0.500000 0.346880 0.500000 0.975897
N3    N     N_2   0.635387 0.146489 0.600431 -0.241600
H17   H     H_    0.594896 0.145940 0.648405 0.217037
C33   C     C_3   0.770031 0.138366 0.601620 -0.801339
H18   H     H_    0.803214 0.074069 0.645442 0.217428
H19   H     H_    0.808911 0.241067 0.609870 0.250070
H20   H     H_    0.805485 0.096340 0.552290 0.222819
N4    N     N_2   0.358314 0.853374 0.401959 -0.243045
H21   H     H_    0.263426 0.862295 0.407523 0.213323
C34   C     C_3   0.398407 0.857094 0.330627 -0.738097
H22   H     H_    0.356066 0.943641 0.302362 0.206308
H23   H     H_    0.366489 0.763782 0.303753 0.246586
H24   H     H_    0.501636 0.863079 0.328070 0.234752
N5    N     N_2   0.364613 0.146489 0.399568 -0.241600
H25   H     H_    0.405103 0.145936 0.351594 0.217036
C35   C     C_3   0.229969 0.138368 0.398381 -0.801335
H26   H     H_    0.196784 0.074071 0.354559 0.217426
H27   H     H_    0.191091 0.241070 0.390131 0.250070
H28   H     H_    0.194516 0.096343 0.447710 0.222818
N6    N     N_2   0.641685 0.853374 0.598042 -0.243045
H29   H     H_    0.736573 0.862293 0.592477 0.213324
C36   C     C_3   0.601591 0.857096 0.669373 -0.738097
H30   H     H_    0.643930 0.943644 0.697638 0.206309
H31   H     H_    0.633510 0.763785 0.696248 0.246585
H32   H     H_    0.498362 0.863079 0.671930 0.234753

loop_
_geom_bond_atom_site_label_1
_geom_bond_atom_site_label_2
_ccdc_geom_bond_type
C33   H19   S    
O5    Zn1   S    
N5    H25   S    
C9    O1    A    
C10   O2    A    
C36   H30   S    
O3    Zn1   S    
O4    Zn2   S    
C5    H15   S    
C7    C26   S    
C6    H16   S    
C28   C29   A    
C20   H8    S    
O7    Zn1   S    
C29   N5    S    
O8    Zn2   S    
C23   H11   S    
N3    C33   S    
C23   C26   A    
C34   H23   S    
C10   O3    A    
O2    Zn2   S    
C20   C24   A    
C1    C15   A    
C11   O8    A    
C2    C16   A    
C27   N2    A    
C33   H20   S    
C27   C30   A    
C4    H14   S    
C8    C25   S    
N5    C35   S    
N3    H17   S    
C4    C7    A    
C19   C32   A    
C15   H3    S    
C36   H31   S    
C29   N2    A    
N4    H21   S    
C28   N4    S    
C24   C25   A    
C4    C6    A    
C3    C8    A    
N6    C36   S    
C6    C8    A    
C3    H13   S    
C17   C21   A    
O6    Zn2   S    
N4    C34   S    
C27   N3    S    
C34   H24   S    
C19   C23   A    
C35   H26   S    
C13   H1    S    
C35   H27   S    
C28   N1    A    
C17   H5    S    
C2    C13   A    
C12   O6    A    
C19   H7    S    
C21   H9    S    
C12   O7    A    
C30   N1    A    
C11   C32   S    
C13   C15   A    
C12   C31   S    
C24   H12   S    
C14   C16   A    
N6    H29   S    
O1    Zn1   S    
C30   N6    S    
C36   H32   S    
C11   O5    A    
C5    C7    A    
C21   C25   A    
C18   C22   A    
C1    C10   S    
C3    C5    A    
C14   H2    S    
C9    O4    A    
N1    Zn1   S    
N2    Zn2   S    
C18   H6    S    
C16   H4    S    
C22   H10   S    
C17   C31   A    
C34   H22   S    
C35   H28   S    
C33   H18   S    
C18   C32   A    
C22   C26   A    
C1    C14   A    
C2    C9    S    
C20   C31   A    
