data_mof_unit_408.cif
_audit_creation_date              2012-12-10T20:44:01-0500
_audit_creation_method            fapswitch 2.2
_symmetry_space_group_name_H-M    P1
_symmetry_Int_Tables_number       1
_space_group_crystal_system       triclinic
_cell_length_a                    18.030123
_cell_length_b                    11.35718
_cell_length_c                    10.090569
_cell_angle_alpha                 88.356697
_cell_angle_beta                  88.864796
_cell_angle_gamma                 84.424284
_cell_volume                      2055.33648914

loop_
_atom_site_label
_atom_site_type_symbol
_atom_type_description
_atom_site_fract_x
_atom_site_fract_y
_atom_site_fract_z
_atom_type_partial_charge
C1    C     C_R   0.497449 0.261659 0.502239 0.876819
C2    C     C_R   0.116140 0.508789 0.506066 0.077008
C3    C     C_R   0.485977 0.061239 0.616278 0.160414
C4    C     C_R   0.355052 0.501969 0.500987 0.875462
C5    C     C_R   0.492725 0.131484 0.502874 -0.139824
C6    C     C_R   0.498672 0.068080 0.384379 -0.276808
C7    C     C_R   0.492916 0.943776 0.380638 0.067997
C8    C     C_R   0.494181 0.873512 0.500854 -0.150517
C9    C     C_R   0.491025 0.939771 0.617778 0.130528
C10   C     C_3   0.486588 0.938028 0.766234 -0.484885
C11   C     C_3   0.473123 0.071864 0.759503 -0.540334
C12   C     C_R   0.882700 0.504410 0.496473 0.086787
C13   C     C_R   0.473549 0.406287 0.069813 0.227373
C14   C     C_R   0.521721 0.574995 0.040612 -0.264640
C15   C     C_R   0.549976 0.547750 0.915047 -0.121810
C16   C     C_R   0.498490 0.740053 0.499296 0.841001
C17   C     C_R   0.469294 0.409551 0.930473 0.156504
C18   C     C_3   0.407861 0.326575 0.934119 -0.178230
C19   C     C_3   0.409155 0.331560 0.083824 -0.112819
C20   C     C_R   0.644891 0.501019 0.498825 0.876243
C21   C     C_R   0.841214 0.509333 0.616311 0.167418
C22   C     C_R   0.764334 0.503945 0.614824 -0.247418
C23   C     C_1   0.965382 0.505078 0.495941 -0.057485
C24   C     C_R   0.725924 0.501816 0.495332 -0.117816
C25   C     C_R   0.765333 0.502673 0.372593 0.085897
C26   C     C_R   0.843452 0.500539 0.377051 -0.208375
C27   C     C_3   0.492275 0.887526 0.243182 -0.394783
C28   C     C_3   0.571881 0.858055 0.184041 -0.310185
C29   C     C_3   0.589830 0.801099 0.049503 -0.893817
C30   C     C_3   0.723655 0.510844 0.237672 -0.378395
C31   C     C_3   0.768550 0.505970 0.108297 -0.416400
C32   C     C_3   0.719474 0.529586 0.985735 -0.929702
C33   C     C_3   0.269984 0.527576 0.243290 -0.296136
C34   C     C_1   0.033679 0.506537 0.501053 -0.042168
C35   C     C_3   0.324849 0.625725 0.210958 -0.221745
C36   C     C_3   0.357477 0.629567 0.070766 -0.913769
C37   C     C_R   0.156798 0.509110 0.625307 0.125123
C38   C     C_R   0.234119 0.514045 0.622577 0.079220
C39   C     C_R   0.273871 0.510559 0.502033 -0.113783
C40   C     C_R   0.233742 0.522923 0.382305 0.043429
C41   C     C_R   0.156121 0.520056 0.387014 -0.268073
H1    H     H_    0.439950 0.896713 0.811975 0.220508
H2    H     H_    0.875035 0.498129 0.285888 0.140270
H3    H     H_    0.126143 0.525952 0.295600 0.145362
H4    H     H_    0.514721 0.112223 0.295410 0.195885
H5    H     H_    0.933548 0.540555 0.737656 0.161603
H6    H     H_    0.850127 0.535368 0.825568 0.171860
H7    H     H_    0.565424 0.732358 0.068147 0.295032
H8    H     H_    0.649200 0.775474 0.055020 0.226107
H9    H     H_    0.585581 0.813951 0.939010 0.219837
H10   H     H_    0.593893 0.943197 0.174428 0.235818
H11   H     H_    0.604299 0.802903 0.261077 0.216817
H12   H     H_    0.540548 0.913447 0.804037 0.215389
H13   H     H_    0.459639 0.812382 0.236673 0.222649
H14   H     H_    0.459268 0.950162 0.176634 0.176962
H15   H     H_    0.305319 0.309138 0.828225 0.217906
H16   H     H_    0.299361 0.432629 0.938795 0.197451
H17   H     H_    0.449561 0.141329 0.095603 0.177036
H18   H     H_    0.394971 0.194227 0.224398 0.204224
H19   H     H_    0.681792 0.462090 0.985734 0.278084
H20   H     H_    0.688596 0.616542 0.977026 0.259873
H21   H     H_    0.752355 0.513500 0.898132 0.246631
H22   H     H_    0.806049 0.574315 0.106049 0.240650
H23   H     H_    0.414667 0.105651 0.778304 0.202961
H24   H     H_    0.802457 0.419459 0.102371 0.228691
H25   H     H_    0.692439 0.433418 0.232421 0.238045
H26   H     H_    0.683896 0.592107 0.232207 0.230613
H27   H     H_    0.145793 0.528248 0.838047 0.179101
H28   H     H_    0.063363 0.507339 0.750888 0.179442
H29   H     H_    0.237365 0.599631 0.796588 0.185280
H30   H     H_    0.320833 0.542354 0.767836 0.260584
H31   H     H_    0.375758 0.559126 0.019504 0.278450
H32   H     H_    0.314536 0.664906 0.007339 0.216050
H33   H     H_    0.392722 0.702772 0.064573 0.246521
H34   H     H_    0.516104 0.113632 0.808387 0.219382
H35   H     H_    0.289846 0.710601 0.222682 0.153841
H36   H     H_    0.372233 0.649264 0.267278 0.253472
H37   H     H_    0.265080 0.450563 0.199296 0.145155
H38   H     H_    0.228220 0.571608 0.178223 0.150500
H39   H     H_    0.549977 0.562912 0.126954 0.231410
H40   H     H_    0.576806 0.607190 0.849342 0.186490
H41   H     H_    0.428217 0.237710 0.908011 0.168780
H42   H     H_    0.353936 0.373104 0.121467 0.182773
H43   H     H_    0.732814 0.503989 0.705113 0.168514
N1    N     N_R   0.499490 0.499140 0.142800 -0.180193
N2    N     N_R   0.499490 0.499180 0.857150 -0.119002
N3    N     N_3   0.877383 0.495055 0.738526 -0.440412
N4    N     N_3   0.330323 0.361433 0.894186 -0.475230
N5    N     N_3   0.431428 0.215148 0.149326 -0.465479
N6    N     N_3   0.116199 0.545149 0.746938 -0.466445
N7    N     N_3   0.268033 0.543351 0.746294 -0.508773
O1    O     O_R   0.500010 0.316790 0.614690 -0.613958
O2    O     O_R   0.500000 0.316760 0.385350 -0.603652
O3    O     O_R   0.389120 0.500020 0.614710 -0.628589
O4    O     O_R   0.389110 0.499990 0.385370 -0.609922
O5    O     O_R   0.500000 0.683240 0.614650 -0.616425
O6    O     O_R   0.499990 0.683210 0.385310 -0.644685
O7    O     O_R   0.610890 0.500010 0.614630 -0.628837
O8    O     O_R   0.610880 0.499980 0.385290 -0.655619
Zn1   Zn    Zn3+2 0.500010 0.500020 0.653130 0.953887
Zn2   Zn    Zn3+2 0.499990 0.499980 0.346870 0.934017

loop_
_geom_bond_atom_site_label_1
_geom_bond_atom_site_label_2
_ccdc_geom_bond_type
C21   N3    S    
C6    H4    S    
C10   H1    S    
H29   N7    S    
C27   H13   S    
C7    C8    A    
C15   H40   S    
C29   H8    S    
C12   C23   S    
C37   N6    S    
C3    C9    A    
C28   C29   S    
C32   H20   S    
C38   C39   A    
C28   H10   S    
C27   H14   S    
C33   H37   S    
H15   N4    S    
C2    C41   A    
C7    C27   S    
C18   C19   S    
H18   N5    S    
C10   H12   S    
C18   H41   S    
C20   C24   S    
C8    C9    A    
H27   N6    S    
C14   H39   S    
N2    Zn1   S    
C9    C10   S    
C30   H26   S    
C2    C34   S    
C8    C16   S    
C21   C22   A    
C19   H42   S    
C26   H2    S    
C29   H9    S    
C35   H35   S    
C16   O5    A    
C33   C40   S    
C13   C19   S    
C29   H7    S    
C17   N2    A    
C31   H22   S    
C24   C25   A    
C11   H23   S    
C10   C11   S    
O2    Zn2   S    
C39   C40   A    
C33   H38   S    
C25   C26   A    
C38   N7    S    
C35   H36   S    
C18   N4    S    
C12   C26   A    
C35   C36   S    
H6    N3    S    
C37   C38   A    
C19   N5    S    
C4    O4    A    
C31   C32   S    
C4    C39   S    
O3    Zn1   S    
C30   C31   S    
C23   C34   T    
C17   C18   S    
H30   N7    S    
C30   H25   S    
C36   H33   S    
C15   N2    A    
C4    O3    A    
C40   C41   A    
O8    Zn2   S    
C1    O1    A    
O7    Zn1   S    
C41   H3    S    
C1    C5    S    
C32   H19   S    
H28   N6    S    
N1    Zn2   S    
O1    Zn1   S    
H5    N3    S    
C25   C30   S    
C31   H24   S    
C14   N1    A    
C3    C5    A    
C6    C7    A    
H16   N4    S    
C13   C17   A    
C32   H21   S    
C11   H34   S    
C28   H11   S    
C2    C37   A    
C5    C6    A    
C20   O8    A    
O5    Zn1   S    
C33   C35   S    
C22   C24   A    
C16   O6    A    
H17   N5    S    
C3    C11   S    
C36   H32   S    
C12   C21   A    
O4    Zn2   S    
C20   O7    A    
C1    O2    A    
C13   N1    A    
C27   C28   S    
C14   C15   A    
O6    Zn2   S    
C36   H31   S    
C22   H43   S    
