data_mof_unit_2337.cif
_audit_creation_date              2012-12-11T15:36:02-0500
_audit_creation_method            fapswitch 2.2
_symmetry_space_group_name_H-M    P1
_symmetry_Int_Tables_number       1
_space_group_crystal_system       triclinic
_cell_length_a                    7.148994
_cell_length_b                    12.339028
_cell_length_c                    35.601086
_cell_angle_alpha                 90.134003
_cell_angle_beta                  91.681068
_cell_angle_gamma                 90.064598
_cell_volume                      3139.06763154

loop_
_atom_site_label
_atom_site_type_symbol
_atom_type_description
_atom_site_fract_x
_atom_site_fract_y
_atom_site_fract_z
_atom_type_partial_charge
O1    O     O_R   0.379730 0.148600 0.662710 -0.541635
O2    O     O_R   0.620270 0.851400 0.337290 -0.541924
O3    O     O_R   0.120270 0.648600 0.337290 -0.542461
O4    O     O_R   0.879730 0.351400 0.662710 -0.542143
O5    O     O_R   0.722480 0.134490 0.741330 -0.531215
O6    O     O_R   0.277520 0.865510 0.258670 -0.545566
O7    O     O_R   0.777520 0.634490 0.258670 -0.530331
O8    O     O_R   0.222480 0.365510 0.741330 -0.544191
O9    O     O_R   0.892880 0.345890 0.741600 -0.529234
O10   O     O_R   0.107120 0.654110 0.258400 -0.539135
O11   O     O_R   0.607120 0.845890 0.258400 -0.528961
O12   O     O_R   0.392880 0.154110 0.741600 -0.541303
C1    C     C_R   0.553673 0.109426 0.752751 0.733275
C2    C     C_R   0.446347 0.890120 0.246817 0.700136
C3    C     C_R   0.946499 0.608453 0.247353 0.731155
C4    C     C_R   0.053713 0.388506 0.753730 0.698295
O13   O     O_R   0.709490 0.135560 0.662990 -0.543700
O14   O     O_R   0.290510 0.864440 0.337010 -0.541859
O15   O     O_R   0.790510 0.635560 0.337010 -0.543627
O16   O     O_R   0.209490 0.364440 0.662990 -0.541343
C5    C     C_R   0.539048 0.108070 0.651623 0.678631
C6    C     C_R   0.460948 0.891925 0.348379 0.682431
C7    C     C_R   0.960674 0.608364 0.348475 0.677858
C8    C     C_R   0.039332 0.391597 0.651510 0.684707
O17   O     O_3   0.552800 0.316610 0.702160 -0.375822
O18   O     O_3   0.447200 0.683390 0.297840 -0.373745
O19   O     O_3   0.947200 0.816610 0.297840 -0.376404
O20   O     O_3   0.052800 0.183390 0.702160 -0.374652
V1    V     V_3+5 0.827630 0.234380 0.702160 1.443805
V2    V     V_3+5 0.172370 0.765620 0.297840 1.425649
V3    V     V_3+5 0.672370 0.734380 0.297840 1.447938
V4    V     V_3+5 0.327630 0.265620 0.702160 1.425139
C9    C     C_R   0.959401 0.647752 0.919592 0.536585
C10   C     C_R   0.938021 0.309671 0.092326 0.501016
C11   C     C_R   0.498229 0.174265 0.086091 0.540571
C12   C     C_R   0.539775 0.824346 0.909885 0.501704
O21   O     O_2   0.891019 0.548345 0.925524 -0.524695
O22   O     O_2   0.870033 0.408687 0.085327 -0.575988
O23   O     O_2   0.558378 0.073957 0.078450 -0.530392
O24   O     O_2   0.625636 0.919202 0.916402 -0.563876
N1    N     N_R   0.000734 0.681169 0.883709 -0.543667
N2    N     N_R   0.978188 0.278044 0.129020 -0.521728
N3    N     N_R   0.474162 0.206814 0.122830 -0.538033
N4    N     N_R   0.500899 0.790343 0.873397 -0.517945
C13   C     C_R   0.036877 0.790433 0.879462 0.538523
C14   C     C_R   0.957361 0.166886 0.135250 0.609824
C15   C     C_R   0.456498 0.317918 0.128334 0.541885
C16   C     C_R   0.505497 0.678033 0.868589 0.642560
C17   C     C_R   0.930780 0.631791 0.814276 0.318750
C18   C     C_R   0.052806 0.340335 0.198634 0.327147
C19   C     C_R   0.557805 0.144475 0.190807 0.299801
C20   C     C_R   0.438089 0.847534 0.803056 0.318420
C21   C     C_R   0.948025 0.560922 0.783530 -0.225064
C22   C     C_R   0.028050 0.420503 0.226660 -0.332492
C23   C     C_R   0.552836 0.066298 0.219574 -0.218579
C24   C     C_R   0.464766 0.925175 0.774547 -0.353339
C25   C     C_R   0.119649 0.432966 0.821640 0.173755
C26   C     C_R   0.924453 0.548801 0.180176 0.171081
C27   C     C_R   0.358463 0.949619 0.181334 0.188400
C28   C     C_R   0.585972 0.053184 0.819765 0.172507
C29   C     C_R   0.092460 0.498381 0.853954 -0.062929
C30   C     C_R   0.990329 0.477489 0.152232 -0.030309
C31   C     C_R   0.376254 0.021010 0.150338 -0.047775
C32   C     C_R   0.514749 0.986987 0.848388 -0.037707
C33   C     C_R   0.007270 0.604360 0.851072 0.202084
C34   C     C_R   0.007518 0.362992 0.159616 0.223566
C35   C     C_R   0.468423 0.125619 0.154363 0.199794
C36   C     C_R   0.486094 0.872566 0.841877 0.237475
C37   C     C_R   0.980938 0.828715 0.945628 -0.054500
C38   C     C_R   0.934552 0.125979 0.067847 -0.060962
C39   C     C_R   0.479442 0.356717 0.061361 -0.065443
C40   C     C_R   0.510763 0.645435 0.936541 -0.073719
C41   C     C_R   0.977276 0.718146 0.951146 -0.100063
C42   C     C_R   0.942381 0.236610 0.061404 -0.121448
C43   C     C_R   0.469068 0.245725 0.055298 -0.081374
C44   C     C_R   0.513281 0.756694 0.941403 -0.086882
C45   C     C_R   0.992433 0.679712 0.988014 0.212620
C46   C     C_R   0.932011 0.272313 0.023953 0.211970
C47   C     C_R   0.427649 0.208038 0.018779 0.184070
C48   C     C_R   0.495266 0.798598 0.977773 0.164513
C49   C     C_R   0.008388 0.865370 0.908976 0.003450
C50   C     C_R   0.925860 0.091750 0.105206 -0.050317
C51   C     C_R   0.484052 0.393062 0.098591 -0.007238
C52   C     C_R   0.518831 0.605827 0.899668 -0.063857
C53   C     C_R   0.044567 0.463392 0.786504 -0.144424
C54   C     C_R   0.956883 0.523056 0.217908 -0.071738
C55   C     C_R   0.452821 0.970089 0.215516 -0.156668
C56   C     C_R   0.543863 0.026245 0.782467 -0.074576
C57   C     C_R   0.912786 0.937808 0.044295 0.077382
C58   C     C_R   0.948903 0.014506 0.969056 0.052969
C59   C     C_R   0.514097 0.461160 0.962222 0.092399
C60   C     C_R   0.513992 0.542816 0.037184 0.036763
C61   C     C_R   0.921760 0.088603 0.999391 -0.084994
C62   C     C_R   0.936020 0.861984 0.013760 -0.032232
C63   C     C_R   0.510184 0.616648 0.005704 -0.027665
C64   C     C_R   0.481968 0.389695 0.993030 0.023688
C65   C     C_R   0.924067 0.050298 0.037051 0.046731
C66   C     C_R   0.955111 0.901981 0.976359 0.042550
C67   C     C_R   0.513203 0.574283 0.968356 0.010895
C68   C     C_R   0.490753 0.430224 0.030416 -0.027108
C69   C     C_R   0.873810 0.907831 0.081895 -0.032411
C70   C     C_R   0.985355 0.048752 0.931865 -0.184406
C71   C     C_R   0.549598 0.424262 0.925238 0.003474
C72   C     C_R   0.539932 0.575631 0.075310 -0.081479
C73   C     C_R   0.884091 0.982237 0.111652 -0.081602
C74   C     C_R   0.004824 0.976216 0.902387 -0.092713
C75   C     C_R   0.549898 0.494711 0.894611 -0.121978
C76   C     C_R   0.520172 0.503135 0.105215 -0.086971
O25   O     O_2   0.956510 0.125431 0.169923 -0.521015
O26   O     O_2   0.096682 0.828726 0.846705 -0.552724
O27   O     O_2   0.511095 0.632454 0.834498 -0.517998
O28   O     O_2   0.412551 0.357956 0.162036 -0.557588
C77   C     C_R   0.962583 0.748617 0.019061 0.132805
C78   C     C_R   0.900352 0.201395 0.994113 0.202742
C79   C     C_R   0.429247 0.279980 0.987899 0.170523
C80   C     C_R   0.488197 0.730664 0.009305 0.160496
H1    H     H_    0.067509 0.402482 0.255611 0.118686
H2    H     H_    0.884640 0.583098 0.756592 0.131454
H3    H     H_    0.420911 0.906340 0.745850 0.122679
H4    H     H_    0.626547 0.082418 0.246058 0.136614
H5    H     H_    0.860180 0.953131 0.139796 0.155808
H6    H     H_    0.021559 0.007989 0.874334 0.165877
H7    H     H_    0.571427 0.460984 0.866949 0.163548
H8    H     H_    0.536552 0.533255 0.133711 0.174057
H9    H     H_    0.826466 0.828590 0.089577 0.162050
H10   H     H_    0.005752 0.131412 0.924134 0.158809
H11   H     H_    0.578332 0.341102 0.918683 0.182868
H12   H     H_    0.584014 0.655941 0.083243 0.172615
C81   C     C_R   0.971039 0.530957 0.379211 -0.022247
C82   C     C_R   0.029003 0.468979 0.620763 -0.024658
C83   C     C_R   0.526850 0.031063 0.620736 -0.020381
C84   C     C_R   0.473115 0.968934 0.379268 -0.022065
C85   C     C_R   0.930978 0.349780 0.402803 -0.168699
C86   C     C_R   0.069427 0.650112 0.597156 -0.169025
C87   C     C_R   0.531637 0.848018 0.597164 -0.169066
C88   C     C_R   0.467822 0.151969 0.402844 -0.169140
C89   C     C_R   0.936588 0.421159 0.372662 -0.183188
C90   C     C_R   0.063766 0.578752 0.627298 -0.181587
C91   C     C_R   0.536360 0.919868 0.627359 -0.184876
C92   C     C_R   0.463192 0.080122 0.372649 -0.183987
C93   C     C_R   0.999085 0.569905 0.415735 -0.216252
C94   C     C_R   0.000801 0.430028 0.584241 -0.216908
C95   C     C_R   0.512911 0.070962 0.584195 -0.215164
C96   C     C_R   0.487274 0.929041 0.415807 -0.215499
C97   C     C_R   0.988972 0.500022 0.446970 0.080129
C98   C     C_R   0.011100 0.499884 0.553000 0.080679
C99   C     C_R   0.510266 0.000300 0.552976 0.080931
C100  C     C_R   0.489635 0.999695 0.447028 0.081247
C101  C     C_R   0.955193 0.388271 0.439778 0.131583
C102  C     C_R   0.045053 0.611622 0.560186 0.131772
C103  C     C_R   0.519656 0.887172 0.560160 0.130837
C104  C     C_R   0.479992 0.112818 0.439846 0.130870
C105  C     C_R   0.007676 0.537672 0.484901 0.053844
C106  C     C_R   0.992419 0.462226 0.515069 0.053808
C107  C     C_R   0.500216 0.038267 0.515088 0.054552
C108  C     C_R   0.499632 0.961725 0.484917 0.054569
C109  C     C_R   0.960253 0.351660 0.506299 -0.194465
C110  C     C_R   0.039956 0.648228 0.493668 -0.194556
C111  C     C_R   0.508569 0.849889 0.493639 -0.195605
C112  C     C_R   0.491093 0.150100 0.506367 -0.195670
C113  C     C_R   0.942725 0.315848 0.469448 -0.200284
C114  C     C_R   0.057571 0.684036 0.530517 -0.200393
C115  C     C_R   0.518381 0.813840 0.530470 -0.202280
C116  C     C_R   0.481159 0.186146 0.469537 -0.202207
H13   H     H_    0.917229 0.230423 0.464148 0.140327
H14   H     H_    0.083187 0.769451 0.535814 0.140372
H15   H     H_    0.525394 0.727375 0.535738 0.139435
H16   H     H_    0.473940 0.272607 0.464269 0.139423
H17   H     H_    0.977054 0.344188 0.581435 0.097219
H18   H     H_    0.022550 0.655768 0.418546 0.097446
H19   H     H_    0.493396 0.842260 0.418583 0.095768
H20   H     H_    0.507203 0.157751 0.581417 0.095952
H21   H     H_    0.088063 0.608789 0.655647 0.103155
H22   H     H_    0.912484 0.391122 0.344307 0.103082
H23   H     H_    0.451280 0.110987 0.344215 0.102182
H24   H     H_    0.548044 0.889001 0.655796 0.102005
H25   H     H_    0.903950 0.264669 0.397270 0.125374
H26   H     H_    0.096647 0.735207 0.602684 0.125104
H27   H     H_    0.538999 0.761750 0.602702 0.124996
H28   H     H_    0.460197 0.238231 0.397308 0.124832
H29   H     H_    0.946884 0.289641 0.527222 0.129228
H30   H     H_    0.053446 0.710241 0.472747 0.129224
H31   H     H_    0.508525 0.786933 0.472708 0.129367
H32   H     H_    0.490936 0.213051 0.527298 0.129394
N5    N     N_3   0.224735 0.334016 0.825086 -0.574746
H33   H     H_    0.141402 0.269302 0.815544 0.252039
H34   H     H_    0.342101 0.339957 0.808425 0.226076
N6    N     N_3   0.846498 0.652900 0.170438 -0.652396
H35   H     H_    0.813617 0.656419 0.141672 0.250238
H36   H     H_    0.947574 0.711996 0.176343 0.256643
N7    N     N_3   0.241283 0.855136 0.177534 -0.587391
H37   H     H_    0.318719 0.786010 0.184753 0.253821
H38   H     H_    0.128902 0.863326 0.195415 0.231388
N8    N     N_3   0.679750 0.153892 0.828440 -0.643405
H39   H     H_    0.722860 0.155801 0.856771 0.259528
H40   H     H_    0.585584 0.217354 0.823746 0.248932
C117  C     C_2   0.150044 0.449872 0.890237 0.557199
H41   H     H_    0.203378 0.499864 0.912818 0.022343
O29   O     O_2   0.131680 0.353032 0.895869 -0.507074
C118  C     C_2   0.109210 0.529092 0.123677 0.427845
H42   H     H_    0.156931 0.484249 0.099808 0.075322
O30   O     O_2   0.165524 0.622053 0.127678 -0.526319
C119  C     C_2   0.298257 0.979899 0.114241 0.545727
H43   H     H_    0.247234 0.034585 0.093244 0.008985
O31   O     O_2   0.295994 0.883292 0.106894 -0.499854
C120  C     C_2   0.404726 0.045212 0.877042 0.407824
H44   H     H_    0.346984 0.002573 0.900235 0.073398
O32   O     O_2   0.369065 0.141644 0.874148 -0.524133
N9    N     N_3   0.061403 0.572972 0.994474 -0.622729
H45   H     H_    0.142530 0.547414 0.972361 0.247362
H46   H     H_    0.158357 0.574958 0.016734 0.212258
N10   N     N_3   0.970905 0.380950 0.014644 -0.601937
H47   H     H_    0.088498 0.404340 0.030806 0.234624
H48   H     H_    0.855716 0.428946 0.020501 0.308117
N11   N     N_3   0.372529 0.097541 0.013525 -0.604665
H49   H     H_    0.283356 0.076095 0.034723 0.235462
H50   H     H_    0.285825 0.089901 0.989885 0.212191
N12   N     N_3   0.457782 0.910512 0.983109 -0.641584
H51   H     H_    0.356747 0.934546 0.963057 0.232788
H52   H     H_    0.580426 0.955048 0.980352 0.302471
N13   N     N_3   0.149493 0.244217 0.210287 -0.569695
H53   H     H_    0.070900 0.206823 0.230952 0.247132
H54   H     H_    0.275701 0.267238 0.223465 0.220850
N14   N     N_3   0.821013 0.726755 0.806646 -0.621453
H55   H     H_    0.788590 0.767571 0.830973 0.266267
H56   H     H_    0.894749 0.778797 0.789338 0.234797
N15   N     N_3   0.336570 0.752184 0.791981 -0.551582
H57   H     H_    0.413069 0.712169 0.771533 0.243711
H58   H     H_    0.210717 0.775984 0.778872 0.219445
N16   N     N_3   0.668365 0.238000 0.199954 -0.626423
H59   H     H_    0.702589 0.280185 0.176147 0.269971
H60   H     H_    0.595114 0.288313 0.217987 0.238152
N17   N     N_3   0.978404 0.703202 0.055965 -0.671452
H61   H     H_    0.118561 0.686588 0.062309 0.294737
H62   H     H_    0.901357 0.631343 0.056857 0.261157
N18   N     N_3   0.816946 0.247481 0.960760 -0.663968
H63   H     H_    0.916321 0.288547 0.945366 0.289745
H64   H     H_    0.741543 0.190692 0.944734 0.238685
N19   N     N_3   0.360735 0.244071 0.951888 -0.631029
H65   H     H_    0.218381 0.229832 0.953812 0.250372
H66   H     H_    0.428576 0.172605 0.944549 0.257178
N20   N     N_3   0.440258 0.779272 0.044173 -0.633347
H67   H     H_    0.314432 0.820936 0.040047 0.288890
H68   H     H_    0.542379 0.836748 0.051311 0.281291

loop_
_geom_bond_atom_site_label_1
_geom_bond_atom_site_label_2
_ccdc_geom_bond_type
C26   C30   A    
N8    H40   S    
C119  H43   S    
C18   N13   S    
O1    C5    A    
C47   C79   A    
O13   V1    S    
C94   C98   A    
C27   N7    S    
N19   H65   S    
C10   N2    A    
C75   H7    S    
C85   C89   A    
C88   C92   A    
C32   C36   A    
O15   V3    S    
N14   H55   S    
C28   C56   A    
C28   N8    S    
C96   C100  A    
C51   C76   A    
C87   C91   A    
C119  O31   D    
C96   H19   S    
C11   C43   A    
C18   C22   A    
C25   C29   A    
C31   C119  S    
C112  C116  A    
O20   V1    S    
O9    C4    A    
C95   H20   S    
C6    C84   S    
O10   C3    A    
N11   H50   S    
C48   N12   S    
O4    C8    A    
O11   C2    A    
C63   C67   A    
N5    H34   S    
C81   C93   A    
C62   C66   A    
C15   O28   S    
C86   C102  A    
C105  C110  A    
C52   C75   A    
N18   H63   S    
C7    C81   S    
N6    H36   S    
N2    C14   A    
C50   C73   A    
C57   C62   A    
C117  O29   D    
C58   C70   A    
C83   C91   A    
C12   C44   A    
C59   C64   A    
C14   C50   A    
O3    C7    A    
C5    C83   S    
N5    H33   S    
C48   C80   A    
C25   C53   A    
C118  H42   S    
C98   C106  A    
C38   C42   A    
C69   H9    S    
C64   C79   A    
C37   C41   A    
O14   V2    S    
C15   C51   A    
C89   H22   S    
C117  H41   S    
C11   N3    A    
N17   H61   S    
C63   C80   A    
C25   N5    S    
O4    V1    S    
C20   C36   A    
C38   C65   A    
C45   N9    S    
C97   C105  A    
C37   C66   A    
O17   V4    S    
C47   N11   S    
N8    H39   S    
O11   V3    S    
C84   C96   A    
O8    C4    A    
C114  H14   S    
O12   V4    S    
O19   V2    S    
C69   C73   A    
C21   C53   A    
C91   H24   S    
C46   C78   A    
C109  H29   S    
C76   H8    S    
C45   C77   A    
C26   C54   A    
O20   V4    S    
C12   N4    A    
C88   C104  A    
C62   C77   A    
N9    H45   S    
C39   C51   A    
C23   H4    S    
N15   H58   S    
O17   V1    S    
C102  C114  A    
C80   N20   S    
C100  C104  A    
O7    V3    S    
C30   C34   A    
C26   N6    S    
N7    H37   S    
O8    V4    S    
O16   C8    A    
C12   O24   S    
C37   C49   A    
C106  C109  A    
C29   C117  S    
C22   C54   A    
C60   C68   A    
C110  C114  A    
C21   H2    S    
N3    C35   S    
C78   N18   S    
C70   H10   S    
O19   V3    S    
C60   C63   A    
O13   C5    A    
C16   C52   A    
C57   C65   A    
O2    V3    S    
C10   O22   S    
O3    V2    S    
C11   O23   S    
N11   H49   S    
N7    H38   S    
C31   C35   A    
O2    C6    A    
N13   H53   S    
C8    C82   S    
O6    C2    A    
C110  H30   S    
O10   V2    S    
C20   N15   S    
N20   H68   S    
N15   H57   S    
C72   H12   S    
C116  H16   S    
C115  H15   S    
C74   H6    S    
C90   H21   S    
N20   H67   S    
C85   C101  A    
C40   C44   A    
N19   H66   S    
C19   C35   A    
C86   H26   S    
N16   H60   S    
N17   H62   S    
C40   C52   A    
C17   C33   A    
C10   C42   A    
C94   H17   S    
C112  H32   S    
C9    C41   A    
O6    V2    S    
N10   H48   S    
O18   V2    S    
C103  C115  A    
C83   C95   A    
C3    C54   S    
C17   N14   S    
C113  H13   S    
C4    C53   S    
C24   H3    S    
C111  C115  A    
N4    C36   S    
C101  C113  A    
C82   C90   A    
O5    V1    S    
C61   C65   A    
C95   C99   A    
C72   C76   A    
C71   H11   S    
O15   C7    A    
C58   C61   A    
C9    O21   S    
O16   V4    S    
C38   C50   A    
C87   C103  A    
C49   C74   A    
N1    C13   A    
C57   C69   A    
C107  C112  A    
C120  H44   S    
O5    C1    A    
C108  C111  A    
C13   C49   A    
C2    C55   S    
C44   C48   A    
C59   C71   A    
C109  C113  A    
C104  C116  A    
N14   H56   S    
C86   C90   A    
C46   N10   S    
N1    C33   S    
C18   C34   A    
C98   C102  A    
C93   C97   A    
C99   C107  A    
C84   C92   A    
C39   C68   A    
C88   H28   S    
C27   C31   A    
N12   H52   S    
C28   C32   A    
C9    N1    A    
O14   C6    A    
C105  C106  A    
C87   H27   S    
C13   O26   S    
N13   H54   S    
N4    C16   A    
C59   C67   A    
C43   C47   A    
C39   C43   A    
O9    V1    S    
C85   H25   S    
N12   H51   S    
C77   N17   S    
C32   C120  S    
C92   H23   S    
C17   C21   A    
C99   C103  A    
C64   C68   A    
C1    C56   S    
O7    C3    A    
C93   H18   S    
N9    H46   S    
N18   H64   S    
C70   C74   A    
C19   C23   A    
C61   C78   A    
O1    V4    S    
C23   C55   A    
N16   H59   S    
C82   C94   A    
C27   C55   A    
C24   C56   A    
C60   C72   A    
C30   C118  S    
C29   C33   A    
O18   V3    S    
C16   O27   S    
C81   C89   A    
O12   C1    A    
C79   N19   S    
C118  O30   D    
C42   C46   A    
C14   O25   S    
C73   H5    S    
C107  C108  A    
N2    C34   S    
C41   C45   A    
N6    H35   S    
C71   C75   A    
C100  C108  A    
C111  H31   S    
C22   H1    S    
C120  O32   D    
N3    C15   A    
C58   C66   A    
C97   C101  A    
C20   C24   A    
N10   H47   S    
C19   N16   S    
C40   C67   A    
