data_mof_unit_1018.cif
_audit_creation_date              2012-12-11T15:52:22-0500
_audit_creation_method            fapswitch 2.2
_symmetry_space_group_name_H-M    P1
_symmetry_Int_Tables_number       1
_space_group_crystal_system       triclinic
_cell_length_a                    11.020399
_cell_length_b                    11.043178
_cell_length_c                    18.851346
_cell_angle_alpha                 90.043073
_cell_angle_beta                  90.139138
_cell_angle_gamma                 120.084483
_cell_volume                      1985.14225947

loop_
_atom_site_label
_atom_site_type_symbol
_atom_type_description
_atom_site_fract_x
_atom_site_fract_y
_atom_site_fract_z
_atom_type_partial_charge
Br1   Br    Br    0.836416 0.107424 0.058373 -0.427701
Br2   Br    Br    0.912189 0.738703 0.061936 -0.425236
Br3   Br    Br    0.261259 0.175162 0.060888 -0.427961
Br4   Br    Br    0.860597 0.664600 0.892681 -0.414147
Br5   Br    Br    0.810304 0.145345 0.886455 -0.412025
Br6   Br    Br    0.335627 0.196693 0.892019 -0.413599
C1    C     C_R   0.519988 0.451489 0.145150 0.555079
C2    C     C_3   0.956890 0.708828 0.460370 -0.269176
C3    C     C_3   0.751121 0.033753 0.467760 -0.267792
C4    C     C_3   0.284896 0.248262 0.459121 -0.268130
C5    C     C_R   0.517696 0.457877 0.353155 0.540869
C6    C     C_R   0.544645 0.064827 0.354818 0.545574
C7    C     C_R   0.940809 0.482744 0.352941 0.542021
C8    C     C_R   0.454235 0.521498 0.644406 0.549615
C9    C     C_R   0.070144 0.547184 0.643691 0.550405
C10   C     C_R   0.480628 0.938339 0.646366 0.554870
C11   C     C_R   0.510648 0.011685 0.919501 0.012234
C12   C     C_R   0.574026 0.113641 0.139508 0.572069
C13   C     C_R   0.998103 0.502464 0.922079 0.012169
C14   C     C_R   0.500662 0.496261 0.921626 0.012778
C15   C     C_R   0.971771 0.504851 0.070699 -0.017761
C16   C     C_R   0.552443 0.068328 0.065779 -0.017488
C17   C     C_R   0.498269 0.468129 0.070239 -0.021345
C18   C     C_R   0.398960 0.979132 0.965179 0.052249
C19   C     C_R   0.036797 0.426534 0.966759 0.056911
C20   C     C_R   0.579779 0.610905 0.966228 0.052728
C21   C     C_R   0.021400 0.426170 0.039213 0.033700
C22   C     C_R   0.419891 0.010266 0.036404 0.046294
C23   C     C_R   0.931554 0.480296 0.145284 0.556515
C24   C     C_R   0.582430 0.596207 0.038626 0.035560
C25   C     C_R   0.667262 0.095674 0.021157 0.120761
C26   C     C_R   0.932891 0.585326 0.026346 0.133810
C27   C     C_R   0.416961 0.348671 0.025790 0.125929
C28   C     C_R   0.933107 0.572163 0.952205 0.139464
C29   C     C_R   0.648310 0.082192 0.947325 0.143534
C30   C     C_R   0.430755 0.361643 0.951697 0.139071
C31   C     C_3   0.267619 0.843583 0.977369 -0.229694
C32   C     C_3   0.172909 0.429553 0.973512 -0.219739
C33   C     C_3   0.584365 0.747696 0.972679 -0.217275
C34   C     C_R   0.458228 0.519544 0.852305 0.570019
C35   C     C_3   0.157748 0.433813 0.053110 -0.263703
C36   C     C_3   0.292842 0.874904 0.055905 -0.242667
C37   C     C_3   0.584595 0.730318 0.052323 -0.254042
C38   C     C_R   0.501463 0.004069 0.577513 0.018996
C39   C     C_R   0.042525 0.526784 0.568149 0.019310
C40   C     C_R   0.476503 0.511485 0.569338 0.019878
C41   C     C_R   0.015253 0.514427 0.420242 0.019654
C42   C     C_R   0.521120 0.029220 0.429334 0.020761
C43   C     C_R   0.487960 0.499950 0.420993 0.020252
C44   C     C_R   0.631848 0.062789 0.544273 0.023136
C45   C     C_R   0.061911 0.542563 0.852399 0.573739
C46   C     C_R   0.051238 0.638704 0.530081 0.029775
C47   C     C_R   0.362681 0.411403 0.530402 0.036414
C48   C     C_R   0.038916 0.633964 0.457784 0.022980
C49   C     C_R   0.640027 0.072918 0.471764 0.042811
C50   C     C_R   0.366875 0.405463 0.458000 0.028313
C51   C     C_R   0.393051 0.990048 0.462509 -0.175332
C52   C     C_R   0.035342 0.414197 0.455887 -0.154560
C53   C     C_R   0.592173 0.616765 0.457819 -0.171289
C54   C     C_R   0.047378 0.419435 0.530149 -0.153268
C55   C     C_R   0.383489 0.978578 0.536501 -0.166164
C56   C     C_R   0.481877 0.939928 0.851770 0.568514
C57   C     C_R   0.588143 0.620846 0.532160 -0.166471
C58   C     C_3   0.746527 0.027413 0.547813 -0.265713
C59   C     C_3   0.971450 0.713441 0.540049 -0.274822
C60   C     C_3   0.282559 0.256441 0.539028 -0.274454
Cr1   Cr    Cr6+3 0.769160 0.541570 0.250690 1.057059
Cr2   Cr    Cr6+3 0.458430 0.227590 0.250690 1.058398
Cr3   Cr    Cr6+3 0.772410 0.230840 0.250690 1.060039
Cr4   Cr    Cr6+3 0.541570 0.769160 0.749310 1.076636
Cr5   Cr    Cr6+3 0.227590 0.458430 0.749310 1.081646
Cr6   Cr    Cr6+3 0.230840 0.772410 0.749310 1.079782
H1    H     H_    0.275423 0.751426 0.960692 0.093232
H2    H     H_    0.236303 0.534748 0.077630 0.104561
H3    H     H_    0.318935 0.802926 0.084583 0.112413
H4    H     H_    0.487549 0.714863 0.078394 0.107924
H5    H     H_    0.300375 0.964393 0.431448 0.124443
H6    H     H_    0.031507 0.327739 0.427170 0.119403
H7    H     H_    0.681880 0.697706 0.430041 0.117577
H8    H     H_    0.055792 0.338306 0.557692 0.126970
H9    H     H_    0.281639 0.937881 0.560671 0.139895
H10   H     H_    0.674126 0.705361 0.560477 0.121262
H11   H     H_    0.712556 0.921257 0.567810 0.162558
H12   H     H_    0.262256 0.526745 0.952013 0.095911
H13   H     H_    0.036983 0.821109 0.561259 0.139000
H14   H     H_    0.175775 0.217012 0.560755 0.136561
H15   H     H_    0.847109 0.640703 0.443080 0.169636
H16   H     H_    0.851202 0.118340 0.446651 0.139782
H17   H     H_    0.346442 0.200350 0.440550 0.173227
H18   H     H_    0.842905 0.111816 0.573370 0.135959
H19   H     H_    0.870390 0.648530 0.568074 0.146604
H20   H     H_    0.344982 0.216114 0.566008 0.149721
H21   H     H_    0.013356 0.813836 0.435184 0.132089
H22   H     H_    0.713032 0.930193 0.442174 0.137986
H23   H     H_    0.487653 0.743427 0.952681 0.099439
H24   H     H_    0.179448 0.205310 0.434472 0.127532
H25   H     H_    0.142244 0.339578 0.081494 0.233907
H26   H     H_    0.211994 0.890760 0.082101 0.235392
H27   H     H_    0.683273 0.808530 0.078532 0.237314
H28   H     H_    0.174512 0.846576 0.957061 0.239982
H29   H     H_    0.163544 0.330221 0.954260 0.243363
H30   H     H_    0.684341 0.835408 0.952217 0.243202
O1    O     O_R   0.911480 0.572650 0.170990 -0.471406
O2    O     O_R   0.528970 0.640340 0.824320 -0.483602
O3    O     O_R   0.111370 0.471030 0.824320 -0.480756
O4    O     O_R   0.359660 0.888630 0.824320 -0.482003
O5    O     O_R   0.909980 0.572450 0.331530 -0.523287
O6    O     O_R   0.427550 0.337530 0.331530 -0.523634
O7    O     O_R   0.662470 0.090020 0.331530 -0.514656
O8    O     O_R   0.572450 0.909980 0.668470 -0.516102
O9    O     O_R   0.337530 0.427550 0.668470 -0.509972
O10   O     O_R   0.090020 0.662470 0.668470 -0.510392
O11   O     O_R   0.638950 0.528780 0.324500 -0.510494
O12   O     O_R   0.427350 0.338830 0.170990 -0.476217
O13   O     O_R   0.471220 0.110170 0.324500 -0.508352
O14   O     O_R   0.889830 0.361050 0.324500 -0.506900
O15   O     O_R   0.528780 0.638950 0.675500 -0.505195
O16   O     O_R   0.110170 0.471220 0.675500 -0.504158
O17   O     O_R   0.361050 0.889830 0.675500 -0.507038
O18   O     O_3   0.666667 0.333333 0.250560 -0.289644
O19   O     O_3   0.333333 0.666667 0.749440 -0.295168
O20   O     O_R   0.661170 0.088520 0.170990 -0.471848
O21   O     O_R   0.572650 0.911480 0.829010 -0.476967
O22   O     O_R   0.338830 0.427350 0.829010 -0.473386
O23   O     O_R   0.088520 0.661170 0.829010 -0.472285
O24   O     O_R   0.640340 0.528970 0.175680 -0.473929
O25   O     O_R   0.471030 0.111370 0.175680 -0.476992
O26   O     O_R   0.888630 0.359660 0.175680 -0.483224

loop_
_geom_bond_atom_site_label_1
_geom_bond_atom_site_label_2
_ccdc_geom_bond_type
C42   C49   A    
Cr6   O10   S    
C39   C54   A    
Cr6   O19   S    
C3    C58   S    
C44   C58   S    
C58   H18   S    
C6    C42   S    
C10   O8    A    
C42   C51   A    
C8    C40   S    
C36   H3    S    
C1    O12   A    
C37   H27   S    
C32   H29   S    
C36   H26   S    
C3    H16   S    
C12   O25   A    
Cr4   O2    S    
C20   C33   S    
Br3   C27   S    
Cr4   O15   S    
C52   C54   A    
Br1   C25   S    
C27   C30   A    
C23   O1    A    
Br2   C26   S    
C31   C36   S    
C6    O7    A    
Cr4   O8    S    
C35   H2    S    
Cr3   O7    S    
Cr4   O21   S    
C4    H17   S    
C17   C27   A    
Cr5   O9    S    
C19   C32   S    
C3    C49   S    
C4    C50   S    
Cr1   O18   S    
C10   C38   S    
C1    C17   S    
C7    O5    A    
C6    O13   A    
C15   C21   A    
C2    C59   S    
C16   C22   A    
C13   C19   A    
C56   O21   A    
C46   C48   A    
C4    C60   S    
C8    O9    A    
C34   O22   A    
C15   C26   A    
Br4   C28   S    
C11   C18   A    
C16   C25   A    
C57   H10   S    
Cr1   O1    S    
C45   O23   A    
C17   C24   A    
C51   H5    S    
Cr5   O22   S    
Cr3   O26   S    
C32   C35   S    
Cr1   O24   S    
C53   H7    S    
C7    C41   S    
C33   C37   S    
C39   C46   A    
C15   C23   S    
C26   C28   A    
C58   H11   S    
C5    C43   S    
C11   C56   S    
C34   O2    A    
C21   C35   S    
C4    H24   S    
C45   O3    A    
C8    O15   A    
C18   C31   S    
C51   C55   A    
C47   C60   S    
Cr2   O25   S    
C33   H23   S    
C12   O20   A    
C41   C48   A    
Cr6   O4    S    
C20   C24   A    
Cr5   O3    S    
C25   C29   A    
C24   C37   S    
C10   O17   A    
C9    C39   S    
C2    C48   S    
C33   H30   S    
C47   C50   A    
C38   C44   A    
C37   H4    S    
C59   H19   S    
C31   H1    S    
C54   H8    S    
Cr5   O16   S    
C32   H12   S    
C12   C16   S    
C9    O10   A    
Cr5   O19   S    
C2    H21   S    
C18   C22   A    
Cr3   O14   S    
C13   C28   A    
C60   H14   S    
C60   H20   S    
C59   H13   S    
C56   O4    A    
C38   C55   A    
C19   C21   A    
C43   C50   A    
C11   C29   A    
C40   C57   A    
Cr3   O18   S    
C53   C57   A    
C44   C49   A    
C43   C53   A    
C9    O16   A    
Cr6   O23   S    
C2    H15   S    
Cr1   O11   S    
C55   H9    S    
Cr2   O18   S    
C41   C52   A    
Cr4   O19   S    
Cr1   O5    S    
C14   C20   A    
Cr3   O20   S    
C14   C34   S    
Br5   C29   S    
C40   C47   A    
C22   C36   S    
Br6   C30   S    
C35   H25   S    
C1    O24   A    
C5    O11   A    
C7    O14   A    
Cr6   O17   S    
C52   H6    S    
Cr2   O13   S    
C14   C30   A    
C13   C45   S    
C23   O26   A    
C5    O6    A    
Cr2   O6    S    
C3    H22   S    
C31   H28   S    
C46   C59   S    
Cr2   O12   S    
