data_mof_unit_37.cif
_audit_creation_date              2012-10-26T18:44:51-0400
_audit_creation_method            fapswitch 2.2
_symmetry_space_group_name_H-M    P1
_symmetry_Int_Tables_number       1
_space_group_crystal_system       triclinic
_cell_length_a                    15.993517
_cell_length_b                    14.746084
_cell_length_c                    10.640034
_cell_angle_alpha                 90.134189
_cell_angle_beta                  89.981606
_cell_angle_gamma                 90.002137
_cell_volume                      2509.35717378

loop_
_atom_site_label
_atom_site_type_symbol
_atom_type_description
_atom_site_fract_x
_atom_site_fract_y
_atom_site_fract_z
_atom_type_partial_charge
C1    C     C_1   0.251719 0.499995 0.499382 -0.039689
C2    C     C_R   0.574290 0.048559 0.527965 0.008865
C3    C     C_R   0.956372 0.582309 0.499077 -0.109223
C4    C     C_R   0.043627 0.417691 0.500922 -0.109222
C5    C     C_R   0.043632 0.582305 0.498499 -0.109303
C6    C     C_R   0.956368 0.417695 0.501500 -0.109303
C7    C     C_R   0.340811 0.499998 0.499834 0.544362
C8    C     C_R   0.659188 0.500002 0.500166 0.544362
C9    C     C_R   0.487953 0.499891 0.261452 0.546537
C10   C     C_R   0.512047 0.500109 0.738548 0.546537
C11   C     C_R   0.912780 0.500004 0.500584 0.038795
C12   C     C_1   0.748281 0.500004 0.500618 -0.039689
C13   C     C_R   0.087219 0.499996 0.499416 0.038795
C14   C     C_1   0.500048 0.802524 0.500103 0.105803
C15   C     C_1   0.499951 0.197476 0.499897 0.105802
C16   C     C_1   0.823326 0.500005 0.500766 -0.066513
C17   C     C_1   0.176674 0.499995 0.499234 -0.066513
C18   C     C_R   0.441984 0.665043 0.102389 0.037858
C19   C     C_R   0.558013 0.334956 0.897611 0.037860
C20   C     C_R   0.555097 0.666343 0.898800 0.041646
C21   C     C_R   0.444901 0.333657 0.101202 0.041646
C22   C     C_R   0.468254 0.749008 0.051013 0.037469
C23   C     C_R   0.527527 0.500320 0.876200 -0.048475
C24   C     C_R   0.531742 0.250991 0.948985 0.037469
C25   C     C_R   0.527251 0.749859 0.951060 0.040993
C26   C     C_R   0.472746 0.250141 0.048940 0.040992
C27   C     C_R   0.520397 0.583420 0.942665 -0.004068
C28   C     C_R   0.479601 0.416580 0.057336 -0.004068
C29   C     C_R   0.477918 0.582893 0.057826 -0.003779
C30   C     C_R   0.522080 0.417106 0.942174 -0.003779
C31   C     C_3   0.442082 0.160269 0.101030 -0.399826
C32   C     C_3   0.557916 0.839731 0.898973 -0.399827
C33   C     C_3   0.565573 0.163606 0.892206 -0.403267
C34   C     C_R   0.472472 0.499679 0.123800 -0.048475
C35   C     C_3   0.434419 0.836393 0.107789 -0.403269
C36   C     C_3   0.654778 0.098823 0.558513 -0.406472
C37   C     C_3   0.345222 0.901177 0.441487 -0.406472
C38   C     C_3   0.344968 0.098360 0.442355 -0.403640
C39   C     C_3   0.655032 0.901640 0.557643 -0.403640
C40   C     C_3   0.368231 0.663336 0.192520 -0.358695
C41   C     C_3   0.631768 0.336664 0.807482 -0.358696
C42   C     C_3   0.629914 0.665006 0.810790 -0.362109
C43   C     C_3   0.370085 0.334995 0.189214 -0.362109
C44   C     C_R   0.500022 0.902730 0.500193 0.006262
C45   C     C_R   0.499978 0.097270 0.499806 0.006262
C46   C     C_R   0.574323 0.951650 0.528092 0.012173
C47   C     C_R   0.425677 0.048350 0.471907 0.012172
C48   C     C_R   0.425710 0.951441 0.472034 0.008865
Cu1   Cu    Cu3+1 0.500000 0.589220 0.500000 0.949207
Cu2   Cu    Cu3+1 0.500000 0.410780 0.500000 0.949206
H1    H     H_    0.077043 0.646225 0.497381 0.105844
H2    H     H_    0.591528 0.877986 0.973417 0.123877
H3    H     H_    0.634074 0.159268 0.907396 0.120983
H4    H     H_    0.538046 0.100890 0.931046 0.122803
H5    H     H_    0.552439 0.162455 0.789793 0.139429
H6    H     H_    0.365917 0.840726 0.092605 0.120983
H7    H     H_    0.447557 0.837549 0.210201 0.139428
H8    H     H_    0.461940 0.899109 0.068942 0.122803
H9    H     H_    0.649071 0.173580 0.555181 0.132833
H10   H     H_    0.675765 0.081283 0.654843 0.120053
H11   H     H_    0.704145 0.079825 0.490048 0.131183
H12   H     H_    0.922957 0.353775 0.502619 0.105844
H13   H     H_    0.350928 0.826420 0.444820 0.132833
H14   H     H_    0.295855 0.920175 0.509952 0.131183
H15   H     H_    0.324235 0.918716 0.345156 0.120053
H16   H     H_    0.351103 0.173130 0.442489 0.132430
H17   H     H_    0.322206 0.078717 0.347643 0.118646
H18   H     H_    0.296691 0.081120 0.513315 0.130374
H19   H     H_    0.648897 0.826870 0.557507 0.132431
H20   H     H_    0.703310 0.918881 0.486684 0.130374
H21   H     H_    0.677794 0.921281 0.652356 0.118646
H22   H     H_    0.346783 0.593630 0.214370 0.118355
H23   H     H_    0.922965 0.646232 0.498314 0.105952
H24   H     H_    0.384423 0.698239 0.281712 0.160796
H25   H     H_    0.313847 0.697998 0.149245 0.108153
H26   H     H_    0.615578 0.301763 0.718288 0.160795
H27   H     H_    0.653217 0.406370 0.785634 0.118353
H28   H     H_    0.686151 0.302002 0.850759 0.108155
H29   H     H_    0.653826 0.595547 0.793014 0.116325
H30   H     H_    0.613616 0.696261 0.719267 0.162733
H31   H     H_    0.682534 0.703086 0.853920 0.110585
H32   H     H_    0.386384 0.303741 0.280737 0.162735
H33   H     H_    0.346173 0.404454 0.206988 0.116325
H34   H     H_    0.077035 0.353768 0.501685 0.105952
H35   H     H_    0.317465 0.296914 0.146086 0.110585
H36   H     H_    0.399043 0.166600 0.181748 0.122575
H37   H     H_    0.408466 0.122015 0.026589 0.123875
H38   H     H_    0.496055 0.119935 0.135315 0.134080
H39   H     H_    0.600959 0.833401 0.818260 0.122573
H40   H     H_    0.503944 0.880064 0.864681 0.134080
N1    N     N_1   0.500000 0.276710 0.500000 -0.212121
N2    N     N_1   0.500000 0.723290 0.500000 -0.212121
O1    O     O_R   0.380310 0.575320 0.500020 -0.496046
O2    O     O_R   0.619690 0.424680 0.499980 -0.496046
O3    O     O_R   0.619690 0.575320 0.499980 -0.496171
O4    O     O_R   0.380310 0.424680 0.500020 -0.496172
O5    O     O_R   0.499990 0.575350 0.319650 -0.484264
O6    O     O_R   0.500010 0.424650 0.680350 -0.484263
O7    O     O_R   0.500010 0.575350 0.680350 -0.484314
O8    O     O_R   0.499990 0.424650 0.319650 -0.484315

loop_
_geom_bond_atom_site_label_1
_geom_bond_atom_site_label_2
_ccdc_geom_bond_type
C33   H5    S    
C21   C26   A    
C42   H30   S    
C27   C29   A    
C43   H33   S    
C36   H9    S    
C2    C46   A    
C22   C35   S    
C42   H31   S    
C35   H8    S    
C24   C26   A    
C41   H27   S    
C20   C25   A    
C4    C13   A    
C10   O6    A    
C18   C40   S    
C32   H2    S    
C21   C43   S    
C32   H40   S    
C32   H39   S    
C22   C25   A    
C37   H15   S    
C23   C27   A    
C5    C13   A    
C25   C32   S    
C28   C34   A    
C42   H29   S    
C31   H36   S    
C1    C7    S    
C8    O3    A    
C12   C16   T    
C37   H13   S    
C44   C46   A    
C45   C47   A    
C2    C45   A    
C33   H3    S    
C7    O1    A    
Cu2   O6    S    
C31   H37   S    
C43   H35   S    
C23   C30   A    
C38   H16   S    
C8    O2    A    
C4    C6    A    
C6    C11   A    
Cu2   O2    S    
C36   H10   S    
Cu1   O5    S    
C29   C34   A    
C7    O4    A    
Cu1   O7    S    
C11   C16   S    
C47   C48   A    
C4    H34   S    
C8    C12   S    
C39   H19   S    
C18   C29   A    
Cu1   O3    S    
C37   C48   S    
C14   N2    T    
C38   C47   S    
C39   C46   S    
C21   C28   A    
C38   H18   S    
C9    O8    A    
C9    C34   S    
C15   C45   S    
Cu1   N2    S    
C36   H11   S    
C41   H28   S    
C37   H14   S    
C14   C44   S    
C2    C36   S    
C33   H4    S    
C9    O5    A    
C31   H38   S    
C40   H22   S    
C35   H6    S    
C18   C22   A    
C1    C17   T    
C3    C5    A    
C20   C42   S    
C20   C27   A    
C10   C23   S    
Cu2   O8    S    
C24   C33   S    
C40   H25   S    
C13   C17   S    
C35   H7    S    
C6    H12   S    
C28   C30   A    
C19   C24   A    
C41   H26   S    
Cu2   O4    S    
C39   H20   S    
C40   H24   S    
C10   O7    A    
C3    H23   S    
C3    C11   A    
C15   N1    T    
C44   C48   A    
Cu2   N1    S    
C26   C31   S    
C38   H17   S    
Cu1   Cu2   S    
C43   H32   S    
C39   H21   S    
C5    H1    S    
Cu1   O1    S    
C19   C30   A    
C19   C41   S    
