data_mof_unit_1634.cif
_audit_creation_date              2012-12-10T17:02:28-0500
_audit_creation_method            fapswitch 2.2
_symmetry_space_group_name_H-M    P1
_symmetry_Int_Tables_number       1
_space_group_crystal_system       triclinic
_cell_length_a                    10.772509
_cell_length_b                    11.028598
_cell_length_c                    9.878538
_cell_angle_alpha                 111.084963
_cell_angle_beta                  98.095709
_cell_angle_gamma                 91.367022
_cell_volume                      1080.60323105

loop_
_atom_site_label
_atom_site_type_symbol
_atom_type_description
_atom_site_fract_x
_atom_site_fract_y
_atom_site_fract_z
_atom_type_partial_charge
C1    C     C_R   0.490571 0.254237 0.440720 0.835919
C2    C     C_R   0.509428 0.745763 0.559280 0.835931
C3    C     C_2   0.485149 0.114736 0.407481 -0.370725
C4    C     C_2   0.514849 0.885264 0.592519 -0.370757
C5    C     C_2   0.502877 0.069606 0.516363 -0.160695
C6    C     C_2   0.497123 0.930394 0.483637 -0.160653
C7    C     C_2   0.511603 0.510618 0.081616 0.196087
C8    C     C_2   0.488397 0.489381 0.918383 0.196091
C9    C     C_R   0.263236 0.500294 0.501297 0.790770
C10   C     C_R   0.736763 0.499700 0.498702 0.790781
C11   C     C_R   0.141545 0.736996 0.552045 -0.142140
C12   C     C_R   0.858480 0.263040 0.448155 -0.142154
C13   C     C_R   0.082400 0.852046 0.574067 -0.143636
C14   C     C_R   0.917646 0.148025 0.426277 -0.143626
C15   C     C_R   0.952824 0.851208 0.569633 -0.146602
C16   C     C_R   0.047215 0.148866 0.430674 -0.146605
C17   C     C_R   0.881933 0.735353 0.543413 -0.144546
C18   C     C_R   0.118085 0.264688 0.456738 -0.144582
C19   C     C_R   0.940209 0.617390 0.521508 0.067913
C20   C     C_R   0.059798 0.382622 0.478547 0.067915
C21   C     C_R   0.071445 0.618171 0.525607 0.066845
C22   C     C_R   0.928564 0.381839 0.474462 0.066858
C23   C     C_R   0.870300 0.499285 0.496293 -0.177676
C24   C     C_R   0.129701 0.500713 0.503713 -0.177671
Cu1   Cu    Cu3+1 0.521920 0.521810 0.644910 0.958886
Cu2   Cu    Cu3+1 0.478080 0.478190 0.355090 0.958898
H1    H     H_    0.093024 0.059437 0.413395 0.137474
H2    H     H_    0.907030 0.940665 0.587023 0.137435
H3    H     H_    0.242458 0.742359 0.556706 0.123686
H4    H     H_    0.757568 0.257673 0.443529 0.123688
H5    H     H_    0.137448 0.942161 0.594994 0.135361
H6    H     H_    0.862620 0.057932 0.405500 0.135377
H7    H     H_    0.781427 0.739347 0.540706 0.129386
H8    H     H_    0.218590 0.260702 0.459438 0.129403
H9    H     H_    0.478082 0.864471 0.369304 0.185292
H10   H     H_    0.521919 0.135529 0.630696 0.185290
H11   H     H_    0.533467 0.951534 0.706687 0.153164
H12   H     H_    0.466529 0.048466 0.293313 0.153171
H13   H     H_    0.625394 0.622331 0.931107 0.166404
H14   H     H_    0.374603 0.377671 0.068894 0.166400
N1    N     N_2   0.445130 0.445420 0.137360 -0.276474
N2    N     N_2   0.554870 0.554580 0.862640 -0.276473
O1    O     O_R   0.511700 0.332340 0.577400 -0.550628
O2    O     O_R   0.488300 0.667660 0.422600 -0.550614
O3    O     O_R   0.474680 0.295500 0.332650 -0.580653
O4    O     O_R   0.525320 0.704500 0.667350 -0.580662
O5    O     O_R   0.338170 0.518410 0.622370 -0.546930
O6    O     O_R   0.661830 0.481590 0.377630 -0.546919
O7    O     O_R   0.301150 0.481570 0.377630 -0.574848
O8    O     O_R   0.698850 0.518430 0.622370 -0.574855
N3    N     N_3   0.390557 0.395058 0.821793 -0.505837
H15   H     H_    0.408871 0.304014 0.826836 0.178426
H16   H     H_    0.305029 0.421130 0.858200 0.195754
N4    N     N_3   0.609446 0.604939 0.178206 -0.505827
H17   H     H_    0.591131 0.695984 0.173169 0.178434
H18   H     H_    0.694973 0.578866 0.141794 0.195749

loop_
_geom_bond_atom_site_label_1
_geom_bond_atom_site_label_2
_ccdc_geom_bond_type
Cu1   N2    S    
C19   C23   A    
C3    H12   S    
C9    C24   S    
C10   C23   S    
C11   C13   A    
Cu1   O5    S    
C2    C4    S    
Cu2   O3    S    
Cu2   O6    S    
C3    C5    D    
Cu1   O1    S    
C16   H1    S    
C7    N1    D    
Cu2   O2    S    
C7    C8    S    
C2    O4    A    
C4    H11   S    
C18   H8    S    
C8    N3    S    
C1    O3    A    
C15   H2    S    
C17   H7    S    
C16   C18   A    
H14   N1    S    
C19   C21   A    
C8    N2    D    
C9    O5    A    
H13   N2    S    
C18   C20   A    
C13   C15   A    
C10   O6    A    
C5    C6    S    
C14   C16   A    
Cu2   O7    S    
C20   C22   A    
C11   C21   A    
N3    H15   S    
C10   O8    A    
C5    H10   S    
C12   C22   A    
C9    O7    A    
C6    H9    S    
C11   H3    S    
C4    C6    D    
C21   C24   A    
C14   H6    S    
C1    C3    S    
C15   C17   A    
C13   H5    S    
N4    H17   S    
C17   C19   A    
C7    N4    S    
C12   H4    S    
Cu1   Cu2   S    
Cu1   O8    S    
Cu1   O4    S    
C1    O1    A    
C22   C23   A    
C2    O2    A    
C20   C24   A    
Cu2   N1    S    
C12   C14   A    
N4    H18   S    
N3    H16   S    
