data_mof_unit_1330.cif
_audit_creation_date              2012-12-11T15:44:48-0500
_audit_creation_method            fapswitch 2.2
_symmetry_space_group_name_H-M    P1
_symmetry_Int_Tables_number       1
_space_group_crystal_system       triclinic
_cell_length_a                    19.014631
_cell_length_b                    11.014342
_cell_length_c                    18.679857
_cell_angle_alpha                 89.906513
_cell_angle_beta                  90.312231
_cell_angle_gamma                 90.243078
_cell_volume                      3912.09225374

loop_
_atom_site_label
_atom_site_type_symbol
_atom_type_description
_atom_site_fract_x
_atom_site_fract_y
_atom_site_fract_z
_atom_type_partial_charge
C1    C     C_R   0.761040 0.530460 0.645865 0.536805
C2    C     C_R   0.240126 0.536650 0.353063 0.563083
C3    C     C_R   0.261040 0.030460 0.645865 0.536805
C4    C     C_R   0.740126 0.036650 0.353063 0.563083
C5    C     C_R   0.839982 0.136524 0.516427 -0.127060
C6    C     C_R   0.265594 0.033083 0.448225 -0.114090
C7    C     C_R   0.339982 0.636524 0.516427 -0.127060
C8    C     C_R   0.765593 0.533083 0.448225 -0.114090
C9    C     C_R   0.827976 0.111214 0.443278 -0.131575
C10   C     C_R   0.279919 0.001449 0.518821 -0.131594
C11   C     C_R   0.327976 0.611214 0.443278 -0.131575
C12   C     C_R   0.779919 0.501449 0.518821 -0.131594
C13   C     C_3   0.631728 0.179799 0.463688 -0.263859
C14   C     C_3   0.196146 0.275525 0.593910 -0.230056
C15   C     C_3   0.131728 0.679798 0.463688 -0.263859
C16   C     C_3   0.696146 0.775524 0.593910 -0.230056
C17   C     C_3   0.646700 0.229696 0.539014 -0.054718
C18   C     C_3   0.210149 0.325785 0.519603 -0.039871
C19   C     C_3   0.146700 0.729695 0.539014 -0.054718
C20   C     C_3   0.710149 0.825785 0.519603 -0.039872
C21   C     C_R   0.784459 0.173581 0.560580 0.018378
C22   C     C_R   0.226400 0.137689 0.434102 0.072239
C23   C     C_R   0.284459 0.673581 0.560580 0.018377
C24   C     C_R   0.726400 0.637689 0.434102 0.072239
C25   C     C_R   0.988401 0.325900 0.418873 -0.036859
C26   C     C_R   0.990501 0.347919 0.568747 -0.024675
C27   C     C_R   0.488401 0.825900 0.418873 -0.036859
C28   C     C_R   0.490501 0.847919 0.568747 -0.024675
C29   C     C_R   0.009423 0.104780 0.432152 -0.089435
C30   C     C_R   0.030709 0.135043 0.578226 -0.089770
C31   C     C_R   0.509423 0.604780 0.432152 -0.089435
C32   C     C_R   0.530708 0.635042 0.578226 -0.089770
C33   C     C_R   0.025121 0.004943 0.475107 -0.138129
C34   C     C_R   0.036621 0.020521 0.547923 -0.111535
C35   C     C_R   0.525121 0.504943 0.475107 -0.138129
C36   C     C_R   0.536621 0.520521 0.547923 -0.111534
C37   C     C_R   0.008767 0.235985 0.536818 -0.018783
C38   C     C_R   0.002881 0.222519 0.461841 0.001468
C39   C     C_R   0.508767 0.735985 0.536818 -0.018783
C40   C     C_R   0.502881 0.722519 0.461841 0.001468
C41   C     C_R   0.972317 0.450061 0.523664 0.014958
C42   C     C_R   0.961999 0.430659 0.450086 -0.005988
C43   C     C_R   0.472317 0.950061 0.523664 0.014958
C44   C     C_R   0.461999 0.930659 0.450086 -0.005988
C45   C     C_R   0.792574 0.175541 0.639224 0.576754
C46   C     C_R   0.209214 0.169847 0.361589 0.576463
C47   C     C_R   0.292574 0.675541 0.639224 0.576754
C48   C     C_R   0.709214 0.669847 0.361589 0.576463
C49   C     C_R   0.965086 0.572425 0.547594 -0.062749
C50   C     C_R   0.932828 0.522416 0.406404 -0.090381
C51   C     C_R   0.465086 0.072425 0.547594 -0.062749
C52   C     C_R   0.432828 0.022416 0.406404 -0.090381
C53   C     C_R   0.944621 0.665532 0.501590 -0.125717
C54   C     C_R   0.927211 0.639860 0.431139 -0.104010
C55   C     C_R   0.444622 0.165532 0.501590 -0.125717
C56   C     C_R   0.427211 0.139860 0.431139 -0.104010
C57   C     C_R   0.733726 0.019018 0.065231 0.019314
C58   C     C_R   0.268992 0.006131 0.936646 0.012863
C59   C     C_R   0.233726 0.519018 0.065231 0.019314
C60   C     C_R   0.768992 0.506131 0.936646 0.012863
C61   C     C_R   0.774350 0.945509 0.021224 0.018287
C62   C     C_R   0.211270 0.961154 0.974195 0.014764
C63   C     C_R   0.274350 0.445509 0.021224 0.018287
C64   C     C_R   0.711270 0.461154 0.974195 0.014764
C65   C     C_R   0.781119 0.970913 0.949083 0.029923
C66   C     C_R   0.202286 0.988459 0.045461 0.031130
C67   C     C_R   0.281119 0.470913 0.949083 0.029923
C68   C     C_R   0.702286 0.488459 0.045461 0.031130
C69   C     C_R   0.701580 0.139587 0.961696 -0.175083
C70   C     C_R   0.314791 0.088223 0.049166 -0.159533
C71   C     C_R   0.201580 0.639587 0.961696 -0.175083
C72   C     C_R   0.814791 0.588223 0.049166 -0.159533
C73   C     C_R   0.696252 0.115642 0.034683 -0.169717
C74   C     C_R   0.322921 0.064179 0.975707 -0.153709
C75   C     C_R   0.196252 0.615642 0.034683 -0.169717
C76   C     C_R   0.822921 0.564179 0.975707 -0.153709
C77   C     C_3   0.850758 0.916571 0.028875 -0.269226
C78   C     C_3   0.134540 0.975356 0.957870 -0.269845
C79   C     C_3   0.350758 0.416571 0.028875 -0.269226
C80   C     C_3   0.634540 0.475356 0.957870 -0.269845
C81   C     C_3   0.857481 0.938411 0.949571 -0.264266
C82   C     C_3   0.124706 0.004140 0.036035 -0.269904
C83   C     C_3   0.357481 0.438411 0.949571 -0.264266
C84   C     C_3   0.624706 0.504140 0.036035 -0.269904
C85   C     C_R   0.747691 0.072234 0.919063 0.018719
C86   C     C_R   0.250745 0.061822 0.082480 0.019467
C87   C     C_R   0.247690 0.572234 0.919063 0.018719
C88   C     C_R   0.750745 0.561822 0.082480 0.019467
C89   C     C_R   0.968595 0.348371 0.644768 0.507886
C90   C     C_R   0.026665 0.343475 0.351262 0.528350
C91   C     C_R   0.468595 0.848371 0.644768 0.507885
C92   C     C_R   0.526665 0.843475 0.351262 0.528350
C93   C     C_R   0.992134 0.340352 0.079330 0.022637
C94   C     C_R   0.986154 0.340224 0.929817 0.019221
C95   C     C_R   0.492134 0.840352 0.079330 0.022637
C96   C     C_R   0.486154 0.840224 0.929817 0.019221
C97   C     C_R   0.978982 0.447880 0.041529 0.027176
C98   C     C_R   0.978548 0.446731 0.968520 0.029063
C99   C     C_R   0.478982 0.947880 0.041529 0.027176
C100  C     C_R   0.478548 0.946731 0.968520 0.029063
C101  C     C_R   0.985746 0.229409 0.967385 -0.166816
C102  C     C_R   0.987521 0.229392 0.042353 -0.168695
C103  C     C_R   0.485746 0.729409 0.967385 -0.166816
C104  C     C_R   0.487521 0.729392 0.042353 -0.168695
C105  C     C_3   0.014833 0.569903 0.041749 -0.271565
C106  C     C_3   0.015806 0.564998 0.960986 -0.279106
C107  C     C_3   0.514833 0.069903 0.041749 -0.271565
C108  C     C_3   0.515806 0.064997 0.960986 -0.279106
C109  C     C_R   0.773926 0.482999 0.859796 0.559380
C110  C     C_R   0.227010 0.487012 0.140146 0.563191
C111  C     C_R   0.273926 0.982999 0.859796 0.559380
C112  C     C_R   0.727011 0.987012 0.140146 0.563192
C113  C     C_R   0.771816 0.124277 0.852137 0.553011
C114  C     C_R   0.228243 0.122707 0.148042 0.544933
C115  C     C_R   0.271816 0.624277 0.852137 0.553011
C116  C     C_R   0.728243 0.622707 0.148042 0.544933
C117  C     C_R   0.968642 0.346755 0.854685 0.539964
C118  C     C_R   0.028420 0.346914 0.147442 0.538674
C119  C     C_R   0.468642 0.846755 0.854685 0.539964
C120  C     C_R   0.528420 0.846914 0.147442 0.538674
C121  C     C_R   0.758967 0.112616 0.415154 0.020690
C122  C     C_R   0.249610 0.068249 0.574387 0.042493
C123  C     C_R   0.258967 0.612616 0.415154 0.020690
C124  C     C_R   0.749610 0.568249 0.574387 0.042493
C125  C     C_R   0.709521 0.174995 0.455500 -0.020205
C126  C     C_R   0.198672 0.154731 0.559719 -0.033688
C127  C     C_R   0.209521 0.674995 0.455500 -0.020206
C128  C     C_R   0.698672 0.654730 0.559719 -0.033689
C129  C     C_R   0.723090 0.210625 0.524702 0.001969
C130  C     C_R   0.195043 0.200085 0.490591 -0.026979
C131  C     C_R   0.223090 0.710625 0.524702 0.001969
C132  C     C_R   0.695043 0.700085 0.490591 -0.026979
Cr1   Cr    Cr6+3 0.885860 0.491680 0.749630 1.023569
Cr2   Cr    Cr6+3 0.114140 0.491680 0.250370 0.997074
Cr3   Cr    Cr6+3 0.385860 0.991680 0.749630 1.023569
Cr4   Cr    Cr6+3 0.614140 0.991680 0.250370 0.997074
Cr5   Cr    Cr6+3 0.730490 0.332970 0.748720 1.050708
Cr6   Cr    Cr6+3 0.269510 0.332970 0.251280 1.012028
Cr7   Cr    Cr6+3 0.230490 0.832970 0.748720 1.050708
Cr8   Cr    Cr6+3 0.769510 0.832970 0.251280 1.012028
Cr9   Cr    Cr6+3 0.887570 0.179310 0.750150 1.015186
Cr10  Cr    Cr6+3 0.112430 0.179310 0.249850 0.990764
Cr11  Cr    Cr6+3 0.387570 0.679310 0.750150 1.015186
Cr12  Cr    Cr6+3 0.612430 0.679310 0.249850 0.990764
H1    H     H_    0.890013 0.113896 0.539921 0.170391
H2    H     H_    0.286742 0.979181 0.405018 0.124704
H3    H     H_    0.390013 0.613896 0.539921 0.170391
H4    H     H_    0.786742 0.479181 0.405018 0.124704
H5    H     H_    0.942968 0.757850 0.521102 0.143475
H6    H     H_    0.911803 0.710396 0.394198 0.147994
H7    H     H_    0.442968 0.257850 0.521102 0.143475
H8    H     H_    0.411804 0.210396 0.394198 0.147994
H9    H     H_    0.674708 0.217637 0.940175 0.137044
H10   H     H_    0.355816 0.134685 0.078480 0.115209
H11   H     H_    0.174708 0.717637 0.940175 0.137044
H12   H     H_    0.855816 0.634684 0.078480 0.115209
H13   H     H_    0.665815 0.176668 0.067528 0.132978
H14   H     H_    0.368879 0.097462 0.948595 0.135945
H15   H     H_    0.165815 0.676668 0.067528 0.132978
H16   H     H_    0.868879 0.597462 0.948595 0.135945
H17   H     H_    0.860695 0.821745 0.044103 0.131542
H18   H     H_    0.108407 0.889381 0.941589 0.129660
H19   H     H_    0.360695 0.321745 0.044103 0.131542
H20   H     H_    0.608407 0.389381 0.941589 0.129660
H21   H     H_    0.879905 0.984658 0.061630 0.149012
H22   H     H_    0.123285 0.054185 0.922355 0.157945
H23   H     H_    0.379905 0.484658 0.061630 0.149012
H24   H     H_    0.623285 0.554185 0.922355 0.157945
H25   H     H_    0.892928 0.015586 0.937457 0.157031
H26   H     H_    0.108509 0.099440 0.044948 0.159778
H27   H     H_    0.392928 0.515586 0.937457 0.157031
H28   H     H_    0.608509 0.599440 0.044948 0.159778
H29   H     H_    0.867938 0.854196 0.918717 0.140381
H30   H     H_    0.093891 0.934034 0.065276 0.132988
H31   H     H_    0.367939 0.354196 0.918717 0.140381
H32   H     H_    0.593891 0.434034 0.065276 0.132988
H33   H     H_    0.986545 0.143962 0.939046 0.122127
H34   H     H_    0.992252 0.143842 0.070532 0.121477
H35   H     H_    0.486545 0.643962 0.939046 0.122127
H36   H     H_    0.492252 0.643842 0.070532 0.121477
H37   H     H_    0.067858 0.567182 0.065291 0.172447
H38   H     H_    0.983766 0.636925 0.935174 0.136393
H39   H     H_    0.567858 0.067183 0.065291 0.172447
H40   H     H_    0.483766 0.136925 0.935174 0.136393
H41   H     H_    0.980754 0.643035 0.062951 0.119785
H42   H     H_    0.069128 0.553656 0.938174 0.150363
H43   H     H_    0.480754 0.143035 0.062951 0.119785
H44   H     H_    0.569128 0.053656 0.938174 0.150363
H45   H     H_    0.870277 0.074376 0.411886 0.128523
H46   H     H_    0.314292 0.925621 0.530162 0.108334
H47   H     H_    0.370277 0.574376 0.411886 0.128523
H48   H     H_    0.814292 0.425621 0.530162 0.108334
H49   H     H_    0.107286 0.587907 0.462689 0.174166
H50   H     H_    0.737393 0.789091 0.635582 0.184743
H51   H     H_    0.607286 0.087908 0.462688 0.174166
H52   H     H_    0.237394 0.289091 0.635583 0.184743
H53   H     H_    0.607355 0.247236 0.427056 0.120020
H54   H     H_    0.142510 0.295113 0.613663 0.131841
H55   H     H_    0.107355 0.747235 0.427056 0.120020
H56   H     H_    0.642509 0.795113 0.613663 0.131841
H57   H     H_    0.635982 0.328211 0.543049 0.109644
H58   H     H_    0.172321 0.395290 0.500515 0.134061
H59   H     H_    0.135981 0.828209 0.543050 0.109644
H60   H     H_    0.672320 0.895289 0.500515 0.134061
H61   H     H_    0.027839 0.915271 0.451827 0.096437
H62   H     H_    0.048622 0.943740 0.581788 0.145253
H63   H     H_    0.527838 0.415270 0.451827 0.096437
H64   H     H_    0.548622 0.443740 0.581788 0.145254
H65   H     H_    0.997560 0.086786 0.376523 0.132871
H66   H     H_    0.043575 0.143100 0.634442 0.138284
H67   H     H_    0.497560 0.586786 0.376523 0.132871
H68   H     H_    0.543575 0.643100 0.634442 0.138284
H69   H     H_    0.918955 0.504792 0.351005 0.125692
H70   H     H_    0.979706 0.603625 0.599791 0.201134
H71   H     H_    0.418955 0.004792 0.351005 0.125692
H72   H     H_    0.479707 0.103625 0.599791 0.201134
O1    O     O_R   0.957020 0.451640 0.669920 -0.524045
O2    O     O_R   0.042980 0.451640 0.330080 -0.515331
O3    O     O_R   0.457020 0.951640 0.669920 -0.524045
O4    O     O_R   0.542980 0.951640 0.330080 -0.515331
O5    O     O_R   0.736470 0.210100 0.823360 -0.511220
O6    O     O_R   0.263530 0.210100 0.176640 -0.517274
O7    O     O_R   0.236470 0.710100 0.823360 -0.511220
O8    O     O_R   0.763530 0.710100 0.176640 -0.517274
O9    O     O_R   0.831960 0.093290 0.830130 -0.517827
O10   O     O_R   0.168040 0.093290 0.169870 -0.517203
O11   O     O_R   0.331960 0.593290 0.830130 -0.517827
O12   O     O_R   0.668040 0.593290 0.169870 -0.517203
O13   O     O_R   0.945600 0.250580 0.824860 -0.509545
O14   O     O_R   0.054400 0.250580 0.175140 -0.511328
O15   O     O_R   0.445600 0.750580 0.824860 -0.509545
O16   O     O_R   0.554400 0.750580 0.175140 -0.511328
O17   O     O_3   0.834640 0.334650 0.749500 -0.306286
O18   O     O_3   0.165360 0.334650 0.250500 -0.280475
O19   O     O_3   0.334640 0.834650 0.749500 -0.306286
O20   O     O_3   0.665360 0.834650 0.250500 -0.280475
O21   O     O_R   0.821450 0.543440 0.674610 -0.493050
O22   O     O_R   0.178550 0.543440 0.325390 -0.499471
O23   O     O_R   0.321450 0.043440 0.674610 -0.493049
O24   O     O_R   0.678550 0.043440 0.325390 -0.499471
O25   O     O_R   0.715320 0.458650 0.668100 -0.519022
O26   O     O_R   0.284680 0.458650 0.331900 -0.485878
O27   O     O_R   0.215320 0.958650 0.668100 -0.519022
O28   O     O_R   0.784680 0.958650 0.331900 -0.485879
O29   O     O_R   0.737170 0.209590 0.674530 -0.462444
O30   O     O_R   0.262830 0.209590 0.325470 -0.476021
O31   O     O_R   0.237170 0.709590 0.674530 -0.462444
O32   O     O_R   0.762830 0.709590 0.325470 -0.476021
O33   O     O_R   0.832710 0.092740 0.669580 -0.461165
O34   O     O_R   0.167290 0.092740 0.330420 -0.524546
O35   O     O_R   0.332710 0.592740 0.669580 -0.461165
O36   O     O_R   0.667290 0.592740 0.330420 -0.524546
O37   O     O_R   0.946290 0.250060 0.676040 -0.526024
O38   O     O_R   0.053710 0.250060 0.323960 -0.523670
O39   O     O_R   0.446290 0.750060 0.676040 -0.526024
O40   O     O_R   0.553710 0.750060 0.323960 -0.523670
O41   O     O_R   0.956270 0.452200 0.830470 -0.516845
O42   O     O_R   0.043730 0.452200 0.169530 -0.532803
O43   O     O_R   0.456270 0.952200 0.830470 -0.516845
O44   O     O_R   0.543730 0.952200 0.169530 -0.532803
O45   O     O_R   0.820760 0.543950 0.823440 -0.502227
O46   O     O_R   0.179240 0.543950 0.176560 -0.511235
O47   O     O_R   0.320760 0.043950 0.823440 -0.502227
O48   O     O_R   0.679240 0.043950 0.176560 -0.511235
O49   O     O_R   0.714570 0.459210 0.828640 -0.516183
O50   O     O_R   0.285430 0.459210 0.171360 -0.521148
O51   O     O_R   0.214570 0.959210 0.828640 -0.516184
O52   O     O_R   0.785430 0.959210 0.171360 -0.521148
C133  C     C_2   0.617173 0.157287 0.599961 0.588407
O53   O     O_2   0.586276 0.209971 0.647945 -0.537510
O54   O     O_R   0.627144 0.032127 0.603683 -0.721714
H73   H     H_    0.606496 0.995695 0.648819 0.335430
C134  C     C_2   0.287160 0.359607 0.512544 0.573686
O55   O     O_2   0.321017 0.394035 0.564602 -0.516608
O56   O     O_R   0.320712 0.345784 0.447283 -0.692674
H74   H     H_    0.371000 0.376207 0.448850 0.310184
C135  C     C_2   0.117173 0.657286 0.599961 0.588407
O57   O     O_2   0.086276 0.709969 0.647945 -0.537510
O58   O     O_R   0.127145 0.532126 0.603683 -0.721714
H75   H     H_    0.106497 0.495694 0.648819 0.335429
C136  C     C_2   0.787160 0.859607 0.512544 0.573687
O59   O     O_2   0.821016 0.894037 0.564602 -0.516608
O60   O     O_R   0.820712 0.845783 0.447283 -0.692674
H76   H     H_    0.871000 0.876207 0.448850 0.310184

loop_
_geom_bond_atom_site_label_1
_geom_bond_atom_site_label_2
_ccdc_geom_bond_type
Cr9   O33   S    
Cr7   O31   S    
C47   O31   A    
C2    C123  S    
Cr11  O35   S    
C116  O12   A    
C6    H2    S    
C94   C117  S    
C95   C99   A    
O54   H73   S    
C29   C33   A    
C46   O34   A    
C82   H30   S    
C83   H27   S    
C70   C74   A    
C9    C121  A    
C81   H25   S    
C112  O52   A    
C7    H3    S    
C119  O15   A    
C18   C134  S    
C97   C105  S    
C15   C127  S    
C22   C130  A    
Cr9   O9    S    
Cr2   O22   S    
C20   C132  S    
C9    H45   S    
C41   C49   A    
C12   H48   S    
C108  H40   S    
C23   C47   S    
C106  H42   S    
C17   C133  S    
C62   C66   A    
C120  O44   A    
C60   C76   A    
C52   H71   S    
Cr8   O28   S    
C35   C36   A    
C48   O36   A    
C43   C44   A    
C115  O11   A    
C37   C38   A    
Cr6   O30   S    
C66   C82   S    
C78   C82   S    
C113  O9    A    
C16   C20   S    
C19   H59   S    
Cr4   O44   S    
C17   H57   S    
C113  O5    A    
C112  O48   A    
C133  O54   S    
Cr7   O19   S    
C18   C130  S    
C20   C136  S    
Cr7   O7    S    
Cr7   O51   S    
C93   C102  A    
C108  H44   S    
Cr11  O11   S    
C10   C122  A    
C14   C126  S    
C55   H7    S    
C118  O42   A    
C59   C63   A    
C98   C106  S    
C60   C64   A    
C1    C124  S    
C111  O51   A    
C48   O32   A    
C91   O39   A    
C49   C53   A    
C51   C55   A    
C127  C131  A    
C61   C65   A    
C5    C21   A    
Cr9   O17   S    
C126  C130  A    
C79   H23   S    
C80   H24   S    
C51   H72   S    
C122  C126  A    
C72   H12   S    
C120  O16   A    
C97   C98   A    
C54   H6    S    
C53   C54   A    
Cr1   O45   S    
C33   H61   S    
C25   C90   S    
C13   H53   S    
C64   C68   A    
Cr10  O14   S    
Cr6   O6    S    
C77   H21   S    
C73   H13   S    
C117  O41   A    
C36   H64   S    
C57   C73   A    
C60   C109  S    
C45   O33   A    
C27   C44   A    
C61   C77   S    
C29   C38   A    
C107  C108  S    
Cr7   O27   S    
C47   O35   A    
C16   H56   S    
C44   C52   A    
C90   O38   A    
Cr11  O39   S    
C135  O57   D    
C53   H5    S    
Cr1   O21   S    
C134  O55   D    
C21   C45   S    
C100  C108  S    
C5    H1    S    
C30   C34   A    
C24   C48   S    
C46   O30   A    
C109  O49   A    
C39   C40   A    
Cr8   O8    S    
C50   H69   S    
C1    O21   A    
C81   H29   S    
C121  C125  A    
C125  C129  A    
C25   C38   A    
Cr5   O29   S    
C123  C127  A    
C27   C40   A    
C8    C12   A    
Cr2   O18   S    
C23   C131  A    
C2    O26   A    
C21   C129  A    
C42   C50   A    
C102  H34   S    
C93   C97   A    
C69   C85   A    
C58   C74   A    
Cr8   O32   S    
C87   C115  S    
C62   C78   S    
C84   H28   S    
C66   C86   A    
C29   H65   S    
C136  O60   S    
Cr3   O43   S    
Cr10  O38   S    
C13   C17   S    
C85   C113  S    
Cr5   O25   S    
C7    C23   A    
C96   C100  A    
C117  O13   A    
C8    C24   A    
C28   C91   S    
C11   H47   S    
C90   O2    A    
C16   H50   S    
O60   H76   S    
C105  H37   S    
C4    O28   A    
C58   C62   A    
C119  O43   A    
C55   C56   A    
C101  C102  A    
C41   C42   A    
C96   C119  S    
O56   H74   S    
C80   C84   S    
C15   C19   S    
Cr12  O40   S    
C5    C9    A    
C50   C54   A    
C115  O7    A    
C94   C98   A    
Cr9   O13   S    
C6    C22   A    
Cr5   O5    S    
C31   C40   A    
C32   C39   A    
C80   H20   S    
O58   H75   S    
Cr8   O52   S    
C69   C73   A    
C56   H8    S    
C124  C128  A    
Cr1   O41   S    
C133  O53   D    
C64   C80   S    
C8    H4    S    
Cr10  O10   S    
C77   H17   S    
C78   H22   S    
Cr12  O20   S    
C58   C111  S    
C68   C84   S    
C20   H60   S    
C45   O29   A    
C74   H14   S    
C28   C39   A    
Cr2   O2    S    
C49   H70   S    
C69   H9    S    
C30   C37   A    
C116  O8    A    
C114  O10   A    
C24   C132  A    
C65   C81   S    
C77   C81   S    
C71   H11   S    
C4    O24   A    
C18   H58   S    
Cr1   O17   S    
C114  O6    A    
C71   C87   A    
C92   O40   A    
C35   H63   S    
C22   C46   S    
C31   C35   A    
Cr6   O18   S    
C109  O45   A    
C32   C36   A    
C110  O50   A    
Cr12  O16   S    
C11   C123  A    
C25   C42   A    
C6    C10   A    
C26   C37   A    
Cr4   O4    S    
C95   C120  S    
C99   C107  S    
C105  C106  S    
C28   C43   A    
Cr9   O37   S    
C79   C83   S    
C43   C51   A    
C4    C121  S    
C103  H35   S    
C101  H33   S    
Cr4   O20   S    
C15   H49   S    
C13   H51   S    
C96   C103  A    
C103  C104  A    
Cr8   O20   S    
C84   H32   S    
C13   C125  S    
C3    O23   A    
C82   H26   S    
Cr3   O47   S    
Cr10  O34   S    
C83   H31   S    
Cr4   O48   S    
C14   C18   S    
C72   C76   A    
C63   C79   S    
C34   H62   S    
C26   C89   S    
C7    C11   A    
C14   H54   S    
C10   H46   S    
C32   H68   S    
C57   C112  S    
C105  H41   S    
C107  H43   S    
C59   C110  S    
Cr11  O19   S    
C57   C61   A    
C92   O4    A    
C106  H38   S    
C134  O56   S    
Cr5   O49   S    
C94   C101  A    
Cr6   O26   S    
C3    C122  S    
Cr2   O42   S    
Cr12  O36   S    
Cr2   O46   S    
C89   O37   A    
C128  C132  A    
C72   C88   A    
C19   C131  S    
C63   C67   A    
C17   C129  S    
C2    O22   A    
Cr6   O50   S    
C136  O59   D    
Cr1   O1    S    
C107  H39   S    
C88   C116  S    
C15   H55   S    
C99   C100  A    
C12   C124  A    
Cr3   O3    S    
C33   C34   A    
C27   C92   S    
C3    O27   A    
C67   C83   S    
C16   C128  S    
C111  O47   A    
C1    O25   A    
C78   H18   S    
C135  O58   S    
C68   C88   A    
C93   C118  S    
Cr5   O17   S    
C70   C86   A    
C59   C75   A    
C95   C104  A    
C75   H15   S    
C14   H52   S    
C76   H16   S    
C19   C135  S    
C70   H10   S    
C79   H19   S    
C30   H66   S    
C65   C85   A    
C67   C87   A    
C86   C114  S    
Cr11  O15   S    
Cr4   O24   S    
C71   C75   A    
C104  H36   S    
C118  O14   A    
Cr3   O23   S    
Cr3   O19   S    
C91   O3    A    
C110  O46   A    
C89   O1    A    
Cr10  O18   S    
C31   H67   S    
Cr12  O12   S    
C52   C56   A    
C26   C41   A    
