data_mof_unit_3904.cif
_audit_creation_date              2012-12-11T15:37:13-0500
_audit_creation_method            fapswitch 2.2
_symmetry_space_group_name_H-M    P1
_symmetry_Int_Tables_number       1
_space_group_crystal_system       triclinic
_cell_length_a                    16.65951
_cell_length_b                    7.076518
_cell_length_c                    15.204989
_cell_angle_alpha                 89.999765
_cell_angle_beta                  94.752701
_cell_angle_gamma                 89.999876
_cell_volume                      1786.37279926

loop_
_atom_site_label
_atom_site_type_symbol
_atom_type_description
_atom_site_fract_x
_atom_site_fract_y
_atom_site_fract_z
_atom_type_partial_charge
O1    O     O_R   0.578230 0.505720 0.424270 -0.553699
O2    O     O_R   0.421770 0.005720 0.575730 -0.553705
O3    O     O_R   0.412470 0.173950 0.404530 -0.540020
O4    O     O_R   0.587530 0.673950 0.595470 -0.540024
C1    C     C_R   0.384775 0.345517 0.381786 0.692581
C2    C     C_R   0.615224 0.845516 0.618215 0.692590
O5    O     O_R   0.577030 0.175880 0.413670 -0.506414
O6    O     O_R   0.422970 0.675880 0.586330 -0.506409
O7    O     O_R   0.587510 0.007580 0.584940 -0.500891
O8    O     O_R   0.412490 0.507580 0.415060 -0.500890
C3    C     C_R   0.603537 0.344733 0.393317 0.724692
C4    C     C_R   0.396463 0.844733 0.606683 0.724698
O9    O     O_3   0.503240 0.339850 0.556180 -0.361048
O10   O     O_3   0.496760 0.839850 0.443820 -0.361047
V1    V     V_3+5 0.499400 0.064230 0.489580 1.625414
V2    V     V_3+5 0.500600 0.564230 0.510420 1.625420
C5    C     C_1   0.333740 0.854975 0.668583 -0.114266
C6    C     C_1   0.666260 0.354975 0.331417 -0.114259
C7    C     C_1   0.280984 0.865711 0.719754 0.064363
C8    C     C_1   0.719016 0.365711 0.280245 0.064367
C9    C     C_1   0.218774 0.879216 0.779894 0.057828
C10   C     C_1   0.781225 0.379216 0.220106 0.057819
C11   C     C_1   0.166149 0.889955 0.831231 -0.143130
C12   C     C_1   0.833851 0.389955 0.168768 -0.143154
C13   C     C_3   0.749604 0.752460 0.839530 -0.343867
C14   C     C_3   0.250392 0.252455 0.160476 -0.343876
H1    H     H_    0.777217 0.616450 0.861951 0.183708
H2    H     H_    0.222778 0.116446 0.138057 0.183699
H3    H     H_    0.722777 0.810852 0.898494 0.139739
H4    H     H_    0.277219 0.310847 0.101513 0.139759
C15   C     C_3   0.683371 0.711857 0.763836 -0.237250
C16   C     C_3   0.316624 0.211850 0.236171 -0.237234
H5    H     H_    0.696821 0.570139 0.737402 0.219163
H6    H     H_    0.303170 0.070137 0.262610 0.219166
C17   C     C_3   0.843627 0.820856 0.719606 0.446684
C18   C     C_3   0.156368 0.320860 0.280401 0.446652
C19   C     C_3   0.769016 0.088010 0.797357 -0.333296
C20   C     C_3   0.230978 0.588008 0.202646 -0.333294
C21   C     C_3   0.814361 0.894082 0.809663 -0.158294
C22   C     C_3   0.185635 0.394078 0.190342 -0.158288
H7    H     H_    0.751475 0.123822 0.864230 0.127682
H8    H     H_    0.248515 0.623827 0.135773 0.127689
C23   C     C_3   0.687897 0.861985 0.687553 -0.248055
C24   C     C_3   0.312100 0.361985 0.312451 -0.248035
C25   C     C_3   0.770789 0.824256 0.642974 -0.246035
C26   C     C_3   0.229209 0.324261 0.357033 -0.246001
C27   C     C_3   0.691370 0.068709 0.731097 0.510583
C28   C     C_3   0.308626 0.568708 0.268904 0.510583
O11   O     O_R   0.087480 0.241090 0.084980 -0.512625
O12   O     O_R   0.912520 0.741090 0.915020 -0.512616
O13   O     O_R   0.922960 0.569060 0.086330 -0.538173
O14   O     O_R   0.077040 0.069060 0.913670 -0.538174
C29   C     C_R   0.896344 0.400207 0.106569 0.704599
C30   C     C_R   0.103656 0.900207 0.893430 0.704623
O15   O     O_R   0.087520 0.570920 0.095480 -0.571961
O16   O     O_R   0.912480 0.070920 0.904520 -0.571966
O17   O     O_R   0.078240 0.739160 0.924260 -0.528536
O18   O     O_R   0.921760 0.239160 0.075740 -0.528542
C31   C     C_R   0.116013 0.402664 0.117627 0.679588
C32   C     C_R   0.883985 0.902665 0.882375 0.679607
O19   O     O_3   0.996740 0.404980 0.943840 -0.366540
O20   O     O_3   0.003260 0.904980 0.056160 -0.366548
V3    V     V_3+5 0.000600 0.680640 0.010420 1.480901
V4    V     V_3+5 0.999400 0.180640 0.989580 1.480886
F1    F     F_    0.693988 0.204234 0.665419 -0.687647
F2    F     F_    0.306010 0.704240 0.334578 -0.687645
C33   C     C_2   0.920397 0.916200 0.694985 0.479569
H9    H     H_    0.948909 0.027471 0.735322 0.023432
O21   O     O_2   0.953695 0.861950 0.630980 -0.454593
C34   C     C_2   0.079600 0.416218 0.305021 0.479753
H10   H     H_    0.051040 0.527336 0.264620 0.023337
O22   O     O_2   0.046353 0.362130 0.369093 -0.454670
C35   C     C_2   0.781421 0.971955 0.570916 0.535876
H11   H     H_    0.828782 0.076259 0.576732 0.147385
O23   O     O_2   0.736227 0.974783 0.503367 -0.526218
C36   C     C_2   0.218581 0.471965 0.429091 0.535899
H12   H     H_    0.171213 0.576240 0.423287 0.147464
O24   O     O_2   0.263784 0.474824 0.496627 -0.526242
C37   C     C_2   0.601452 0.692785 0.799358 0.363630
H13   H     H_    0.581507 0.792761 0.846900 0.083645
O25   O     O_2   0.557224 0.561126 0.776361 -0.497075
C38   C     C_2   0.398542 0.192763 0.200649 0.363611
H14   H     H_    0.418490 0.292729 0.153107 0.083690
O26   O     O_2   0.442768 0.061109 0.223649 -0.497099
F3    F     F_    0.867905 0.636283 0.735588 -0.643870
F4    F     F_    0.132086 0.136289 0.264425 -0.643901
C39   C     C_2   0.769957 0.634894 0.594040 0.641161
H15   H     H_    0.720445 0.536632 0.595401 0.081847
O27   O     O_2   0.826627 0.589048 0.552504 -0.449075
C40   C     C_2   0.230041 0.134902 0.405970 0.641130
H16   H     H_    0.279565 0.036673 0.404640 0.081793
O28   O     O_2   0.173357 0.089032 0.447481 -0.449048
C41   C     C_2   0.821865 0.253477 0.776330 0.516051
H17   H     H_    0.843193 0.348801 0.828894 0.093034
O29   O     O_2   0.843471 0.279468 0.702717 -0.479387
C42   C     C_2   0.178125 0.753467 0.223678 0.516081
H18   H     H_    0.156804 0.848807 0.171118 0.093023
O30   O     O_2   0.156508 0.779431 0.297288 -0.479386
C43   C     C_2   0.614187 0.115443 0.774366 0.395847
H19   H     H_    0.556493 0.103979 0.736189 0.060622
O31   O     O_2   0.614388 0.169281 0.850705 -0.537698
C44   C     C_2   0.385808 0.615434 0.225630 0.395780
H20   H     H_    0.443501 0.604028 0.263815 0.060691
O32   O     O_2   0.385609 0.669198 0.149279 -0.537719

loop_
_geom_bond_atom_site_label_1
_geom_bond_atom_site_label_2
_ccdc_geom_bond_type
C13   C15   S    
C39   H15   S    
C3    C6    S    
C14   C16   S    
C41   H17   S    
O15   C31   A    
C35   H11   S    
O1    C3    A    
O2    C4    A    
C2    O7    A    
C26   C36   S    
O5    C3    A    
C15   C23   S    
C25   C39   S    
C36   O24   D    
C20   H8    S    
C27   C43   S    
C25   C35   S    
O19   V3    S    
C28   F2    S    
O20   V4    S    
C24   C26   S    
C42   O30   D    
C4    C5    S    
C15   H5    S    
C18   C26   S    
C34   H10   S    
C19   C27   S    
C20   C28   S    
O5    V1    S    
C41   O29   D    
C22   C31   S    
C13   H3    S    
O12   V3    S    
C35   O23   D    
O14   C30   A    
O17   V3    S    
O18   V4    S    
C33   H9    S    
C18   C22   S    
O13   V3    S    
C36   H12   S    
O4    C2    A    
O14   V4    S    
C37   O25   D    
C18   F4    S    
C12   C29   S    
O16   C32   A    
O15   V3    S    
C33   O21   D    
C16   H6    S    
O4    V2    S    
O19   V4    S    
C17   C21   S    
O20   V3    S    
C40   O28   D    
C43   H19   S    
C17   C33   S    
O6    C4    A    
C28   C44   S    
C42   H18   S    
O16   V4    S    
C16   C24   S    
C19   C41   S    
O1    V2    S    
C44   O32   D    
O2    V1    S    
C23   C25   S    
C18   C34   S    
C1    C24   S    
C8    C10   S    
C14   H4    S    
C38   O26   D    
C2    C23   S    
C9    C11   T    
C10   C12   T    
C17   C25   S    
O3    V1    S    
C11   C30   S    
C7    C9    S    
O3    C1    A    
C29   O18   A    
C15   C37   S    
C26   C40   S    
C13   H1    S    
C16   C38   S    
C14   H2    S    
O11   C31   A    
O12   C32   A    
C39   O27   D    
O7    V1    S    
C1    O8    A    
C19   C21   S    
O8    V2    S    
C13   C21   S    
C20   C22   S    
C17   F3    S    
C14   C22   S    
C40   H16   S    
C21   C32   S    
C5    C7    T    
C27   F1    S    
C6    C8    T    
C19   H7    S    
C44   H20   S    
C37   H13   S    
O6    V2    S    
C38   H14   S    
O9    V2    S    
C20   C42   S    
O11   V4    S    
O10   V1    S    
C34   O22   D    
O13   C29   A    
C23   C27   S    
C43   O31   D    
C24   C28   S    
C30   O17   A    
