data_mof_unit_4157.cif
_audit_creation_date              2012-12-10T17:08:14-0500
_audit_creation_method            fapswitch 2.2
_symmetry_space_group_name_H-M    P1
_symmetry_Int_Tables_number       1
_space_group_crystal_system       triclinic
_cell_length_a                    23.584156
_cell_length_b                    10.841311
_cell_length_c                    9.898139
_cell_angle_alpha                 110.320602
_cell_angle_beta                  98.272548
_cell_angle_gamma                 91.710024
_cell_volume                      2339.88644942

loop_
_atom_site_label
_atom_site_type_symbol
_atom_type_description
_atom_site_fract_x
_atom_site_fract_y
_atom_site_fract_z
_atom_type_partial_charge
C1    C     C_R   0.497858 0.253279 0.441836 0.870340
C2    C     C_R   0.710558 0.584668 0.621008 0.356865
C3    C     C_R   0.244524 0.477435 0.610283 0.442138
C4    C     C_R   0.769727 0.579150 0.622986 0.443422
C5    C     C_R   0.209048 0.512455 0.503533 -0.074034
C6    C     C_R   0.790800 0.507019 0.493879 -0.071812
C7    C     C_2   0.501264 0.111552 0.414014 -0.053610
C8    C     C_2   0.512364 0.889279 0.585967 -0.065555
C9    C     C_2   0.538070 0.073087 0.507592 0.330719
C10   C     C_2   0.537283 0.932169 0.493136 0.312665
C11   C     C_2   0.513554 0.488468 0.076859 0.537151
C12   C     C_R   0.505795 0.746904 0.558117 0.880178
C13   C     C_2   0.505516 0.468417 0.915401 0.436355
C14   C     C_R   0.391164 0.501641 0.501192 0.810573
C15   C     C_R   0.608825 0.500649 0.499089 0.851218
C16   C     C_R   0.882154 0.622406 0.506167 0.596823
C17   C     C_R   0.116312 0.393721 0.469932 0.596119
C18   C     C_R   0.878099 0.394707 0.479990 0.586205
C19   C     C_R   0.122445 0.627476 0.529969 0.585561
C20   C     C_R   0.937223 0.392391 0.476701 -0.049434
C21   C     C_R   0.062735 0.628124 0.523576 -0.049105
C22   C     C_R   0.969755 0.509821 0.495303 -0.087652
C23   C     C_R   0.233874 0.546199 0.397657 0.446696
C24   C     C_R   0.029713 0.509281 0.496973 -0.087442
C25   C     C_R   0.942389 0.627577 0.512527 -0.058217
C26   C     C_R   0.056631 0.390192 0.472407 -0.057438
C27   C     C_R   0.964158 0.275169 0.455719 -0.235304
C28   C     C_R   0.035723 0.745120 0.543238 -0.236784
C29   C     C_R   0.023378 0.272117 0.451507 0.443630
C30   C     C_R   0.975822 0.746105 0.536025 0.444961
C31   C     C_3   0.537142 0.693335 0.955860 -0.587305
C32   C     C_3   0.421572 0.372010 0.051107 -0.500812
C33   C     C_3   0.488985 0.983309 0.713994 -0.871315
C34   C     C_R   0.751787 0.433095 0.366196 0.445321
C35   C     C_3   0.462114 0.012809 0.284739 -0.900146
C36   C     C_R   0.293544 0.553546 0.405234 0.338561
C37   C     C_R   0.692986 0.423502 0.371198 0.357236
C38   C     C_R   0.328592 0.506960 0.503376 -0.424792
C39   C     C_R   0.671402 0.502764 0.497079 -0.419295
C40   C     C_R   0.302802 0.464644 0.602432 0.347878
Cu1   Cu    Cu3+1 0.509980 0.521810 0.644910 1.004023
Cu2   Cu    Cu3+1 0.490020 0.478190 0.355090 1.025782
H1    H     H_    0.939063 0.184796 0.441200 0.198894
H2    H     H_    0.979297 0.934737 0.568926 0.322488
H3    H     H_    0.160790 0.544029 0.275670 0.334970
H4    H     H_    0.809624 0.396117 0.237905 0.338652
H5    H     H_    0.352641 0.658138 0.366480 0.327212
H6    H     H_    0.627268 0.294814 0.283906 0.327814
H7    H     H_    0.358073 0.346926 0.633401 0.310051
H8    H     H_    0.658092 0.709886 0.710771 0.328516
H9    H     H_    0.185347 0.483830 0.730860 0.337892
H10   H     H_    0.844799 0.619991 0.748524 0.334753
H11   H     H_    0.579838 0.894735 0.331662 0.328727
H12   H     H_    0.061135 0.836412 0.562881 0.197298
H13   H     H_    0.600861 0.118126 0.670890 0.341127
H14   H     H_    0.468113 0.929427 0.773353 0.236664
H15   H     H_    0.524385 0.052644 0.791954 0.276932
H16   H     H_    0.456264 0.040265 0.675037 0.260534
H17   H     H_    0.433497 0.062930 0.224820 0.253631
H18   H     H_    0.488085 0.948683 0.207681 0.249029
H19   H     H_    0.434493 0.950767 0.322395 0.255147
H20   H     H_    0.448074 0.365037 0.759688 0.345965
H21   H     H_    0.593466 0.551541 0.100728 0.327841
H22   H     H_    0.505992 0.752949 0.917066 0.221837
H23   H     H_    0.532024 0.715909 0.071001 0.195908
H24   H     H_    0.581371 0.727892 0.951525 0.235832
H25   H     H_    0.392539 0.356488 0.122947 0.240947
H26   H     H_    0.398881 0.426984 0.986541 0.213534
H27   H     H_    0.429960 0.272168 0.979687 0.212291
H28   H     H_    0.019887 0.083291 0.417632 0.323517
N1    N     N_R   0.851785 0.507998 0.492891 -0.484545
N2    N     N_R   0.147821 0.511302 0.501149 -0.482945
N3    N     N_2   0.475010 0.445410 0.137370 -0.167727
N4    N     N_2   0.524990 0.554590 0.862630 -0.167038
O1    O     O_R   0.505330 0.332340 0.577400 -0.509027
O2    O     O_2   0.143008 0.281171 0.436920 -0.417729
O3    O     O_2   0.846921 0.284499 0.469979 -0.477809
O4    O     O_2   0.155029 0.741913 0.563863 -0.482376
O5    O     O_3   0.049220 0.155441 0.429724 -0.646511
O6    O     O_3   0.949773 0.862069 0.553884 -0.645468
O7    O     O_3   0.201470 0.576665 0.287324 -0.615199
O8    O     O_3   0.769581 0.364416 0.235423 -0.615002
O9    O     O_3   0.315892 0.605864 0.313360 -0.626443
O10   O     O_3   0.657991 0.335188 0.250119 -0.622347
O11   O     O_3   0.333103 0.408207 0.692234 -0.656833
O12   O     O_R   0.494670 0.667660 0.422600 -0.515290
O13   O     O_3   0.692747 0.671563 0.743213 -0.620601
O14   O     O_3   0.223333 0.448645 0.720084 -0.612754
O15   O     O_3   0.805608 0.649622 0.752476 -0.613351
O16   O     O_3   0.562078 0.844495 0.383901 -0.699206
O17   O     O_3   0.576476 0.165329 0.617995 -0.683695
O18   O     O_3   0.480996 0.347100 0.821880 -0.723903
O19   O     O_3   0.564488 0.551801 0.164116 -0.659852
O20   O     O_R   0.488470 0.295500 0.332650 -0.590932
O21   O     O_R   0.511530 0.704500 0.667350 -0.600760
O22   O     O_R   0.426310 0.518390 0.622390 -0.581491
O23   O     O_R   0.573690 0.481610 0.377610 -0.497532
O24   O     O_R   0.409450 0.481550 0.377650 -0.573166
O25   O     O_R   0.590550 0.518450 0.622350 -0.536468
O26   O     O_2   0.853849 0.730322 0.513787 -0.412378

loop_
_geom_bond_atom_site_label_1
_geom_bond_atom_site_label_2
_ccdc_geom_bond_type
C31   H24   S    
C33   H16   S    
C27   C29   A    
C34   C37   A    
Cu1   Cu2   S    
C6    C34   A    
C9    O17   S    
H10   O15   S    
C17   C26   A    
C19   C21   A    
C24   C26   A    
C5    N2    S    
Cu2   O24   S    
Cu1   O22   S    
C14   C38   S    
C36   O9    S    
C18   N1    A    
C35   H17   S    
H13   O17   S    
Cu1   N4    S    
H4    O8    S    
C2    C39   A    
C1    O20   A    
C22   C25   A    
C29   O5    S    
C17   O2    S    
Cu1   O25   S    
C37   O10   S    
Cu2   O12   S    
H5    O9    S    
C9    C10   S    
C32   H26   S    
C30   O6    S    
C11   O19   S    
C33   H14   S    
C3    O14   S    
Cu2   O20   S    
C19   N2    A    
C16   N1    A    
C15   O23   A    
C14   O22   A    
C14   O24   A    
C6    N1    S    
C1    O1    A    
H7    O11   S    
H2    O6    S    
C4    C6    A    
C11   N3    D    
Cu2   O23   S    
C32   N3    S    
C28   H12   S    
C25   C30   A    
C31   N4    S    
C16   O26   S    
H6    O10   S    
H20   O18   S    
C35   H18   S    
C40   O11   S    
C19   O4    S    
C2    C4    A    
C27   H1    S    
Cu1   O1    S    
C5    C23   A    
C8    C12   S    
C2    O13   S    
C12   O21   A    
C15   C39   S    
H8    O13   S    
C17   N2    A    
C32   H25   S    
C21   C28   A    
C20   C22   A    
C3    C40   A    
C13   O18   S    
C22   C24   A    
C4    O15   S    
C16   C25   A    
C31   H23   S    
Cu2   N3    S    
C33   H15   S    
C23   O7    S    
H28   O5    S    
C1    C7    S    
C7    C35   S    
C31   H22   S    
H3    O7    S    
C15   O25   A    
C3    C5    A    
H9    O14   S    
C32   H27   S    
C20   C27   A    
H21   O19   S    
C12   O12   A    
C36   C38   A    
C37   C39   A    
C38   C40   A    
C11   C13   S    
Cu1   O21   S    
C35   H19   S    
C18   O3    S    
C28   C30   A    
C18   C20   A    
C8    C33   S    
C7    C9    D    
C13   N4    D    
C10   O16   S    
C26   C29   A    
C8    C10   D    
C23   C36   A    
C21   C24   A    
H11   O16   S    
C34   O8    S    
