data_mof_unit_4970.cif
_audit_creation_date              2013-03-05T16:13:54-0500
_audit_creation_method            fapswitch 2.2
_symmetry_space_group_name_H-M    P1
_symmetry_Int_Tables_number       1
_space_group_crystal_system       triclinic
_cell_length_a                    20.208166
_cell_length_b                    22.867707
_cell_length_c                    6.935659
_cell_angle_alpha                 90.131818
_cell_angle_beta                  87.491275
_cell_angle_gamma                 90.028606
_cell_volume                      3201.98745997

loop_
_atom_site_label
_atom_site_type_symbol
_atom_site_description
_atom_site_fract_x
_atom_site_fract_y
_atom_site_fract_z
_atom_type_partial_charge
O1    O     O_R   0.751270 0.447300 0.600030 -0.600591
O2    O     O_R   0.248730 0.947300 0.399970 -0.598311
O3    O     O_R   0.613530 0.440160 0.952150 -0.578920
O4    O     O_R   0.386470 0.940160 0.047850 -0.579419
O5    O     O_R   0.613050 0.552700 0.122560 -0.590507
O6    O     O_R   0.386950 0.052700 0.877440 -0.585015
C1    C     C_R   0.591875 0.425437 0.785745 0.966352
C2    C     C_R   0.408310 0.925623 0.213691 0.967897
O7    O     O_R   0.750780 0.440350 0.929820 -0.592499
O8    O     O_R   0.249220 0.940350 0.070180 -0.592659
O9    O     O_R   0.751280 0.552900 0.100070 -0.611019
O10   O     O_R   0.248720 0.052900 0.899930 -0.578308
C3    C     C_R   0.772551 0.424867 0.758054 0.956611
C4    C     C_R   0.227343 0.924949 0.241699 0.964801
O11   O     O_R   0.613040 0.447100 0.622520 -0.600938
O12   O     O_R   0.386960 0.947100 0.377480 -0.599165
O13   O     O_3   0.682160 0.536920 0.777780 -0.242578
O14   O     O_3   0.317840 0.036920 0.222220 -0.261156
V1    V     V_3+5 0.682160 0.493150 0.052630 1.198832
V2    V     V_3+5 0.317840 0.993150 0.947370 1.208935
O15   O     O_R   0.750790 0.559840 0.429870 -0.586779
O16   O     O_R   0.249210 0.059840 0.570130 -0.589219
C5    C     C_R   0.773121 0.574698 0.258236 1.005172
C6    C     C_R   0.226688 0.074616 0.742062 1.000714
O17   O     O_R   0.613540 0.559650 0.452200 -0.544509
O18   O     O_R   0.386460 0.059650 0.547800 -0.579311
C7    C     C_R   0.594244 0.576990 0.285016 0.940489
C8    C     C_R   0.406260 0.076589 0.714879 0.924846
V3    V     V_3+5 0.682160 0.506850 0.552630 1.227632
V4    V     V_3+5 0.317840 0.006850 0.447370 1.210192
O19   O     O_3   0.682150 0.463080 0.277610 -0.277003
O20   O     O_3   0.317850 0.963080 0.722390 -0.276162
C9    C     C_R   0.576786 0.861371 0.120441 -0.137077
C10   C     C_R   0.421791 0.361993 0.855044 -0.140897
H1    H     H_    0.534582 0.946944 0.105359 0.114527
H2    H     H_    0.464222 0.447439 0.875539 0.113349
H3    H     H_    0.660133 0.777397 0.034552 0.171336
H4    H     H_    0.336619 0.278560 0.930509 0.162369
H5    H     H_    0.624444 0.876326 0.061943 0.125458
H6    H     H_    0.373210 0.377397 0.904322 0.123386
C11   C     C_R   0.463119 0.883568 0.212699 -0.109522
C12   C     C_R   0.537181 0.383241 0.783957 -0.107151
C13   C     C_R   0.479908 0.602099 0.378237 -0.130089
C14   C     C_R   0.521841 0.100720 0.630400 -0.128073
C15   C     C_R   0.428871 0.641263 0.419410 -0.085678
C16   C     C_R   0.573341 0.139640 0.590866 -0.082203
C17   C     C_R   0.436318 0.700154 0.374860 -0.154985
C18   C     C_R   0.565398 0.199004 0.628965 -0.154313
C19   C     C_R   0.494803 0.721472 0.280248 0.103121
C20   C     C_R   0.505727 0.221107 0.714319 0.105242
C21   C     C_R   0.546547 0.680496 0.227464 0.035641
C22   C     C_R   0.453278 0.180595 0.763183 0.040541
C23   C     C_R   0.503425 0.782439 0.237658 0.082816
C24   C     C_R   0.496675 0.282297 0.752974 0.083123
C25   C     C_R   0.565694 0.801986 0.160727 0.150139
C26   C     C_R   0.433163 0.302407 0.818002 0.156078
C27   C     C_R   0.615024 0.761924 0.108666 -0.207316
C28   C     C_R   0.382754 0.262678 0.863325 -0.217181
C29   C     C_R   0.603726 0.701991 0.123798 -0.139737
C30   C     C_R   0.394612 0.202671 0.856202 -0.150442
C31   C     C_R   0.452088 0.824729 0.262804 -0.221963
C32   C     C_R   0.548695 0.324186 0.736540 -0.224071
C33   C     C_R   0.525743 0.901689 0.144812 -0.177388
C34   C     C_R   0.473521 0.401953 0.839550 -0.178564
C35   C     C_R   0.539337 0.620378 0.286016 -0.164180
C36   C     C_R   0.461337 0.119871 0.713761 -0.164865
H7    H     H_    0.402336 0.812990 0.310211 0.126470
H8    H     H_    0.599065 0.311940 0.697702 0.127530
H9    H     H_    0.473654 0.557053 0.423989 0.105400
H10   H     H_    0.528648 0.055187 0.590437 0.105875
H11   H     H_    0.395773 0.728193 0.420631 0.120681
H12   H     H_    0.606459 0.226787 0.585621 0.120661
H13   H     H_    0.383715 0.626123 0.492947 0.120849
H14   H     H_    0.619396 0.123846 0.524193 0.120684
C37   C     C_R   0.172776 0.880819 0.257598 -0.204789
C38   C     C_R   0.826802 0.380446 0.741670 -0.204010
C39   C     C_R   0.164797 0.835678 0.118730 -0.094649
C40   C     C_R   0.835089 0.335917 0.881821 -0.094800
C41   C     C_R   0.108440 0.799110 0.133259 -0.202223
C42   C     C_R   0.891148 0.299061 0.866686 -0.204239
C43   C     C_R   0.060727 0.805186 0.286947 0.214477
C44   C     C_R   0.938182 0.304128 0.710961 0.212823
C45   C     C_R   0.070411 0.848541 0.425550 -0.122053
C46   C     C_R   0.928097 0.346748 0.570866 -0.121375
C47   C     C_R   0.125372 0.885741 0.411485 -0.112746
C48   C     C_R   0.873525 0.384350 0.585765 -0.107075
C49   C     C_R   0.888105 0.704820 0.345342 -0.249960
C50   C     C_R   0.107234 0.199952 0.639483 -0.262585
C51   C     C_R   0.831539 0.668463 0.360838 0.365323
C52   C     C_R   0.163454 0.163445 0.623751 0.352900
C53   C     C_R   0.940392 0.693270 0.208839 0.185701
C54   C     C_R   0.059431 0.193494 0.792605 0.186094
N1    N     N_2   0.002884 0.769059 0.309107 -0.093721
N2    N     N_2   0.995521 0.267462 0.687574 -0.093638
N3    N     N_2   0.998356 0.729249 0.186311 -0.091074
N4    N     N_2   0.001950 0.229993 0.816611 -0.090176
C55   C     C_R   0.828160 0.618082 0.240864 -0.244977
C56   C     C_R   0.171434 0.117975 0.759891 -0.248649
H15   H     H_    0.890307 0.743107 0.436835 0.173328
H16   H     H_    0.102110 0.234414 0.534434 0.169143
H17   H     H_    0.034628 0.853905 0.545164 0.117902
H18   H     H_    0.963305 0.351261 0.449504 0.117339
H19   H     H_    0.129994 0.919515 0.519882 0.122901
H20   H     H_    0.868644 0.417573 0.476190 0.124813
C57   C     C_R   0.879810 0.607851 0.102443 -0.204654
C58   C     C_R   0.124062 0.112560 0.913623 -0.131891
C59   C     C_R   0.934851 0.644919 0.086732 -0.125830
C60   C     C_R   0.069119 0.149802 0.929543 -0.132193
H21   H     H_    0.878240 0.570130 0.007922 0.134335
H22   H     H_    0.128834 0.078550 0.020594 0.136113
H23   H     H_    0.102788 0.765074 0.026336 0.151135
H24   H     H_    0.896969 0.265463 0.974484 0.150667
H25   H     H_    0.973986 0.635463 0.979520 0.122168
H26   H     H_    0.033402 0.144213 0.049118 0.122581
C61   C     C_2   0.215684 0.823253 0.963175 1.012096
O21   O     O_2   0.198751 0.807631 0.803831 -0.651975
O22   O     O_R   0.283017 0.827245 0.000447 -0.811649
H27   H     H_    0.312742 0.817448 0.883259 0.322526
C62   C     C_2   0.784737 0.324319 0.039337 1.013842
O23   O     O_2   0.802251 0.310027 0.199205 -0.653393
O24   O     O_R   0.717249 0.327559 0.003407 -0.810787
H28   H     H_    0.687915 0.318461 0.121908 0.322920
C63   C     C_2   0.644582 0.666061 0.989370 1.056151
O25   O     O_2   0.617802 0.638035 0.864361 -0.591909
O26   O     O_R   0.713515 0.669889 0.989698 -0.763082
H29   H     H_    0.735985 0.645162 0.884649 0.360863
C64   C     C_2   0.356506 0.168626 0.001409 1.051670
O27   O     O_2   0.296063 0.167605 0.001906 -0.581397
O28   O     O_R   0.390229 0.144425 0.153506 -0.775529
H30   H     H_    0.359546 0.134207 0.267323 0.373956
N5    N     N_R   0.777398 0.685272 0.491378 0.229105
O29   O     O_R   0.788119 0.719575 0.636743 -0.406276
O30   O     O_R   0.716444 0.675251 0.447853 -0.403944
N6    N     N_R   0.213456 0.175475 0.475844 0.238802
O31   O     O_R   0.196564 0.194414 0.308208 -0.375205
O32   O     O_R   0.275326 0.178305 0.519599 -0.427205

loop_
_geom_bond_atom_site_label_1
_geom_bond_atom_site_label_2
_geom_bond_distance
_ccdc_geom_bond_type
C9    C25   1.403026 A    
C10   C26   1.403223 A    
C44   N2    1.433824 S    
C49   C53   1.412113 A    
O13   V3    1.704810 S    
C23   C25   1.417640 A    
C14   C36   1.399477 A    
C11   C31   1.405694 A    
O4    C2    1.294077 A    
C48   H20   1.083398 S    
C63   O25   1.222092 D    
C17   C19   1.413527 A    
C57   C59   1.398703 A    
O9    V1    1.990587 S    
C9    H5    1.084059 S    
C6    C56   1.494526 S    
O16   C6    1.301565 A    
C38   C40   1.424339 A    
O3    C1    1.295817 A    
C58   H22   1.083332 S    
C52   N6    1.435021 S    
C40   C42   1.412390 A    
C63   O26   1.395818 S    
C28   C30   1.393485 A    
C61   O21   1.223609 D    
C54   N4    1.434235 S    
C46   H18   1.083179 S    
C15   H13   1.082786 S    
C21   C35   1.439899 A    
C1    C12   1.467293 S    
C60   H26   1.083086 S    
O7    C3    1.300176 A    
C59   H25   1.083078 S    
C22   C30   1.417292 A    
O5    C7    1.297058 A    
C23   C31   1.423461 A    
C54   C60   1.399815 A    
O6    C8    1.298449 A    
C50   C54   1.411955 A    
C14   C16   1.387664 A    
C19   C21   1.439197 A    
C20   C22   1.437192 A    
O3    V1    1.989100 S    
O14   V4    1.707706 S    
C45   H17   1.083179 S    
C12   C32   1.406256 A    
C49   H15   1.082176 S    
C47   H19   1.083426 S    
C9    C33   1.388365 A    
C55   C57   1.406181 A    
C18   C20   1.413060 A    
V1    O19   1.706618 S    
C2    O12   1.293273 A    
H4    C28   1.086156 S    
C29   C63   1.468251 S    
C42   H24   1.083295 S    
C18   H12   1.077499 S    
O1    V3    1.989248 S    
C43   C45   1.399012 A    
O7    V1    1.999950 S    
O11   V3    1.998688 S    
C16   C18   1.390446 A    
C15   C17   1.389026 A    
O15   C5    1.300310 A    
O17   V3    1.988977 S    
C24   C26   1.418136 A    
C53   C59   1.398637 A    
C2    C11   1.466973 S    
C42   C44   1.412076 A    
O8    C4    1.300135 A    
O8    V2    2.001478 S    
C41   C43   1.412335 A    
N6    O32   1.300976 A    
C1    O11   1.292246 A    
C24   C32   1.422910 A    
C61   O22   1.398999 S    
O15   V3    2.004102 S    
C51   C55   1.422984 A    
C8    C36   1.488851 S    
C64   O28   1.396240 S    
C7    C35   1.488618 S    
C43   N1    1.434000 S    
C31   H7    1.078054 S    
C3    C38   1.495461 S    
C13   C35   1.399854 A    
O10   V2    1.992582 S    
C10   C34   1.388894 A    
C39   C41   1.412733 A    
C20   C24   1.434397 A    
N2    N4    1.251320 D    
C37   C39   1.424108 A    
C17   H11   1.077046 S    
O24   H28   1.013997 S    
C50   H16   1.082568 S    
C62   O24   1.399102 S    
C45   C47   1.398818 A    
C50   C52   1.410404 A    
O18   V4    1.986189 S    
C44   C46   1.399076 A    
C25   C27   1.389697 A    
O26   H29   1.012992 S    
C10   H6    1.084028 S    
O1    C3    1.301294 A    
C11   C33   1.393973 A    
N5    O29   1.301556 A    
C12   C34   1.393951 A    
C16   H14   1.082736 S    
C22   C36   1.437142 A    
C14   H10   1.084142 S    
C37   C47   1.406959 A    
O28   H30   1.009978 S    
V2    O20   1.703723 S    
C57   H21   1.083529 S    
O16   V4    2.002570 S    
C5    C55   1.491154 S    
C30   C64   1.465773 S    
C13   H9    1.084277 S    
C46   C48   1.398860 A    
N5    O30   1.301093 A    
C56   C58   1.407037 A    
C62   O23   1.223778 D    
N6    O31   1.301187 A    
O5    V1    1.994910 S    
C32   H8    1.078428 S    
O17   C7    1.302177 A    
O6    V2    1.995486 S    
O10   C6    1.299644 A    
O18   C8    1.300512 A    
C51   N5    1.441050 S    
C41   H23   1.083265 S    
O2    V4    1.987255 S    
C4    C37   1.495066 S    
C49   C51   1.413552 A    
C40   C62   1.484242 S    
C13   C15   1.386118 A    
C39   C61   1.484563 S    
O22   H27   1.013987 S    
V4    O20   2.156156 S    
N1    N3    1.251263 D    
C58   C60   1.400006 A    
C19   C23   1.434754 A    
O9    C5    1.298583 A    
O13   V1    2.155105 S    
C26   C28   1.390791 A    
O14   V2    2.151027 S    
O2    C4    1.300673 A    
C27   C29   1.392754 A    
C53   N3    1.434225 S    
O4    V2    1.991897 S    
C21   C29   1.421972 A    
V3    O19   2.152078 S    
C38   C48   1.407006 A    
H1    C33   1.083772 S    
H2    C34   1.083733 S    
O12   V4    1.998118 S    
C52   C56   1.420119 A    
H3    C27   1.086211 S    
C64   O27   1.221508 D    
