data_mof_unit_4011.cif
_audit_creation_date              2012-12-10T18:05:52-0500
_audit_creation_method            fapswitch 2.2
_symmetry_space_group_name_H-M    P1
_symmetry_Int_Tables_number       1
_space_group_crystal_system       triclinic
_cell_length_a                    18.950291
_cell_length_b                    18.909742
_cell_length_c                    18.619933
_cell_angle_alpha                 109.358631
_cell_angle_beta                  109.330666
_cell_angle_gamma                 109.64761
_cell_volume                      5141.2101906

loop_
_atom_site_label
_atom_site_type_symbol
_atom_type_description
_atom_site_fract_x
_atom_site_fract_y
_atom_site_fract_z
_atom_type_partial_charge
C1    C     C_R   0.120314 0.001897 0.619698 0.848512
C2    C     C_R   0.988633 0.979098 0.154930 -0.386753
C3    C     C_R   0.244064 0.244875 0.420632 0.420490
C4    C     C_R   0.315497 0.315051 0.501447 -0.244021
C5    C     C_R   0.322035 0.320937 0.581222 -0.081141
C6    C     C_R   0.251662 0.261871 0.579117 0.389608
C7    C     C_R   0.184151 0.186686 0.498545 -0.246607
C8    C     C_R   0.179788 0.178966 0.418835 -0.041855
C9    C     C_R   0.443011 0.359602 0.721218 -0.276593
C10   C     C_R   0.513387 0.420040 0.805569 0.578831
C11   C     C_R   0.544190 0.508766 0.837627 0.407216
C12   C     C_R   0.117929 0.118925 0.498913 0.849565
C13   C     C_R   0.502475 0.536328 0.784197 -0.335578
C14   C     C_R   0.432246 0.475721 0.699679 -0.193494
C15   C     C_R   0.401292 0.386827 0.667835 0.094367
C16   C     C_R   0.229368 0.958606 0.664727 -0.056558
C17   C     C_R   0.193009 0.009248 0.688259 -0.250578
C18   C     C_R   0.230346 0.068129 0.779042 0.454018
C19   C     C_R   0.290933 0.062682 0.842038 -0.265567
C20   C     C_R   0.317641 0.002839 0.815824 -0.170105
C21   C     C_R   0.291395 0.956450 0.727453 -0.015960
C22   C     C_3   0.257495 0.862768 0.668136 0.854339
C23   C     C_R   0.878939 0.997483 0.380793 0.813960
C24   C     C_3   0.187626 0.865150 0.598480 0.227042
C25   C     C_R   0.770267 0.729864 0.438261 0.102506
C26   C     C_R   0.814430 0.816487 0.501545 -0.195169
C27   C     C_R   0.790916 0.838769 0.566902 -0.263987
C28   C     C_R   0.725035 0.774534 0.566388 0.428509
C29   C     C_R   0.683432 0.686637 0.501017 -0.154397
C30   C     C_R   0.707750 0.668232 0.437799 -0.036571
C31   C     C_3   0.689249 0.597728 0.355898 -0.526840
C32   C     C_3   0.760174 0.668351 0.355961 0.348803
C33   C     C_R   0.803792 0.974468 0.232104 0.080253
C34   C     C_R   0.881048 0.881551 0.500201 0.813371
C35   C     C_R   0.809339 0.994674 0.313692 -0.312270
C36   C     C_R   0.751409 0.019039 0.331779 0.341073
C37   C     C_R   0.690794 0.023533 0.268107 0.512805
C38   C     C_R   0.684500 0.000047 0.185599 -0.286184
C39   C     C_R   0.743085 0.978356 0.169256 0.096185
C40   C     C_3   0.723050 0.897065 0.096482 -0.462329
C41   C     C_3   0.787382 0.891323 0.165431 -0.402725
C42   C     C_R   0.500725 0.618835 0.619395 0.791094
C43   C     C_R   0.381647 0.381655 0.500748 0.848891
C44   C     C_R   0.499358 0.380964 0.380698 0.809815
C45   C     C_R   0.047781 0.964364 0.206924 -0.363945
C46   C     C_R   0.618164 0.618452 0.499626 0.844554
C47   C     C_R   0.500833 0.118448 0.119862 0.888597
C48   C     C_R   0.381874 0.999648 0.880739 0.879329
C49   C     C_R   0.500612 0.881127 0.881822 0.803047
C50   C     C_R   0.618331 0.999187 0.118027 0.898569
C51   C     C_R   0.430730 0.667192 0.699297 0.028223
C52   C     C_R   0.502771 0.684593 0.688654 -0.138750
C53   C     C_R   0.580516 0.762387 0.753042 -0.212533
C54   C     C_R   0.580629 0.827626 0.817094 -0.217378
C55   C     C_R   0.503780 0.813263 0.819313 -0.054256
C56   C     C_R   0.109929 0.028673 0.295004 0.479382
C57   C     C_R   0.431548 0.729933 0.764433 0.028497
C58   C     C_3   0.339381 0.701246 0.707116 -0.446966
C59   C     C_3   0.338940 0.632567 0.635381 0.428814
C60   C     C_R   0.470054 0.300859 0.229543 -0.174141
C61   C     C_R   0.493738 0.309999 0.312725 -0.118156
C62   C     C_R   0.509348 0.247822 0.328871 -0.301482
C63   C     C_R   0.508485 0.181405 0.264357 0.443868
C64   C     C_R   0.499015 0.183183 0.186594 -0.123241
C65   C     C_R   0.475146 0.239940 0.168378 -0.193354
C66   C     C_3   0.511507 0.300176 0.138403 1.079345
C67   C     C_R   0.106865 0.105327 0.331622 -0.122553
C68   C     C_3   0.505181 0.367450 0.204762 0.204165
C69   C     C_R   0.043032 0.117372 0.279556 0.354624
C70   C     C_R   0.985842 0.054782 0.191012 0.608019
Cu1   Cu    Cu3+1 0.000020 0.938200 0.438220 0.960299
Cu2   Cu    Cu3+1 0.999980 0.061800 0.561780 0.948402
Cu3   Cu    Cu3+1 0.438190 0.500040 0.438260 0.980867
Cu4   Cu    Cu3+1 0.561780 0.500000 0.561820 0.964670
Cu5   Cu    Cu3+1 0.561810 0.061820 0.000020 1.061413
Cu6   Cu    Cu3+1 0.438190 0.938280 0.000080 0.965782
H1    H     H_    0.943969 0.931156 0.086421 0.204130
H2    H     H_    0.522768 0.604252 0.808536 0.176761
H3    H     H_    0.399935 0.497655 0.660001 0.191066
H4    H     H_    0.315572 0.103899 0.911181 0.186545
H5    H     H_    0.119386 0.829703 0.582294 0.012964
H6    H     H_    0.822512 0.905533 0.617777 0.186571
H7    H     H_    0.045927 0.903454 0.177666 0.177565
H8    H     H_    0.706188 0.550219 0.367675 0.218641
H9    H     H_    0.623608 0.570047 0.300843 0.188673
H10   H     H_    0.736239 0.682640 0.302102 0.051640
H11   H     H_    0.655406 0.843886 0.064087 0.185044
H12   H     H_    0.744451 0.909467 0.050891 0.226328
H13   H     H_    0.756836 0.835982 0.174649 0.187122
H14   H     H_    0.844738 0.897893 0.158639 0.215693
H15   H     H_    0.639569 0.774450 0.750744 0.185136
H16   H     H_    0.639698 0.889358 0.863100 0.167063
H17   H     H_    0.296976 0.674548 0.731766 0.225480
H18   H     H_    0.332892 0.750965 0.691480 0.243340
H19   H     H_    0.329933 0.640634 0.577054 0.106948
H20   H     H_    0.524190 0.252406 0.392047 0.157996
H21   H     H_    0.569390 0.422572 0.259203 0.086765
H22   H     H_    0.419749 0.291208 0.698019 0.189676
O1    O     O_R   0.090190 0.947810 0.538000 -0.567214
O2    O     O_R   0.552160 0.590170 0.642390 -0.578573
O3    O     O_R   0.357620 0.409850 0.447860 -0.528214
O4    O     O_R   0.461990 0.409820 0.552210 -0.595993
O5    O     O_R   0.447810 0.409860 0.357690 -0.588245
O6    O     O_R   0.552180 0.409830 0.462050 -0.590141
O7    O     O_R   0.537970 0.590210 0.447870 -0.601681
O8    O     O_R   0.642350 0.590180 0.552220 -0.569089
O9    O     O_R   0.552210 0.142430 0.090170 -0.532370
O10   O     O_R   0.447820 0.038100 0.090220 -0.591375
O11   O     O_R   0.462030 0.052220 0.909860 -0.558116
O12   O     O_R   0.090150 0.052180 0.642350 -0.558912
O13   O     O_R   0.357640 0.947890 0.909900 -0.600460
O14   O     O_R   0.552180 0.962000 0.909880 -0.587312
O15   O     O_R   0.447790 0.857670 0.909930 -0.592316
O16   O     O_R   0.642360 0.052210 0.090200 -0.580108
O17   O     O_R   0.537970 0.947880 0.090240 -0.572271
O18   O     O_R   0.090200 0.037990 0.447830 -0.541116
O19   O     O_R   0.090160 0.142360 0.552180 -0.607439
O20   O     O_R   0.909850 0.947820 0.357650 -0.602031
O21   O     O_R   0.909810 0.052190 0.462000 -0.564807
O22   O     O_R   0.909840 0.857640 0.447820 -0.579433
O23   O     O_R   0.909800 0.962010 0.552170 -0.598328
O24   O     O_R   0.447790 0.590200 0.538040 -0.597925
O25   O     O_3   0.610002 0.565955 0.923822 -0.579523
C71   C     C_3   0.678690 0.630753 0.928192 0.077831
H23   H     H_    0.663220 0.681569 0.924117 0.142350
H24   H     H_    0.692371 0.603438 0.874645 0.140656
C72   C     C_3   0.759808 0.672428 0.016211 -0.301406
H25   H     H_    0.748029 0.701596 0.070394 0.216207
H26   H     H_    0.774981 0.622108 0.022392 0.229629
C73   C     C_3   0.836853 0.742413 0.024565 -0.956229
H27   H     H_    0.853361 0.713522 0.974566 0.264809
H28   H     H_    0.893518 0.774520 0.090824 0.255540
H29   H     H_    0.821545 0.791550 0.015283 0.260130
O26   O     O_3   0.201937 0.124460 0.807959 -0.598612
C74   C     C_3   0.244428 0.200630 0.805783 0.058367
H30   H     H_    0.251824 0.187440 0.746469 0.174061
H31   H     H_    0.203145 0.230815 0.802445 0.170720
C75   C     C_3   0.332571 0.264802 0.889056 -0.325046
H32   H     H_    0.325331 0.270501 0.947047 0.259369
H33   H     H_    0.378194 0.240508 0.887579 0.270470
C76   C     C_3   0.370011 0.353941 0.897189 -0.808791
H34   H     H_    0.377424 0.349060 0.839433 0.275169
H35   H     H_    0.434426 0.398456 0.957400 0.296442
H36   H     H_    0.326974 0.381140 0.901463 0.224742
F1    F     F_    0.317342 0.853597 0.644639 -0.667442
O27   O     O_3   0.232595 0.808052 0.703127 -0.648579
C77   C     C_3   0.155742 0.793733 0.706306 -0.043507
H37   H     H_    0.098995 0.744502 0.639860 0.155958
H38   H     H_    0.153017 0.854457 0.730998 0.139713
C78   C     C_3   0.151452 0.757459 0.767813 -0.274592
H39   H     H_    0.153318 0.696244 0.743689 0.220661
H40   H     H_    0.208226 0.804511 0.834614 0.238969
C79   C     C_3   0.069081 0.739534 0.773088 -0.908264
H41   H     H_    0.066766 0.800297 0.798749 0.261749
H42   H     H_    0.067872 0.713173 0.818084 0.252067
H43   H     H_    0.011240 0.691355 0.707183 0.264670
O28   O     O_3   0.200021 0.857379 0.525880 -0.538898
C80   C     C_3   0.135558 0.776023 0.450186 0.093668
H44   H     H_    0.137037 0.780269 0.392590 0.149494
H45   H     H_    0.069344 0.760479 0.438953 0.126304
C81   C     C_3   0.153189 0.703311 0.453470 -0.331857
H46   H     H_    0.219404 0.720447 0.464335 0.256956
H47   H     H_    0.148911 0.695298 0.508620 0.227991
C82   C     C_3   0.088043 0.617318 0.368276 -0.924529
H48   H     H_    0.021528 0.597825 0.357311 0.256647
H49   H     H_    0.102882 0.566299 0.372403 0.276757
H50   H     H_    0.091404 0.622780 0.311761 0.253583
O29   O     O_3   0.702511 0.798987 0.630095 -0.617724
C83   C     C_3   0.626867 0.804271 0.595342 0.031770
H51   H     H_    0.574058 0.752767 0.592309 0.168535
H52   H     H_    0.603518 0.794269 0.527385 0.129986
C84   C     C_3   0.642817 0.892533 0.655932 -0.359808
H53   H     H_    0.670856 0.905857 0.724794 0.240399
H54   H     H_    0.689911 0.943666 0.652435 0.214686
C85   C     C_3   0.559201 0.895931 0.630112 -0.833284
H55   H     H_    0.530155 0.883587 0.561663 0.250264
H56   H     H_    0.573159 0.961032 0.674693 0.267525
H57   H     H_    0.512198 0.846827 0.635686 0.271686
O30   O     O_3   0.834487 0.659732 0.373259 -0.574884
C86   C     C_3   0.841457 0.631245 0.296757 0.042555
H58   H     H_    0.908709 0.644275 0.317761 0.154024
H59   H     H_    0.831921 0.668638 0.262673 0.122628
C87   C     C_3   0.779563 0.533599 0.234038 -0.335794
H60   H     H_    0.790367 0.498149 0.269894 0.248583
H61   H     H_    0.711551 0.519176 0.209017 0.239287
C88   C     C_3   0.793454 0.501473 0.155956 -0.815248
H62   H     H_    0.781804 0.535346 0.118508 0.251318
H63   H     H_    0.747617 0.430867 0.111673 0.295444
H64   H     H_    0.860442 0.513053 0.178740 0.237561
O31   O     O_3   0.754097 0.040740 0.411761 -0.567590
C89   C     C_3   0.717352 0.965040 0.416978 0.110232
H65   H     H_    0.742381 0.985306 0.487682 0.173095
H66   H     H_    0.736968 0.917385 0.390770 0.093673
C90   C     C_3   0.618540 0.921285 0.370526 -0.336669
H67   H     H_    0.599421 0.970324 0.392193 0.254231
H68   H     H_    0.591747 0.891641 0.298378 0.220585
C91   C     C_3   0.580121 0.851190 0.391521 -0.956205
H69   H     H_    0.600526 0.802388 0.373374 0.258227
H70   H     H_    0.508507 0.818215 0.354214 0.265737
H71   H     H_    0.601767 0.881077 0.462670 0.256553
F2    F     F_    0.636139 0.047864 0.285813 -0.640740
O32   O     O_3   0.171280 0.017655 0.349319 -0.584840
C92   C     C_3   0.210381 0.980464 0.307950 0.039382
H72   H     H_    0.281442 0.023272 0.350688 0.150424
H73   H     H_    0.195641 0.976081 0.243046 0.119662
C93   C     C_3   0.186502 0.891585 0.300337 -0.315996
H74   H     H_    0.209859 0.899338 0.367130 0.245561
H75   H     H_    0.115157 0.848947 0.262148 0.201518
C94   C     C_3   0.226791 0.848734 0.255469 -0.933700
H76   H     H_    0.202498 0.838253 0.187641 0.254885
H77   H     H_    0.209252 0.785037 0.252153 0.259337
H78   H     H_    0.298267 0.889870 0.293065 0.259487
F3    F     F_    0.286096 0.549624 0.615571 -0.674244
O33   O     O_3   0.529672 0.122887 0.281061 -0.549211
C95   C     C_3   0.478234 0.079478 0.309834 0.123671
H79   H     H_    0.449096 0.008832 0.266500 0.177581
H80   H     H_    0.423058 0.090901 0.304630 0.080568
C96   C     C_3   0.535429 0.103573 0.404248 -0.318954
H81   H     H_    0.592424 0.096362 0.409632 0.279580
H82   H     H_    0.559599 0.172246 0.450006 0.204823
C97   C     C_3   0.486309 0.046531 0.432417 -0.939435
H83   H     H_    0.430397 0.054712 0.429996 0.257843
H84   H     H_    0.529856 0.065409 0.500747 0.273933
H85   H     H_    0.463062 0.977397 0.388923 0.255316
F4    F     F_    0.595859 0.322697 0.158396 -0.679245
O34   O     O_3   0.040907 0.193636 0.310994 -0.545132
C98   C     C_3   0.017300 0.203032 0.376804 0.081216
H86   H     H_    0.075398 0.255005 0.441292 0.155198
H87   H     H_    0.991115 0.143044 0.381058 0.094590
C99   C     C_3   0.948615 0.229898 0.358796 -0.302453
H88   H     H_    0.972263 0.288403 0.352084 0.244754
H89   H     H_    0.888916 0.176634 0.296164 0.235596
C100  C     C_3   0.927366 0.249941 0.432819 -0.882138
H90   H     H_    0.904375 0.192790 0.441550 0.281256
H91   H     H_    0.875684 0.266902 0.416658 0.273619
H92   H     H_    0.985490 0.305506 0.495336 0.251896
F5    F     F_    0.457662 0.271822 0.051580 -0.696607
O35   O     O_3   0.450497 0.396523 0.166288 -0.588723
C101  C     C_3   0.361733 0.343379 0.134990 0.121860
H93   H     H_    0.350904 0.342135 0.189773 0.163822
H94   H     H_    0.337370 0.276214 0.084424 0.167434
C102  C     C_3   0.310829 0.380973 0.094713 -0.358206
H95   H     H_    0.329422 0.444712 0.147103 0.223742
H96   H     H_    0.326799 0.391552 0.045581 0.237059
C103  C     C_3   0.213687 0.320678 0.050313 -0.911314
H97   H     H_    0.193395 0.257516 0.995747 0.270138
H98   H     H_    0.178595 0.350375 0.023004 0.261880
H99   H     H_    0.196142 0.309676 0.098521 0.263905
F6    F     F_    0.927011 0.067447 0.139658 -0.644678
O36   O     O_3   0.233645 0.243187 0.342640 -0.568124
C104  C     C_3   0.271730 0.198931 0.307849 0.043245
H100  H     H_    0.262633 0.142287 0.317596 0.127944
H101  H     H_    0.342179 0.243716 0.340051 0.131985
C105  C     C_3   0.230376 0.167229 0.209398 -0.286641
H102  H     H_    0.158921 0.129555 0.178542 0.235304
H103  H     H_    0.247208 0.223981 0.199185 0.217266
C106  C     C_3   0.260184 0.109779 0.164318 -0.942644
H104  H     H_    0.331408 0.144485 0.195416 0.264728
H105  H     H_    0.232056 0.091779 0.094054 0.265998
H106  H     H_    0.238687 0.049677 0.168437 0.246352
O37   O     O_3   0.252588 0.275519 0.657498 -0.626010
C107  C     C_3   0.205231 0.317969 0.671988 0.085875
H107  H     H_    0.151273 0.302290 0.610233 0.135540
H108  H     H_    0.174952 0.294329 0.707286 0.165916
C108  C     C_3   0.263786 0.416409 0.728490 -0.365067
H109  H     H_    0.324614 0.433225 0.783383 0.234346
H110  H     H_    0.279248 0.442371 0.687031 0.263337
C109  C     C_3   0.219368 0.459267 0.766064 -0.875997
H111  H     H_    0.158169 0.443240 0.712221 0.262270
H112  H     H_    0.262524 0.530667 0.804118 0.266482
H113  H     H_    0.205213 0.437150 0.810545 0.242320
F7    F     F_    0.551270 0.392188 0.856915 -0.633493

loop_
_geom_bond_atom_site_label_1
_geom_bond_atom_site_label_2
_ccdc_geom_bond_type
C74   C75   S    
C49   O15   A    
C92   H72   S    
Cu5   Cu6   S    
Cu5   O9    S    
C16   C21   A    
C31   H9    S    
C62   H20   S    
Cu2   O23   S    
C83   H51   S    
C66   C68   S    
C35   C36   A    
C3    O36   S    
C24   H5    S    
C69   O34   S    
C94   H78   S    
C107  C108  S    
C43   O3    A    
C81   H46   S    
C44   O6    A    
O25   C71   S    
C85   H56   S    
C45   H7    S    
C53   C54   A    
C52   C53   A    
C92   H73   S    
C28   C29   A    
Cu5   O14   S    
C33   C39   A    
C50   O16   A    
Cu1   O22   S    
C36   O31   S    
C40   H11   S    
C71   H24   S    
C36   C37   A    
C77   H38   S    
C58   H17   S    
C50   O17   A    
C97   H85   S    
C95   H80   S    
C23   O21   A    
C5    C6    A    
C93   H75   S    
C104  H101  S    
C90   C91   S    
C56   O32   S    
C91   H69   S    
C46   O7    A    
C46   O8    A    
Cu6   O17   S    
Cu2   O21   S    
C99   C100  S    
C106  H104  S    
Cu3   Cu4   S    
C91   H70   S    
C68   H21   S    
C105  H103  S    
C80   C81   S    
C94   H77   S    
C54   C55   A    
Cu3   O7    S    
C26   C34   S    
O28   C80   S    
C77   H37   S    
C45   C56   A    
C84   H54   S    
C16   C17   A    
C78   C79   S    
Cu2   O19   S    
C53   H15   S    
C102  H96   S    
C22   F1    S    
C32   O30   S    
C18   O26   S    
C51   C57   A    
Cu6   O15   S    
C79   H42   S    
C29   C30   A    
C89   C90   S    
C108  H109  S    
C61   C62   A    
C86   C87   S    
Cu4   O4    S    
C25   C32   S    
Cu3   O3    S    
C90   H67   S    
C16   C24   S    
C10   F7    S    
C13   C14   A    
C80   H45   S    
C83   H52   S    
C1    O1    A    
C19   H4    S    
C23   C35   S    
C59   H19   S    
C72   H26   S    
C23   O20   A    
C81   H47   S    
C44   O5    A    
C86   H59   S    
C6    O37   S    
C94   H76   S    
C85   H57   S    
C57   C58   S    
C82   H50   S    
C101  H93   S    
C34   O22   A    
C7    C12   S    
C92   C93   S    
Cu2   O12   S    
Cu5   O11   S    
C102  C103  S    
C5    C15   S    
O32   C92   S    
C58   H18   S    
C51   C52   A    
C22   O27   S    
C74   H30   S    
C77   C78   S    
C38   C39   A    
C12   O18   A    
C104  H100  S    
C3    C8    A    
C10   C11   A    
C95   C96   S    
C47   C64   S    
C28   O29   S    
C93   H74   S    
C18   C19   A    
C104  C105  S    
Cu4   O2    S    
C105  C106  S    
C25   C26   A    
C49   C55   S    
Cu1   O1    S    
C76   H36   S    
C31   H8    S    
C89   H65   S    
C60   C61   A    
C106  H105  S    
C42   C52   S    
C37   C38   A    
C91   H71   S    
C73   H28   S    
C95   H79   S    
C89   H66   S    
C9    H22   S    
C54   H16   S    
C97   H83   S    
C42   O2    A    
C1    O12   A    
Cu4   O8    S    
C87   H61   S    
C100  H91   S    
C100  H92   S    
C96   H82   S    
C98   H86   S    
C14   C15   A    
C109  H113  S    
C30   C31   S    
C32   H10   S    
C48   O13   A    
C62   C63   A    
C59   F3    S    
C17   C18   A    
C26   C27   A    
C87   H60   S    
C101  H94   S    
Cu5   O16   S    
C20   C48   S    
C14   H3    S    
C109  H111  S    
C79   H43   S    
C99   H89   S    
C108  H110  S    
C70   F6    S    
C6    C7    A    
O30   C86   S    
C75   H33   S    
C49   O14   A    
O29   C83   S    
C98   H87   S    
C109  H112  S    
C60   C65   A    
Cu3   O24   S    
C34   O23   A    
C47   O9    A    
C55   C57   A    
C66   F5    S    
C80   H44   S    
C83   C84   S    
C78   H40   S    
C2    C45   A    
C58   C59   S    
C73   H29   S    
O31   C89   S    
C88   H63   S    
C3    C4    A    
C90   H68   S    
C39   C40   S    
C81   C82   S    
C84   H53   S    
C42   O24   A    
C96   C97   S    
Cu4   O6    S    
O27   C77   S    
C9    C10   A    
C25   C30   A    
C74   H31   S    
O35   C101  S    
C82   H48   S    
Cu1   O20   S    
C102  H95   S    
C41   H13   S    
C24   O28   S    
C27   H6    S    
C31   C32   S    
C11   O25   S    
O34   C98   S    
C103  H97   S    
C4    C5    A    
C75   C76   S    
C107  H108  S    
C84   C85   S    
C107  H107  S    
C38   C50   S    
C4    C43   S    
C44   C61   S    
C56   C67   A    
C19   C20   A    
O26   C74   S    
C1    C17   S    
C29   C46   S    
C87   C88   S    
C106  H106  S    
C33   C41   S    
C64   C65   A    
C40   H12   S    
C105  H102  S    
C76   H35   S    
C73   H27   S    
O36   C104  S    
C72   C73   S    
C99   H88   S    
C97   H84   S    
C85   H55   S    
C68   O35   S    
C76   H34   S    
C11   C13   A    
C93   C94   S    
C96   H81   S    
O37   C107  S    
C2    C70   A    
C88   H64   S    
Cu6   O13   S    
O33   C95   S    
C66   F4    S    
C82   H49   S    
C33   C35   A    
C103  H98   S    
Cu1   O18   S    
C48   O11   A    
C101  C102  S    
C22   C24   S    
C65   C66   S    
C63   O33   S    
C9    C15   A    
C69   C70   A    
C108  C109  S    
C43   O4    A    
C7    C8    A    
C75   H32   S    
C13   H2    S    
C63   C64   A    
Cu1   Cu2   S    
Cu3   O5    S    
C98   C99   S    
C51   C59   S    
C20   C21   A    
C60   C68   S    
C8    C67   S    
Cu6   O10   S    
C47   O10   A    
C103  H99   S    
C71   C72   S    
C27   C28   A    
C2    H1    S    
C37   F2    S    
C78   H39   S    
C40   C41   S    
C12   O19   A    
C67   C69   A    
C88   H62   S    
C21   C22   S    
C86   H58   S    
C72   H25   S    
C100  H90   S    
C41   H14   S    
C71   H23   S    
C79   H41   S    
