data_mof_unit_74.cif
_audit_creation_date              2012-12-10T20:49:45-0500
_audit_creation_method            fapswitch 2.2
_symmetry_space_group_name_H-M    P1
_symmetry_Int_Tables_number       1
_space_group_crystal_system       triclinic
_cell_length_a                    8.108576
_cell_length_b                    8.92612
_cell_length_c                    16.720273
_cell_angle_alpha                 90.101656
_cell_angle_beta                  84.447092
_cell_angle_gamma                 89.916785
_cell_volume                      1204.49940715

loop_
_atom_site_label
_atom_site_type_symbol
_atom_type_description
_atom_site_fract_x
_atom_site_fract_y
_atom_site_fract_z
_atom_type_partial_charge
C1    C     C_R   0.499919 0.782008 0.500027 0.938104
C2    C     C_R   0.499959 0.218006 0.500685 0.922199
C3    C     C_1   0.499831 0.934808 0.500292 -0.195872
C4    C     C_1   0.500018 0.065213 0.500535 -0.200819
C5    C     C_R   0.476201 0.502380 0.653653 0.844595
C6    C     C_R   0.523938 0.492810 0.346441 0.845282
C7    C     C_R   0.460325 0.479505 0.739597 -0.060610
C8    C     C_R   0.544972 0.450870 0.261995 -0.089348
C9    C     C_R   0.553579 0.563930 0.790603 0.150464
C10   C     C_R   0.461189 0.325144 0.232987 0.124105
C11   C     C_R   0.561744 0.513490 0.869007 -0.162581
C12   C     C_R   0.498747 0.283650 0.152373 -0.140055
C13   C     C_R   0.476836 0.383604 0.896574 0.155819
C14   C     C_R   0.613928 0.365217 0.102133 0.145408
C15   C     C_R   0.373602 0.309199 0.847746 -0.183986
C16   C     C_R   0.702630 0.482030 0.133078 -0.171398
C17   C     C_R   0.366241 0.356351 0.769239 -0.230338
C18   C     C_R   0.668393 0.524558 0.212619 -0.220305
C19   C     C_2   0.484758 0.332812 0.978870 -0.224102
C20   C     C_2   0.624113 0.347669 0.015028 -0.236634
H1    H     H_    0.303588 0.211715 0.869495 0.140330
H2    H     H_    0.792231 0.545488 0.094602 0.132627
H3    H     H_    0.436717 0.190363 0.127088 0.144829
H4    H     H_    0.633438 0.576768 0.908795 0.136690
H5    H     H_    0.736535 0.617045 0.235547 0.152475
H6    H     H_    0.293732 0.291855 0.730286 0.158772
H7    H     H_    0.738542 0.380547 0.980221 0.152484
H8    H     H_    0.368484 0.301472 0.012346 0.151025
N1    N     N_1   0.926360 0.500000 0.499990 -0.034954
N2    N     N_1   0.073640 0.500000 0.500010 -0.036695
O1    O     O_R   0.363150 0.714660 0.500000 -0.609134
O2    O     O_R   0.636850 0.285340 0.500000 -0.606972
O3    O     O_R   0.636850 0.714660 0.500000 -0.617560
O4    O     O_R   0.363150 0.285340 0.500000 -0.622390
O5    O     O_R   0.346950 0.500000 0.615800 -0.612425
O6    O     O_R   0.653050 0.500000 0.384200 -0.608593
O7    O     O_R   0.620700 0.500000 0.615800 -0.619143
O8    O     O_R   0.379300 0.500000 0.384200 -0.626996
Zn1   Zn    Zn3+2 0.317220 0.500000 0.500010 0.974246
Zn2   Zn    Zn3+2 0.682780 0.500000 0.499990 0.982064
C21   C     C_3   0.643692 0.707181 0.764303 -0.421536
C22   C     C_3   0.563585 0.843502 0.807824 -0.876369
H9    H     H_    0.431458 0.852555 0.795974 0.260914
H10   H     H_    0.571392 0.835411 0.873606 0.258385
H11   H     H_    0.628962 0.946843 0.785691 0.258128
H12   H     H_    0.775317 0.698620 0.777158 0.211520
H13   H     H_    0.643729 0.727792 0.698979 0.218383
C23   C     C_3   0.336974 0.236495 0.288706 -0.364468
C24   C     C_3   0.268713 0.093181 0.253954 -0.908455
H14   H     H_    0.194610 0.119962 0.203318 0.257403
H15   H     H_    0.371250 0.015130 0.233715 0.260923
H16   H     H_    0.186049 0.036116 0.301235 0.264834
H17   H     H_    0.398053 0.203222 0.342521 0.207816
H18   H     H_    0.229759 0.309855 0.308197 0.231915

loop_
_geom_bond_atom_site_label_1
_geom_bond_atom_site_label_2
_ccdc_geom_bond_type
C2    C4    S    
C21   H12   S    
C6    O8    A    
C15   C17   A    
N1    N2    T    
C20   H7    S    
C5    O7    A    
C11   C13   A    
C21   C22   S    
O5    Zn1   S    
C19   C20   D    
O1    Zn1   S    
C1    O1    A    
C24   H16   S    
C2    O4    A    
C6    O6    A    
O2    Zn2   S    
C21   H13   S    
C1    O3    A    
C23   H18   S    
C19   H8    S    
C9    C11   A    
C12   H3    S    
C23   H17   S    
C18   H5    S    
C22   H10   S    
C17   H6    S    
C10   C12   A    
N1    Zn2   S    
C16   C18   A    
C23   C24   S    
C12   C14   A    
N2    Zn1   S    
O7    Zn2   S    
C7    C9    A    
C13   C15   A    
C10   C23   S    
O8    Zn1   S    
C14   C16   A    
C15   H1    S    
O3    Zn2   S    
C22   H9    S    
C13   C19   S    
C3    C4    T    
C5    O5    A    
C11   H4    S    
O6    Zn2   S    
C14   C20   S    
C2    O2    A    
C24   H14   S    
C1    C3    S    
C5    C7    S    
C6    C8    S    
C7    C17   A    
C9    C21   S    
C8    C10   A    
C8    C18   A    
O4    Zn1   S    
C16   H2    S    
C24   H15   S    
C22   H11   S    
