data_mof_unit_4033.cif
_audit_creation_date              2012-12-11T14:06:37-0500
_audit_creation_method            fapswitch 2.2
_symmetry_space_group_name_H-M    P1
_symmetry_Int_Tables_number       1
_space_group_crystal_system       triclinic
_cell_length_a                    11.98584
_cell_length_b                    11.911924
_cell_length_c                    19.242471
_cell_angle_alpha                 89.701251
_cell_angle_beta                  90.015684
_cell_angle_gamma                 120.515861
_cell_volume                      2366.75458209

loop_
_atom_site_label
_atom_site_type_symbol
_atom_type_description
_atom_site_fract_x
_atom_site_fract_y
_atom_site_fract_z
_atom_type_partial_charge
C1    C     C_R   0.551501 0.477206 0.596622 0.545529
C2    C     C_R   0.452227 0.926840 0.121841 0.583187
C3    C     C_R   0.159015 0.562922 0.132941 0.605564
C4    C     C_R   0.473927 0.545588 0.120980 0.599828
C5    C     C_R   0.554267 0.476085 0.402212 0.538976
C6    C     C_R   0.550277 0.134603 0.395066 0.561141
C7    C     C_R   0.926030 0.449972 0.403929 0.542027
C8    C     C_1   0.111908 0.547617 0.847840 -0.010895
C9    C     C_1   0.453939 0.565517 0.847748 -0.009876
C10   C     C_1   0.480850 0.966529 0.859256 0.000016
C11   C     C_1   0.037807 0.515572 0.718583 -0.027806
C12   C     C_R   0.523670 0.076544 0.597019 0.551346
C13   C     C_1   0.485262 0.522798 0.718566 -0.027821
C14   C     C_1   0.500527 0.004968 0.726445 -0.031013
C15   C     C_1   0.080347 0.535863 0.787851 -0.033862
C16   C     C_1   0.465489 0.545492 0.787803 -0.033695
C17   C     C_1   0.493403 0.986783 0.798164 -0.036205
C18   C     C_1   0.992701 0.490181 0.661147 0.007208
C19   C     C_1   0.510214 0.502781 0.661144 0.006795
C20   C     C_1   0.507411 0.028397 0.665732 0.010892
C21   C     C_2   0.001259 0.500630 0.340969 -0.142489
C22   C     C_2   0.530307 0.493642 0.330860 -0.144563
C23   C     C_R   0.925587 0.448595 0.596604 0.541931
C24   C     C_2   0.536286 0.090329 0.324463 -0.139568
C25   C     C_2   0.132573 0.560078 0.206922 -0.073795
C26   C     C_2   0.495227 0.490165 0.182670 -0.078678
C27   C     C_2   0.508987 0.015852 0.179682 -0.074204
C28   C     C_2   0.133577 0.473596 0.251652 0.234151
C29   C     C_2   0.612816 0.539776 0.210786 0.219677
C30   C     C_2   0.450918 0.076690 0.207619 0.241301
C31   C     C_3   0.105713 0.265030 0.259443 0.014508
C32   C     C_3   0.187201 0.248037 0.315543 -0.277670
C33   C     C_3   0.105776 0.125060 0.358703 -0.473188
C34   C     C_2   0.090586 0.469833 0.324536 -0.159056
C35   C     C_3   0.752316 0.553114 0.125802 0.006793
C36   C     C_3   0.830719 0.642924 0.065647 -0.248872
C37   C     C_3   0.845907 0.566706 0.006593 -0.431798
C38   C     C_3   0.239240 0.034441 0.209474 0.005470
C39   C     C_3   0.153653 0.888130 0.198286 -0.254557
C40   C     C_3   0.027728 0.830399 0.239682 -0.480619
C41   C     C_2   0.623812 0.516934 0.284254 -0.128113
C42   C     C_2   0.493787 0.139958 0.275819 -0.179185
C43   C     C_R   0.452045 0.924914 0.929168 0.546543
C44   C     C_R   0.148506 0.558006 0.919161 0.536910
C45   C     C_R   0.443226 0.591553 0.919015 0.538903
Cr1   Cr    Cr6+3 0.468420 0.238090 0.499960 1.014152
Cr2   Cr    Cr6+3 0.761910 0.230330 0.499960 1.025732
Cr3   Cr    Cr6+3 0.769670 0.531580 0.499960 1.029427
Cr4   Cr    Cr6+3 0.515700 0.760130 0.026360 1.012595
Cr5   Cr    Cr6+3 0.239870 0.755570 0.026360 0.992484
Cr6   Cr    Cr6+3 0.244430 0.484300 0.026360 1.039472
H1    H     H_    0.084124 0.192675 0.217958 0.139026
H2    H     H_    0.780802 0.693386 0.045276 0.200330
H3    H     H_    0.927891 0.717812 0.084531 0.156822
H4    H     H_    0.894045 0.513664 0.025565 0.200814
H5    H     H_    0.905395 0.635073 0.964481 0.170925
H6    H     H_    0.749693 0.495531 0.984857 0.151536
H7    H     H_    0.186645 0.082352 0.190103 0.144887
H8    H     H_    0.254538 0.053511 0.266094 0.130900
H9    H     H_    0.130362 0.868562 0.142219 0.191671
H10   H     H_    0.208739 0.841540 0.215507 0.169036
H11   H     H_    0.048413 0.841171 0.296276 0.149065
H12   H     H_    0.008653 0.240225 0.279898 0.139418
H13   H     H_    0.967063 0.725012 0.228180 0.176064
H14   H     H_    0.972688 0.878975 0.225184 0.171117
H15   H     H_    0.117267 0.422937 0.364008 0.141525
H16   H     H_    0.714980 0.526654 0.301087 0.146436
H17   H     H_    0.474298 0.216988 0.289140 0.125084
H18   H     H_    0.109533 0.631337 0.224833 0.031105
H19   H     H_    0.410348 0.412483 0.208439 0.100678
H20   H     H_    0.595701 0.024124 0.202493 0.049148
H21   H     H_    0.968351 0.547563 0.304772 0.085173
H22   H     H_    0.439705 0.487016 0.316829 0.093208
H23   H     H_    0.268515 0.244544 0.290568 0.144756
H24   H     H_    0.552572 0.010301 0.314001 0.106941
H25   H     H_    0.231566 0.331993 0.351272 0.164317
H26   H     H_    0.034843 0.136017 0.390756 0.162289
H27   H     H_    0.169599 0.108287 0.393745 0.166864
H28   H     H_    0.052426 0.039497 0.324487 0.139193
H29   H     H_    0.663729 0.468028 0.103619 0.132694
H30   H     H_    0.810370 0.516224 0.151939 0.132392
O1    O     O_R   0.434830 0.101190 0.575190 -0.499995
O2    O     O_R   0.664850 0.560590 0.424150 -0.501868
O3    O     O_R   0.484380 0.363570 0.430280 -0.517709
O4    O     O_R   0.636430 0.120810 0.430280 -0.491761
O5    O     O_R   0.879190 0.515620 0.430280 -0.502127
O6    O     O_3   0.666667 0.333333 0.499980 -0.295267
O7    O     O_R   0.548200 0.655360 0.951320 -0.505991
O8    O     O_R   0.344640 0.892840 0.951320 -0.506742
O9    O     O_R   0.107160 0.451800 0.951320 -0.499486
O10   O     O_R   0.505020 0.871000 0.955840 -0.517991
O11   O     O_R   0.129000 0.634020 0.955840 -0.497820
O12   O     O_R   0.898810 0.333640 0.575190 -0.504528
O13   O     O_R   0.365980 0.494980 0.955840 -0.502591
O14   O     O_R   0.543640 0.655270 0.102360 -0.470704
O15   O     O_R   0.344730 0.888370 0.102360 -0.488713
O16   O     O_R   0.111630 0.456360 0.102360 -0.459915
O17   O     O_R   0.500790 0.870920 0.095850 -0.505228
O18   O     O_R   0.129080 0.629870 0.095850 -0.525674
O19   O     O_R   0.370130 0.499210 0.095850 -0.494740
O20   O     O_3   0.176224 0.390723 0.228734 -0.565525
O21   O     O_3   0.724088 0.624658 0.174115 -0.558781
O22   O     O_3   0.355542 0.085070 0.170532 -0.545436
O23   O     O_R   0.666360 0.565170 0.575190 -0.501450
O24   O     O_3   0.333333 0.666667 0.026340 -0.304008
O25   O     O_R   0.480130 0.360720 0.570290 -0.494712
O26   O     O_R   0.639280 0.119410 0.570290 -0.490021
O27   O     O_R   0.880590 0.519870 0.570290 -0.493418
O28   O     O_R   0.439410 0.104260 0.424150 -0.506491
O29   O     O_R   0.895740 0.335150 0.424150 -0.519754

loop_
_geom_bond_atom_site_label_1
_geom_bond_atom_site_label_2
_ccdc_geom_bond_type
Cr6   O16   S    
C11   C18   T    
C9    C45   S    
C24   C42   D    
C35   C36   S    
Cr4   O7    S    
C31   H1    S    
C35   O21   S    
Cr5   O15   S    
C34   H15   S    
C35   H30   S    
C44   O9    A    
C41   H16   S    
C25   C28   D    
Cr5   O18   S    
C43   O8    A    
C6    O4    A    
C31   O20   S    
C36   C37   S    
C9    C16   T    
Cr6   O9    S    
C32   H23   S    
C38   C39   S    
C5    O2    A    
C33   H27   S    
C22   C41   D    
C23   O27   A    
C10   C17   T    
Cr3   O23   S    
C35   H29   S    
C40   H11   S    
C36   H2    S    
Cr4   O17   S    
C38   H7    S    
C37   H5    S    
C11   C15   S    
C28   O20   S    
C5    C22   S    
C30   O22   S    
Cr5   O24   S    
C2    C27   S    
C44   O11   A    
C1    O25   A    
C28   C34   S    
Cr1   O1    S    
C27   C30   D    
C42   H17   S    
C14   C17   S    
Cr4   O10   S    
C45   O13   A    
C39   H10   S    
C1    C19   S    
C13   C19   T    
C21   H21   S    
C18   C23   S    
C14   C20   T    
C3    C25   S    
C45   O7    A    
C39   C40   S    
C5    O3    A    
C33   H28   S    
Cr4   O24   S    
C21   C34   D    
C7    C21   S    
C43   O10   A    
C23   O12   A    
Cr2   O6    S    
C38   O22   S    
C31   H12   S    
C4    O14   A    
C3    O16   A    
Cr5   O8    S    
C31   C32   S    
Cr6   O24   S    
C6    C24   S    
C12   C20   S    
Cr2   O12   S    
Cr3   O6    S    
C12   O1    A    
Cr4   O14   S    
C1    O23   A    
Cr1   O3    S    
Cr5   O11   S    
C8    C15   T    
Cr2   O26   S    
C40   H14   S    
C4    O19   A    
C26   H19   S    
C6    O28   A    
Cr3   O5    S    
C37   H4    S    
C13   C16   S    
C25   H18   S    
Cr2   O4    S    
C27   H20   S    
Cr1   O6    S    
Cr6   O19   S    
C29   C41   S    
C10   C43   S    
C8    C44   S    
C32   H25   S    
C12   O26   A    
C4    C26   S    
Cr3   O2    S    
C24   H24   S    
Cr2   O29   S    
C40   H13   S    
C7    O29   A    
C32   C33   S    
C2    O15   A    
C33   H26   S    
Cr3   O27   S    
C39   H9    S    
Cr1   O25   S    
C29   O21   S    
C36   H3    S    
Cr6   O13   S    
C38   H8    S    
C7    O5    A    
C3    O18   A    
C2    O17   A    
C26   C29   D    
Cr1   O28   S    
C30   C42   S    
C22   H22   S    
C37   H6    S    
