data_mof_unit_1276.cif
_audit_creation_date              2012-12-10T18:12:39-0500
_audit_creation_method            fapswitch 2.2
_symmetry_space_group_name_H-M    P1
_symmetry_Int_Tables_number       1
_space_group_crystal_system       triclinic
_cell_length_a                    12.79174
_cell_length_b                    13.030292
_cell_length_c                    15.711111
_cell_angle_alpha                 93.158381
_cell_angle_beta                  103.038673
_cell_angle_gamma                 82.016263
_cell_volume                      2525.71968986

loop_
_atom_site_label
_atom_site_type_symbol
_atom_type_description
_atom_site_fract_x
_atom_site_fract_y
_atom_site_fract_z
_atom_type_partial_charge
C1    C     C_R   0.438883 0.691201 0.489359 0.857451
C2    C     C_3   0.497902 0.505250 0.916516 0.096566
C3    C     C_3   0.437200 0.428197 0.011249 -0.196660
C4    C     C_3   0.493512 0.501345 0.081821 0.151346
C5    C     C_3   0.540791 0.413046 0.975621 0.258097
C6    C     C_3   0.598459 0.483644 0.047403 -0.205533
C7    C     C_1   0.501763 0.504596 0.826191 -0.072242
C8    C     C_1   0.492780 0.499442 0.172653 -0.043973
C9    C     C_R   0.669593 0.079504 0.654293 -0.249172
C10   C     C_R   0.595339 0.202659 0.539317 -0.084902
C11   C     C_R   0.314898 0.830577 0.401133 0.210847
C12   C     C_R   0.501465 0.500752 0.661665 0.877415
C13   C     C_R   0.292762 0.934349 0.377678 -0.210036
C14   C     C_R   0.359516 0.005439 0.420414 -0.229238
C15   C     C_R   0.445588 0.975305 0.492123 0.098157
C16   C     C_R   0.454064 0.876083 0.525731 0.044446
C17   C     C_R   0.523108 0.040341 0.532246 0.096136
C18   C     C_R   0.595299 0.012943 0.612894 0.148565
C19   C     C_R   0.589608 0.921161 0.652272 -0.223600
C20   C     C_R   0.518738 0.853830 0.609296 -0.208538
C21   C     C_R   0.531141 0.131608 0.493759 -0.258851
C22   C     C_R   0.668323 0.175888 0.618961 -0.016515
C23   C     C_R   0.560421 0.309562 0.514153 0.875452
C24   C     C_R   0.398416 0.800747 0.474549 -0.146062
C25   C     C_R   0.083737 0.380473 0.349734 -0.285216
C26   C     C_R   0.810285 0.610877 0.620177 0.282610
C27   C     C_R   0.919789 0.619444 0.653588 0.127233
C28   C     C_R   0.997533 0.565520 0.612867 0.114268
C29   C     C_R   0.964868 0.521088 0.528017 -0.075262
C30   C     C_R   0.852791 0.507965 0.497270 0.063499
C31   C     C_R   0.041068 0.482751 0.475850 0.005980
C32   C     C_R   0.006820 0.430560 0.395033 0.096661
C33   C     C_R   0.897415 0.425111 0.362358 -0.099807
C34   C     C_R   0.498374 0.499048 0.338211 0.898750
C35   C     C_R   0.825663 0.446318 0.418357 -0.037471
C36   C     C_R   0.150750 0.498521 0.497925 0.012841
C37   C     C_R   0.192058 0.385128 0.383688 0.007428
C38   C     C_3   0.449072 0.596214 0.024188 -0.186215
C39   C     C_3   0.552691 0.576973 0.987823 0.017002
C40   C     C_1   0.503448 0.502962 0.751089 -0.181605
C41   C     C_1   0.494403 0.498592 0.248346 -0.189976
C42   C     C_3   0.393555 0.522988 0.951576 -0.218824
H1    H     H_    0.482468 0.153072 0.430150 0.143653
H2    H     H_    0.340266 0.083791 0.397446 0.144853
H3    H     H_    0.227747 0.958699 0.322597 0.147330
H4    H     H_    0.512655 0.784765 0.642013 0.130974
H5    H     H_    0.252135 0.347488 0.349578 0.132354
H6    H     H_    0.061514 0.336087 0.289626 0.157591
H7    H     H_    0.181192 0.556979 0.544200 0.157114
H8    H     H_    0.411651 0.671976 0.046484 0.142572
H9    H     H_    0.682038 0.468027 0.087244 0.164584
H10   H     H_    0.390924 0.366199 0.022683 0.139496
H11   H     H_    0.310453 0.539411 0.910650 0.150640
H12   H     H_    0.640556 0.900914 0.715674 0.158459
H13   H     H_    0.724309 0.058769 0.716175 0.143730
N1    N     N_R   0.222180 0.444680 0.455580 -0.112630
N2    N     N_R   0.776980 0.554790 0.543960 -0.164188
O1    O     O_R   0.366730 0.627160 0.478790 -0.587934
O2    O     O_R   0.544830 0.662520 0.507160 -0.633491
O3    O     O_R   0.410960 0.482330 0.609040 -0.608643
O4    O     O_R   0.589060 0.517690 0.637410 -0.614384
O5    O     O_R   0.455170 0.337480 0.492840 -0.614293
O6    O     O_R   0.633270 0.372840 0.521210 -0.605162
O7    O     O_R   0.410940 0.482310 0.362590 -0.608983
O8    O     O_R   0.589040 0.517670 0.390960 -0.610141
Zn1   Zn    Zn3+2 0.381080 0.476390 0.481050 0.951582
Zn2   Zn    Zn3+2 0.618920 0.523610 0.518950 0.950027
C43   C     C_1   0.614932 0.658341 0.973399 0.152863
N3    N     N_1   0.664006 0.722507 0.961971 -0.221737
N4    N     N_2   0.256053 0.756151 0.348680 -0.285153
H14   H     H_    0.173573 0.778734 0.334152 0.220861
C44   C     C_3   0.295902 0.722036 0.271329 -0.745725
H15   H     H_    0.255562 0.655020 0.240158 0.244010
H16   H     H_    0.384631 0.697595 0.288650 0.234144
H17   H     H_    0.278279 0.785697 0.223801 0.220224
C45   C     C_1   0.860009 0.385087 0.273622 0.159636
N5    N     N_1   0.830816 0.352863 0.203454 -0.239822
N6    N     N_2   0.735345 0.659939 0.669019 -0.295507
H18   H     H_    0.658015 0.680111 0.636507 0.269574
C46   C     C_3   0.749035 0.631771 0.759430 -0.687139
H19   H     H_    0.669530 0.624786 0.773975 0.230738
H20   H     H_    0.783679 0.694015 0.803357 0.251215
H21   H     H_    0.802297 0.556919 0.773846 0.242975
N7    N     N_2   0.106696 0.547950 0.661289 -0.326065
H22   H     H_    0.136869 0.610804 0.696124 0.225714
C47   C     C_3   0.134658 0.452387 0.708642 -0.777167
H23   H     H_    0.222502 0.442217 0.739305 0.242330
H24   H     H_    0.117093 0.385252 0.663406 0.259455
H25   H     H_    0.088238 0.454392 0.760695 0.231949
N8    N     N_2   0.950749 0.680304 0.731160 -0.301133
H26   H     H_    0.015461 0.647618 0.777546 0.229555
C48   C     C_3   0.953933 0.788168 0.716071 -0.792572
H27   H     H_    0.971844 0.830903 0.779692 0.238280
H28   H     H_    0.874321 0.823699 0.677793 0.259748
H29   H     H_    0.018077 0.795481 0.680228 0.232606
C49   C     C_1   0.751428 0.370171 0.403137 0.307357
N9    N     N_1   0.696818 0.304986 0.383842 -0.238266
N10   N     N_2   0.589489 0.314784 0.945647 -0.303352
H30   H     H_    0.543320 0.286998 0.888822 0.227233
C50   C     C_3   0.626756 0.237295 0.011834 -0.767767
H31   H     H_    0.668397 0.167339 0.983974 0.241877
H32   H     H_    0.557191 0.215108 0.034862 0.230516
H33   H     H_    0.685115 0.267085 0.067948 0.265581
C51   C     C_1   0.735941 0.248255 0.668594 0.186870
N11   N     N_1   0.790019 0.306348 0.708322 -0.200072

loop_
_geom_bond_atom_site_label_1
_geom_bond_atom_site_label_2
_ccdc_geom_bond_type
C3    C42   S    
C28   N7    S    
C39   C43   S    
C19   C20   A    
C4    C8    S    
C11   N4    S    
C35   C49   S    
C10   C22   A    
C26   C27   A    
C26   N6    S    
C30   C35   A    
C48   H27   S    
C28   C29   A    
N7    C47   S    
C38   C42   S    
C1    O2    A    
C42   H11   S    
C5    C6    S    
C47   H24   S    
C9    C22   A    
C15   C16   A    
C30   N2    A    
C11   C24   A    
C22   C51   S    
C27   N8    S    
C18   C19   A    
C50   H31   S    
C25   C37   A    
C21   H1    S    
C37   N1    A    
N7    H22   S    
O1    Zn1   S    
C23   O5    A    
C2    C7    S    
C43   N3    T    
O8    Zn2   S    
C7    C40   T    
N4    H14   S    
C9    H13   S    
C6    H9    S    
C37   H5    S    
C31   C36   A    
O2    Zn2   S    
C25   C32   A    
C23   O6    A    
O3    Zn1   S    
C16   C24   A    
C13   C14   A    
C34   C41   S    
N2    Zn2   S    
C44   H17   S    
C2    C39   S    
C34   O8    A    
C34   O7    A    
C51   N11   T    
C10   C21   A    
O6    Zn2   S    
O5    Zn1   S    
C8    C41   T    
C44   H16   S    
C47   H23   S    
C46   H19   S    
C50   H33   S    
C17   C21   A    
O7    Zn1   S    
C12   C40   S    
C29   C30   A    
C36   N1    A    
O4    Zn2   S    
C33   C45   S    
N8    C48   S    
C31   C32   A    
C14   C15   A    
C16   C20   A    
C49   N9    T    
C48   H28   S    
C17   C18   A    
C45   N5    T    
C25   H6    S    
C19   H12   S    
C4    C6    S    
C4    C38   S    
N10   C50   S    
C2    C5    S    
C3    C4    S    
C14   H2    S    
C50   H32   S    
C15   C17   A    
N6    H18   S    
C44   H15   S    
C3    C5    S    
C47   H25   S    
C3    H10   S    
C38   H8    S    
C10   C23   S    
C32   C33   A    
C29   C31   A    
C1    O1    A    
C13   H3    S    
C12   O4    A    
C11   C13   A    
N8    H26   S    
C38   C39   S    
C2    C42   S    
N1    Zn1   S    
C46   H21   S    
C33   C35   A    
C46   H20   S    
N6    C46   S    
C48   H29   S    
C26   N2    A    
C12   O3    A    
C9    C18   A    
C5    N10   S    
C1    C24   S    
N10   H30   S    
C27   C28   A    
C6    C39   S    
N4    C44   S    
C20   H4    S    
C36   H7    S    
