data_mof_unit_1112.cif
_audit_creation_date              2012-12-10T17:22:56-0500
_audit_creation_method            fapswitch 2.2
_symmetry_space_group_name_H-M    P1
_symmetry_Int_Tables_number       1
_space_group_crystal_system       triclinic
_cell_length_a                    10.158554
_cell_length_b                    10.534408
_cell_length_c                    10.565357
_cell_angle_alpha                 91.144614
_cell_angle_beta                  94.146769
_cell_angle_gamma                 81.646064
_cell_volume                      1115.66818697

loop_
_atom_site_label
_atom_site_type_symbol
_atom_type_description
_atom_site_fract_x
_atom_site_fract_y
_atom_site_fract_z
_atom_type_partial_charge
C1    C     C_R   0.446123 0.514997 0.266282 0.910817
C2    C     C_3   0.498803 0.123095 0.498081 -0.019764
C3    C     C_3   0.626943 0.941467 0.491043 -0.211379
C4    C     C_3   0.373592 0.058881 0.505818 -0.150020
C5    C     C_2   0.421074 0.543426 0.132475 -0.439705
C6    C     C_2   0.578301 0.530409 0.868606 -0.321479
C7    C     C_2   0.503963 0.606754 0.071685 -0.083153
C8    C     C_2   0.488448 0.608767 0.934255 0.033136
C9    C     C_2   0.072990 0.488876 0.489155 -0.114504
C10   C     C_2   0.926928 0.511393 0.510613 -0.106782
C11   C     C_2   0.341153 0.925621 0.287679 0.344425
C12   C     C_R   0.553709 0.502941 0.733936 0.993951
C13   C     C_2   0.661903 0.066705 0.711387 0.382683
C14   C     C_2   0.369441 0.694838 0.879809 0.402172
C15   C     C_2   0.603580 0.681190 0.136858 0.449580
C16   C     C_R   0.499090 0.257620 0.498216 0.932290
C17   C     C_R   0.500730 0.742585 0.500350 0.894759
C18   C     C_3   0.548550 0.033302 0.389979 -0.281032
C19   C     C_3   0.452134 0.967431 0.606866 -0.208026
C20   C     C_3   0.424466 0.966813 0.399410 0.028804
C21   C     C_3   0.576274 0.033431 0.597575 0.016503
C22   C     C_3   0.501657 0.877304 0.499228 -0.020672
H1    H     H_    0.586623 0.064229 0.301389 0.162352
H2    H     H_    0.119250 0.619237 0.616319 0.185297
H3    H     H_    0.372567 0.933285 0.192516 0.056538
H4    H     H_    0.713027 0.990696 0.772274 0.084367
H5    H     H_    0.286000 0.723818 0.937755 0.075716
H6    H     H_    0.602054 0.703241 0.237278 0.079939
H7    H     H_    0.413739 0.943168 0.697253 0.203832
H8    H     H_    0.730164 0.890644 0.485858 0.169093
H9    H     H_    0.270242 0.109422 0.510875 0.166041
H10   H     H_    0.667359 0.479216 0.917914 0.170765
H11   H     H_    0.339647 0.504200 0.080362 0.157030
H12   H     H_    0.890413 0.582950 0.579915 0.161686
H13   H     H_    0.109454 0.417469 0.419698 0.160209
H14   H     H_    0.880833 0.380629 0.383848 0.173260
N1    N     N_2   0.157310 0.552180 0.551120 -0.175651
N2    N     N_2   0.842690 0.447820 0.448880 -0.186659
O1    O     O_R   0.568940 0.489500 0.307530 -0.622446
O2    O     O_2   0.674345 0.178006 0.736660 -0.569233
O3    O     O_2   0.365788 0.740375 0.774481 -0.593034
O4    O     O_2   0.686638 0.722257 0.077130 -0.572799
O5    O     O_R   0.431060 0.510500 0.692470 -0.576192
O6    O     O_R   0.348880 0.522990 0.340350 -0.591239
O7    O     O_R   0.651120 0.477010 0.659650 -0.585926
O8    O     O_R   0.610000 0.297210 0.483560 -0.580172
O9    O     O_R   0.390000 0.702790 0.516440 -0.532210
O10   O     O_R   0.389940 0.330700 0.516390 -0.640867
O11   O     O_R   0.610060 0.669300 0.483610 -0.660975
O12   O     O_2   0.239195 0.881161 0.303318 -0.536461
Zn1   Zn    Zn3+2 0.646930 0.477640 0.478080 0.974076
Zn2   Zn    Zn3+2 0.353070 0.522360 0.521920 1.011060

loop_
_geom_bond_atom_site_label_1
_geom_bond_atom_site_label_2
_ccdc_geom_bond_type
C3    H8    S    
O1    Zn1   S    
O9    Zn2   S    
C14   H5    S    
C2    C18   S    
C2    C16   S    
C9    C10   S    
C3    C22   S    
C1    O6    A    
C2    C4    S    
C17   C22   S    
C10   N2    D    
O6    Zn2   S    
C2    C21   S    
C9    N1    D    
H2    N1    S    
C13   C21   S    
C7    C8    S    
C10   H12   S    
C11   O12   D    
C16   O10   A    
C15   H6    S    
C14   O3    D    
C1    C5    S    
C6    C8    D    
H14   N2    S    
C19   C21   S    
C20   C22   S    
O5    Zn2   S    
C12   O5    A    
C18   C20   S    
C6    C12   S    
C11   C20   S    
C13   H4    S    
C3    C21   S    
C4    H9    S    
C1    O1    A    
O7    Zn1   S    
C16   O8    A    
C18   H1    S    
C4    C20   S    
O10   Zn2   S    
C19   C22   S    
C3    C18   S    
C5    C7    D    
C6    H10   S    
C17   O11   A    
C9    H13   S    
N1    Zn2   S    
C11   H3    S    
C13   O2    D    
C8    C14   S    
N2    Zn1   S    
C7    C15   S    
C4    C19   S    
O8    Zn1   S    
C17   O9    A    
C15   O4    D    
C5    H11   S    
C12   O7    A    
O11   Zn1   S    
C19   H7    S    
