data_mof_unit_4153.cif
_audit_creation_date              2012-12-10T16:57:15-0500
_audit_creation_method            fapswitch 2.2
_symmetry_space_group_name_H-M    P1
_symmetry_Int_Tables_number       1
_space_group_crystal_system       triclinic
_cell_length_a                    15.865369
_cell_length_b                    10.91135
_cell_length_c                    9.741627
_cell_angle_alpha                 90.175801
_cell_angle_beta                  89.921545
_cell_angle_gamma                 90.096356
_cell_volume                      1686.386428

loop_
_atom_site_label
_atom_site_type_symbol
_atom_type_description
_atom_site_fract_x
_atom_site_fract_y
_atom_site_fract_z
_atom_type_partial_charge
C1    C     C_R   0.500798 0.265463 0.499831 0.854912
C2    C     C_3   0.951019 0.476889 0.647264 -0.383748
C3    C     C_3   0.917333 0.495718 0.499537 0.313304
C4    C     C_3   0.951426 0.619456 0.444347 -0.377267
C5    C     C_3   0.049075 0.620872 0.446632 -0.415363
C6    C     C_1   0.825082 0.496537 0.499661 -0.109629
C7    C     C_1   0.175347 0.499535 0.501274 -0.114976
C8    C     C_1   0.250855 0.500301 0.500853 -0.180727
C9    C     C_2   0.496277 0.932747 0.387174 -0.168262
C10   C     C_2   0.493252 0.866669 0.502803 -0.317252
C11   C     C_2   0.491907 0.066781 0.387636 -0.172401
C12   C     C_R   0.340406 0.500264 0.500224 0.832346
C13   C     C_2   0.505357 0.133369 0.501251 -0.298492
C14   C     C_2   0.451452 0.429663 0.925671 0.035323
C15   C     C_2   0.441885 0.447427 0.078660 -0.133875
C16   C     C_R   0.498534 0.734549 0.500278 0.845138
C17   C     C_R   0.659698 0.499615 0.499875 0.826118
C18   C     C_3   0.048663 0.479916 0.648332 -0.383347
C19   C     C_3   0.049269 0.393138 0.403341 -0.110537
C20   C     C_3   0.950949 0.390442 0.407201 -0.409388
C21   C     C_1   0.749458 0.497945 0.499733 -0.183420
C22   C     C_3   0.083135 0.496741 0.500500 0.294980
Cu1   Cu    Cu3+1 0.500020 0.500020 0.638630 0.942306
Cu2   Cu    Cu3+1 0.499980 0.499980 0.361370 0.940109
H1    H     H_    0.928375 0.387790 0.688647 0.154390
H2    H     H_    0.070265 0.557317 0.714267 0.158341
H3    H     H_    0.926403 0.550160 0.716163 0.161152
H4    H     H_    0.928955 0.634231 0.337484 0.161682
H5    H     H_    0.500766 0.887804 0.287800 0.177688
H6    H     H_    0.484615 0.908121 0.602859 0.148753
H7    H     H_    0.478759 0.111309 0.290385 0.163126
H8    H     H_    0.521972 0.092276 0.598409 0.146209
H9    H     H_    0.386281 0.410555 0.128791 0.160111
H10   H     H_    0.074021 0.395415 0.695869 0.154990
H11   H     H_    0.557162 0.512115 0.108865 0.209027
H12   H     H_    0.066504 0.421144 0.296915 0.112550
H13   H     H_    0.926144 0.301242 0.444458 0.161523
H14   H     H_    0.926179 0.401467 0.301053 0.149663
H15   H     H_    0.071414 0.697396 0.513237 0.168585
H16   H     H_    0.073429 0.638886 0.341371 0.159001
H17   H     H_    0.927061 0.696477 0.508148 0.165087
N1    N     N_2   0.499090 0.498660 0.846910 -0.242182
N2    N     N_2   0.499070 0.498630 0.153040 -0.280116
O1    O     O_R   0.500010 0.321960 0.617040 -0.572751
O2    O     O_R   0.499990 0.321920 0.382900 -0.577256
O3    O     O_R   0.379450 0.500030 0.617120 -0.580327
O4    O     O_R   0.379420 0.499980 0.382980 -0.578160
O5    O     O_R   0.500010 0.678080 0.617100 -0.583428
O6    O     O_R   0.499990 0.678040 0.382960 -0.564308
O7    O     O_R   0.620580 0.500020 0.617020 -0.586910
O8    O     O_R   0.620550 0.499970 0.382880 -0.576373
C23   C     C_R   0.402526 0.327012 0.867619 0.191958
C24   C     C_R   0.437682 0.209125 0.861738 -0.133329
C25   C     C_R   0.389892 0.110616 0.812414 -0.181301
C26   C     C_R   0.306381 0.128599 0.771900 -0.101910
C27   C     C_R   0.270097 0.244888 0.782261 -0.143367
C28   C     C_R   0.317586 0.343517 0.831963 -0.147751
H18   H     H_    0.502206 0.193969 0.893605 0.114686
H19   H     H_    0.417652 0.020426 0.805112 0.130250
H20   H     H_    0.269626 0.052161 0.733805 0.127502
H21   H     H_    0.205097 0.258488 0.752552 0.135853
H22   H     H_    0.288432 0.432835 0.841743 0.119477
C29   C     C_R   0.521058 0.618318 0.894983 0.319520
C30   C     C_R   0.605758 0.655536 0.894621 -0.165366
C31   C     C_R   0.627767 0.773833 0.937312 -0.168284
C32   C     C_R   0.565339 0.856085 0.979423 -0.125349
C33   C     C_R   0.480711 0.820533 0.977911 -0.190476
C34   C     C_R   0.458340 0.702848 0.934045 -0.122005
H23   H     H_    0.654679 0.592353 0.863230 0.135783
H24   H     H_    0.693274 0.801659 0.938020 0.130224
H25   H     H_    0.582487 0.947448 0.012928 0.123965
H26   H     H_    0.432405 0.884283 0.010410 0.128615
H27   H     H_    0.392436 0.677013 0.931117 0.110208
C35   C     C_R   0.089897 0.267968 0.427469 0.137366
C36   C     C_R   0.065606 0.191084 0.536752 -0.153707
C37   C     C_R   0.105746 0.078645 0.557357 -0.168997
C38   C     C_R   0.170757 0.041524 0.470028 -0.115959
C39   C     C_R   0.195695 0.116656 0.361609 -0.116328
C40   C     C_R   0.155478 0.228837 0.340027 -0.159055
H28   H     H_    0.015527 0.217005 0.606179 0.117603
H29   H     H_    0.086594 0.020374 0.641573 0.120173
H30   H     H_    0.201956 0.954680 0.486623 0.117400
H31   H     H_    0.246392 0.088114 0.294307 0.125815
H32   H     H_    0.176435 0.285969 0.255868 0.110865

loop_
_geom_bond_atom_site_label_1
_geom_bond_atom_site_label_2
_ccdc_geom_bond_type
C26   C27   A    
C2    C18   S    
C13   H8    S    
C19   C20   S    
C18   H2    S    
C3    C6    S    
C17   O8    A    
C7    C8    T    
C38   C39   A    
Cu1   N1    S    
Cu2   O2    S    
C19   H12   S    
C40   H32   S    
C4    H17   S    
C31   H24   S    
C27   C28   A    
C33   H26   S    
C25   C26   A    
C39   H31   S    
C14   C23   S    
C5    C22   S    
Cu1   Cu2   S    
C2    H3    S    
H11   N2    S    
C36   H28   S    
C9    H5    S    
C14   N1    D    
Cu2   O8    S    
C32   C33   A    
C11   H7    S    
Cu1   O3    S    
C26   H20   S    
C16   O5    A    
C12   O4    A    
C4    H4    S    
C25   H19   S    
C18   H10   S    
C35   C36   A    
C33   C34   A    
C28   H22   S    
C19   C22   S    
C16   O6    A    
C12   O3    A    
C39   C40   A    
Cu1   O7    S    
C34   H27   S    
C24   C25   A    
C6    C21   T    
C17   C21   S    
Cu1   O1    S    
C37   H29   S    
C36   C37   A    
C20   H14   S    
C10   H6    S    
C1    O1    A    
C32   H25   S    
C8    C12   S    
C3    C20   S    
C27   H21   S    
C30   H23   S    
C37   C38   A    
C9    C11   S    
C35   C40   A    
C5    H15   S    
C1    C13   S    
C3    C4    S    
C23   C24   A    
C9    C10   D    
Cu2   O6    S    
C29   C34   A    
Cu1   O5    S    
C18   C22   S    
Cu2   O4    S    
C19   C35   S    
C4    C5    S    
C17   O7    A    
C24   H18   S    
C7    C22   S    
C30   C31   A    
C2    C3    S    
C15   N2    D    
C10   C16   S    
C20   H13   S    
C11   C13   D    
C1    O2    A    
C38   H30   S    
C2    H1    S    
C23   C28   A    
C29   C30   A    
C31   C32   A    
C5    H16   S    
Cu2   N2    S    
C14   C15   S    
N1    C29   S    
C15   H9    S    
