data_mof_unit_2209.cif
_audit_creation_date              2012-12-10T18:42:38-0500
_audit_creation_method            fapswitch 2.2
_symmetry_space_group_name_H-M    P1
_symmetry_Int_Tables_number       1
_space_group_crystal_system       triclinic
_cell_length_a                    10.844541
_cell_length_b                    15.141339
_cell_length_c                    13.845635
_cell_angle_alpha                 90.023299
_cell_angle_beta                  89.824375
_cell_angle_gamma                 90.069766
_cell_volume                      2273.45278432

loop_
_atom_site_label
_atom_site_type_symbol
_atom_type_description
_atom_site_fract_x
_atom_site_fract_y
_atom_site_fract_z
_atom_type_partial_charge
C1    C     C_R   0.498740 0.329829 0.499997 0.801546
C2    C     C_R   0.498860 0.670052 0.500025 0.769082
C3    C     C_R   0.871341 0.498606 0.501109 -0.253202
C4    C     C_R   0.128335 0.502403 0.502027 -0.252228
C5    C     C_R   0.936127 0.445079 0.567121 -0.170011
C6    C     C_R   0.063350 0.555681 0.436028 -0.168015
C7    C     C_R   0.516439 0.094972 0.585540 -0.185898
C8    C     C_R   0.535923 0.904778 0.418836 -0.191120
C9    C     C_R   0.516393 0.186704 0.585784 -0.179252
C10   C     C_R   0.536424 0.813059 0.418505 -0.213172
C11   C     C_R   0.495285 0.233353 0.500066 -0.017157
C12   C     C_R   0.496425 0.766315 0.500019 -0.023506
C13   C     C_R   0.469909 0.187151 0.414649 -0.192537
C14   C     C_R   0.452699 0.812103 0.581044 -0.207938
C15   C     C_R   0.466540 0.095386 0.414899 -0.174116
C16   C     C_R   0.448973 0.903848 0.580492 -0.175750
C17   C     C_R   0.491248 0.048379 0.500106 0.111230
C18   C     C_R   0.491759 0.951111 0.499739 0.110525
C19   C     C_R   0.466122 0.575477 0.107322 -0.292820
C20   C     C_R   0.459026 0.426155 0.892672 -0.309511
C21   C     C_R   0.466171 0.573995 0.208984 0.094120
C22   C     C_R   0.459265 0.427670 0.791036 0.064174
C23   C     C_R   0.262226 0.500658 0.500375 0.880695
C24   C     C_R   0.737637 0.498304 0.500091 0.855961
C25   C     C_R   0.534897 0.426197 0.208818 0.084814
C26   C     C_R   0.542266 0.571858 0.790888 0.055374
C27   C     C_R   0.534643 0.424587 0.107150 -0.288706
C28   C     C_R   0.542238 0.573406 0.892544 -0.292898
C29   C     C_R   0.500187 0.499955 0.054391 0.132553
C30   C     C_R   0.500336 0.499869 0.945441 0.133030
C31   C     C_R   0.235655 0.755851 0.342849 -0.133951
C32   C     C_R   0.814291 0.225591 0.656827 -0.150342
C33   C     C_R   0.185860 0.693162 0.406022 -0.168015
C34   C     C_R   0.868953 0.289736 0.597989 -0.112838
C35   C     C_R   0.126914 0.617658 0.369453 0.192962
C36   C     C_R   0.872252 0.378271 0.627861 0.182286
C37   C     C_R   0.120086 0.605064 0.269120 -0.044480
C38   C     C_R   0.819934 0.401792 0.717268 -0.089554
C39   C     C_R   0.171151 0.667490 0.206234 -0.183020
C40   C     C_R   0.764916 0.337536 0.775685 -0.146019
C41   C     C_R   0.228408 0.743037 0.243071 -0.163974
C42   C     C_R   0.762539 0.249446 0.745671 -0.156680
C43   C     C_R   0.934578 0.554925 0.437278 0.396218
C44   C     C_R   0.065076 0.449670 0.569967 0.396638
Cu1   Cu    Cu3+1 0.500000 0.499990 0.596430 0.936204
Cu2   Cu    Cu3+1 0.500000 0.500010 0.403570 0.963077
H1    H     H_    0.267294 0.791559 0.194320 0.126880
H2    H     H_    0.720065 0.199708 0.791013 0.122591
H3    H     H_    0.443721 0.061410 0.348496 0.120137
H4    H     H_    0.411574 0.937594 0.642964 0.123522
H5    H     H_    0.437712 0.635106 0.070494 0.125847
H6    H     H_    0.424856 0.368031 0.929616 0.132631
H7    H     H_    0.438865 0.632657 0.247677 0.141245
H8    H     H_    0.426030 0.370567 0.752253 0.135442
H9    H     H_    0.563983 0.367841 0.247297 0.118436
H10   H     H_    0.576926 0.628595 0.752015 0.122597
H11   H     H_    0.563487 0.365070 0.070123 0.124594
H12   H     H_    0.576855 0.631360 0.929444 0.129729
H13   H     H_    0.278703 0.814840 0.371206 0.152061
H14   H     H_    0.811947 0.157366 0.633541 0.137559
H15   H     H_    0.190471 0.704416 0.483189 0.103893
H16   H     H_    0.909493 0.270450 0.529588 0.127271
H17   H     H_    0.074087 0.547500 0.239831 0.129508
H18   H     H_    0.822163 0.469735 0.741703 0.115687
H19   H     H_    0.165731 0.657568 0.128950 0.131732
H20   H     H_    0.724728 0.355972 0.844433 0.136053
H21   H     H_    0.537863 0.060749 0.652021 0.119482
H22   H     H_    0.571444 0.939203 0.356134 0.125509
H23   H     H_    0.534541 0.221048 0.652811 0.153095
H24   H     H_    0.569039 0.778704 0.354850 0.151639
H25   H     H_    0.451281 0.221841 0.347871 0.141571
H26   H     H_    0.419436 0.776987 0.644126 0.141133
N1    N     N_R   0.500000 0.500020 0.258690 -0.169523
N2    N     N_R   0.500000 0.499980 0.741310 -0.171193
O1    O     O_R   0.500010 0.371450 0.581430 -0.584906
O2    O     O_R   0.499990 0.628550 0.418570 -0.589243
O3    O     O_R   0.500010 0.371460 0.418560 -0.608886
O4    O     O_R   0.499990 0.628540 0.581440 -0.607349
O5    O     O_R   0.319640 0.500000 0.581430 -0.575689
O6    O     O_R   0.680360 0.500000 0.418570 -0.537079
O7    O     O_R   0.319640 0.500010 0.418560 -0.579200
O8    O     O_R   0.680360 0.499990 0.581440 -0.595277
O9    O     O_3   0.870554 0.608406 0.373672 -0.562102
C45   C     C_3   0.849476 0.691611 0.417100 0.092616
H27   H     H_    0.924147 0.712480 0.467600 0.117344
H28   H     H_    0.761187 0.689684 0.457856 0.138178
C46   C     C_3   0.840656 0.761244 0.338321 -0.788022
H29   H     H_    0.768723 0.742482 0.285215 0.244081
H30   H     H_    0.816733 0.826139 0.370677 0.199224
H31   H     H_    0.930546 0.767231 0.300228 0.255817
O10   O     O_3   0.129976 0.394131 0.631187 -0.567896
C47   C     C_3   0.130501 0.429260 0.726139 0.105894
H32   H     H_    0.049099 0.471151 0.743657 0.105917
H33   H     H_    0.213556 0.470873 0.736551 0.173178
C48   C     C_3   0.134796 0.353660 0.798414 -0.807801
H34   H     H_    0.216525 0.311424 0.784384 0.240074
H35   H     H_    0.140703 0.380433 0.872951 0.197037
H36   H     H_    0.050256 0.312644 0.792209 0.261185

loop_
_geom_bond_atom_site_label_1
_geom_bond_atom_site_label_2
_ccdc_geom_bond_type
C38   C40   A    
C46   H29   S    
C27   C29   A    
C1    O3    A    
C48   H34   S    
C1    C11   S    
C45   C46   S    
C2    C12   S    
Cu2   O2    S    
C48   H36   S    
C39   C41   A    
C20   C30   A    
Cu1   Cu2   S    
C3    C43   A    
C19   C21   A    
C45   H28   S    
C20   C22   A    
C5    C36   S    
C21   N1    A    
C34   H16   S    
C43   O9    S    
C6    C35   S    
C7    C9    A    
C31   H13   S    
C24   O8    A    
C33   C35   A    
C24   O6    A    
Cu1   O8    S    
C7    C17   A    
C31   C33   A    
Cu1   O4    S    
C31   C41   A    
C25   N1    A    
C40   C42   A    
C40   H20   S    
C39   H19   S    
C3    C24   S    
C37   H17   S    
C38   H18   S    
C1    O1    A    
C45   H27   S    
C22   H8    S    
C27   H11   S    
O10   C47   S    
C4    C23   S    
C13   H25   S    
C47   C48   S    
C8    C18   A    
Cu1   N2    S    
C32   C34   A    
C29   C30   S    
C2    O4    A    
Cu2   O7    S    
O9    C45   S    
C47   H33   S    
C17   C18   S    
C41   H1    S    
Cu1   O5    S    
C42   H2    S    
C9    C11   A    
C44   O10   S    
C10   C12   A    
C10   H24   S    
C4    C6    A    
C5    C44   A    
C12   C14   A    
C8    H22   S    
C6    C43   A    
C13   C15   A    
C14   C16   A    
C32   H14   S    
C19   C29   A    
C2    O2    A    
C15   C17   A    
C20   H6    S    
C32   C42   A    
C23   O7    A    
C35   C37   A    
C14   H26   S    
C8    C10   A    
C25   H9    S    
C9    H23   S    
C3    C5    A    
C26   H10   S    
Cu2   O3    S    
C48   H35   S    
C28   H12   S    
C25   C27   A    
C4    C44   A    
C26   C28   A    
Cu1   O1    S    
C28   C30   A    
C37   C39   A    
C21   H7    S    
C11   C13   A    
C33   H15   S    
C36   C38   A    
C47   H32   S    
C26   N2    A    
C34   C36   A    
C15   H3    S    
C16   H4    S    
C7    H21   S    
C19   H5    S    
C16   C18   A    
C46   H31   S    
C46   H30   S    
C22   N2    A    
Cu2   O6    S    
C23   O5    A    
Cu2   N1    S    
