data_mof_unit_1570.cif
_audit_creation_date              2012-12-11T14:50:31-0500
_audit_creation_method            fapswitch 2.2
_symmetry_space_group_name_H-M    P1
_symmetry_Int_Tables_number       1
_space_group_crystal_system       triclinic
_cell_length_a                    10.933692
_cell_length_b                    11.073941
_cell_length_c                    18.742832
_cell_angle_alpha                 89.554543
_cell_angle_beta                  90.104027
_cell_angle_gamma                 59.084677
_cell_volume                      1946.84678791

loop_
_atom_site_label
_atom_site_type_symbol
_atom_type_description
_atom_site_fract_x
_atom_site_fract_y
_atom_site_fract_z
_atom_type_partial_charge
C1    C     C_R   0.232317 0.648382 0.608164 0.547501
C2    C     C_3   0.695154 0.509598 0.814675 -0.075873
C3    C     C_3   0.675370 0.659964 0.821220 0.013296
C4    C     C_3   0.644810 0.615564 0.686031 -0.014629
C5    C     C_3   0.770493 0.643605 0.693942 -0.047929
C6    C     C_3   0.664116 0.488454 0.735232 -0.102450
C7    C     C_R   0.811779 0.116174 0.702946 -0.133724
C8    C     C_R   0.835304 0.072609 0.775090 -0.147417
C9    C     C_R   0.737828 0.046853 0.810865 -0.014644
C10   C     C_R   0.631345 0.045425 0.770568 -0.158074
C11   C     C_R   0.610045 0.083352 0.699076 -0.133675
C12   C     C_R   0.628413 0.587851 0.609502 0.548449
C13   C     C_R   0.691849 0.131641 0.666096 0.029244
C14   C     C_R   0.178739 0.560890 0.719341 -0.122199
C15   C     C_R   0.163946 0.569891 0.793164 -0.158859
C16   C     C_R   0.153016 0.685901 0.828959 0.012900
C17   C     C_R   0.151029 0.794729 0.789688 -0.149804
C18   C     C_R   0.152217 0.791927 0.716157 -0.146915
C19   C     C_R   0.174667 0.671459 0.680319 0.041488
C20   C     C_R   0.800124 0.603223 0.298164 -0.126473
C21   C     C_R   0.824220 0.598068 0.225943 0.025873
C22   C     C_R   0.714633 0.702844 0.181410 -0.034112
C23   C     C_R   0.634473 0.218672 0.600311 0.526175
C24   C     C_R   0.579508 0.792194 0.209730 -0.135567
C25   C     C_R   0.546044 0.768343 0.278191 0.003170
C26   C     C_R   0.661391 0.675607 0.323977 0.023399
C27   C     C_R   0.569157 0.122719 0.291965 0.042237
C28   C     C_R   0.562684 0.122392 0.218415 -0.145916
C29   C     C_R   0.651452 0.151506 0.177290 -0.011488
C30   C     C_R   0.743152 0.187432 0.209926 -0.149406
C31   C     C_R   0.744904 0.195656 0.283366 -0.167983
C32   C     C_R   0.654827 0.167984 0.324744 -0.007560
C33   C     C_R   0.053610 0.782747 0.305905 -0.150517
C34   C     C_R   0.221773 0.649317 0.401855 0.545062
C35   C     C_R   0.024212 0.795784 0.233847 -0.139984
C36   C     C_R   0.115321 0.687307 0.187693 0.051395
C37   C     C_R   0.228545 0.561238 0.212869 -0.105676
C38   C     C_R   0.256442 0.546912 0.284956 -0.114707
C39   C     C_R   0.171592 0.659576 0.330788 0.026804
C40   C     C_R   0.732835 0.033464 0.889763 0.548610
C41   C     C_R   0.712263 0.682732 0.893603 0.544529
C42   C     C_R   0.111259 0.710608 0.903675 0.538915
C43   C     C_R   0.674154 0.106445 0.104131 0.544444
C44   C     C_R   0.735292 0.715597 0.105550 0.559210
C45   C     C_R   0.641568 0.625402 0.392550 0.567301
C46   C     C_R   0.088213 0.711539 0.113521 0.542626
C47   C     C_R   0.619671 0.226595 0.395804 0.564361
C48   C     C_3   0.513316 0.763406 0.794468 -0.077322
C49   C     C_3   0.511116 0.756615 0.712174 -0.252053
C50   C     C_3   0.784162 0.672373 0.772128 -0.232322
Cr1   Cr    Cr6+3 0.392930 0.397900 0.502230 1.042242
Cr2   Cr    Cr6+3 0.398240 0.708600 0.501260 1.009466
Cr3   Cr    Cr6+3 0.708800 0.393470 0.496460 1.048570
Cr4   Cr    Cr6+3 0.937620 0.938540 0.007640 1.017231
Cr5   Cr    Cr6+3 0.625150 0.937450 0.994520 1.062864
Cr6   Cr    Cr6+3 0.937990 0.625080 0.001190 1.044699
H1    H     H_    0.755834 0.389785 0.715054 0.178852
H2    H     H_    0.895109 0.602974 0.790616 0.156105
H3    H     H_    0.880293 0.147937 0.678085 0.133579
H4    H     H_    0.920706 0.072118 0.804172 0.123543
H5    H     H_    0.558924 0.022862 0.796415 0.188255
H6    H     H_    0.519842 0.088399 0.672074 0.165927
H7    H     H_    0.201359 0.464484 0.693604 0.166268
H8    H     H_    0.164952 0.484634 0.822331 0.130422
H9    H     H_    0.144415 0.884815 0.815609 0.158784
H10   H     H_    0.448989 0.717750 0.812791 0.105430
H11   H     H_    0.148306 0.879616 0.687952 0.152440
H12   H     H_    0.887597 0.530368 0.332641 0.172052
H13   H     H_    0.496762 0.869084 0.175109 0.147988
H14   H     H_    0.495008 0.089577 0.193599 0.153819
H15   H     H_    0.815112 0.206343 0.178725 0.170355
H16   H     H_    0.811602 0.230535 0.307314 0.186805
H17   H     H_    0.988477 0.869025 0.341375 0.134824
H18   H     H_    0.409019 0.769832 0.693313 0.147175
H19   H     H_    0.933559 0.892056 0.213509 0.139050
H20   H     H_    0.297145 0.477373 0.176918 0.139150
H21   H     H_    0.349516 0.451300 0.304345 0.147090
H22   H     H_    0.511876 0.848557 0.688337 0.168906
H23   H     H_    0.767429 0.779114 0.776521 0.101189
H24   H     H_    0.739779 0.742640 0.663868 0.128578
H25   H     H_    0.607669 0.519428 0.848569 0.118903
O1    O     O_R   0.507430 0.255570 0.581420 -0.517777
O2    O     O_R   0.524460 0.695920 0.424060 -0.516643
O3    O     O_R   0.736530 0.504260 0.414810 -0.505891
O4    O     O_R   0.691460 0.277160 0.422180 -0.514485
O5    O     O_3   0.499990 0.499990 0.499980 -0.283526
O6    O     O_R   0.089490 0.825610 0.930610 -0.513004
O7    O     O_R   0.818370 0.054540 0.929880 -0.506991
O8    O     O_R   0.605870 0.077310 0.915530 -0.501005
O9    O     O_R   0.646440 0.806700 0.917570 -0.471172
O10   O     O_R   0.837200 0.593290 0.915250 -0.537245
O11   O     O_R   0.065330 0.635370 0.931590 -0.510082
O12   O     O_R   0.280190 0.527390 0.578910 -0.511817
O13   O     O_R   0.068300 0.828790 0.091860 -0.525927
O14   O     O_R   0.798730 0.057480 0.079370 -0.505682
O15   O     O_R   0.584680 0.080480 0.076790 -0.521818
O16   O     O_R   0.626790 0.809640 0.067050 -0.504176
O17   O     O_R   0.816010 0.596460 0.076500 -0.477611
O18   O     O_R   0.045680 0.638310 0.081070 -0.461665
O19   O     O_3   0.833590 0.833690 0.001120 -0.310926
O20   O     O_R   0.260310 0.739740 0.584580 -0.534912
O21   O     O_R   0.532250 0.695150 0.573830 -0.503159
O22   O     O_R   0.744930 0.503430 0.576380 -0.466523
O23   O     O_R   0.699250 0.276390 0.571950 -0.522271
O24   O     O_R   0.499020 0.256400 0.419850 -0.478559
O25   O     O_R   0.272400 0.528160 0.429140 -0.494143
O26   O     O_R   0.251910 0.740570 0.423020 -0.532163
C51   C     C_2   0.416934 0.912033 0.821604 0.531310
O27   O     O_2   0.385038 0.931437 0.884722 -0.496358
O28   O     O_R   0.345726 0.024561 0.773246 -0.748046
H26   H     H_    0.281507 0.117418 0.797695 0.333994
C52   C     C_2   0.912273 0.537446 0.661443 0.588508
O29   O     O_2   0.978407 0.415778 0.682541 -0.567185
O30   O     O_R   0.963026 0.578770 0.603400 -0.682443
H27   H     H_    0.052767 0.497435 0.582440 0.344979
C53   C     C_2   0.949248 0.463017 0.201929 0.598932
O31   O     O_2   0.035853 0.459957 0.160272 -0.488833
O32   O     O_R   0.970269 0.336597 0.230580 -0.719597
H28   H     H_    0.058752 0.251000 0.211424 0.339178
C54   C     C_3   0.390664 0.824935 0.298264 -0.223620
C55   C     C_3   0.277360 0.910605 0.241153 -0.424840
H29   H     H_    0.281009 0.004983 0.224536 0.182417
H30   H     H_    0.291829 0.844408 0.194019 0.159911
H31   H     H_    0.169894 0.948078 0.263394 0.160477
H32   H     H_    0.380658 0.732516 0.310640 0.165658
H33   H     H_    0.363184 0.891062 0.346378 0.207343
C56   C     C_2   0.482618 0.079450 0.333376 0.587498
O33   O     O_2   0.358782 0.123207 0.316217 -0.545477
O34   O     O_R   0.541222 0.994200 0.394134 -0.685049
H34   H     H_    0.469358 0.980201 0.421308 0.334430
C57   C     C_3   0.819518 0.376342 0.853242 -0.263242
C58   C     C_3   0.970294 0.310113 0.824278 -0.382377
H35   H     H_    0.978104 0.261072 0.771979 0.188243
H36   H     H_    0.007875 0.385196 0.821801 0.184802
H37   H     H_    0.043633 0.223644 0.861060 0.136386
H38   H     H_    0.821021 0.394408 0.911224 0.180144
H39   H     H_    0.793860 0.292451 0.853167 0.135887
C59   C     C_3   0.528128 0.475590 0.728817 -0.309180
C60   C     C_3   0.506201 0.390046 0.786210 -0.426526
H40   H     H_    0.607371 0.307670 0.807747 0.176328
H41   H     H_    0.444394 0.457555 0.831560 0.145216
H42   H     H_    0.446651 0.342593 0.764002 0.165782
H43   H     H_    0.431058 0.578921 0.730682 0.152486
H44   H     H_    0.525401 0.435284 0.675829 0.161770

loop_
_geom_bond_atom_site_label_1
_geom_bond_atom_site_label_2
_ccdc_geom_bond_type
C46   O18   A    
C23   O1    A    
C1    O20   A    
C60   H41   S    
C35   C36   A    
Cr6   O17   S    
C11   H6    S    
C50   H23   S    
C52   O30   S    
C30   H15   S    
C7    C8    A    
C2    C6    S    
C49   H22   S    
Cr2   O21   S    
C33   C39   A    
Cr3   O3    S    
C34   O26   A    
C47   O4    A    
C36   C37   A    
C37   C38   A    
Cr5   O9    S    
C59   H43   S    
C58   H37   S    
Cr4   O6    S    
C60   H42   S    
C54   H33   S    
Cr3   O23   S    
C15   C16   A    
C3    C48   S    
C51   O27   D    
C13   C23   S    
C17   C18   A    
C18   C19   A    
O32   H28   S    
C55   H31   S    
C26   C45   S    
O28   H26   S    
C44   O17   A    
Cr6   O10   S    
C22   C44   S    
C31   C32   A    
Cr2   O26   S    
C51   O28   S    
C8    C9    A    
C47   O24   A    
Cr5   O19   S    
C43   O14   A    
C15   H8    S    
C36   C46   S    
Cr3   O5    S    
C40   O8    A    
C4    C12   S    
C9    C10   A    
C41   O9    A    
C21   C22   A    
C29   C43   S    
C6    H1    S    
Cr4   O19   S    
C45   O2    A    
C27   C56   S    
C21   C53   S    
Cr1   O5    S    
C7    H3    S    
C52   O29   D    
C3    C50   S    
C24   H13   S    
C2    C57   S    
Cr2   O20   S    
C1    C19   S    
C55   H30   S    
C34   C39   S    
C34   O25   A    
C24   C25   A    
C12   O22   A    
C4    C6    S    
C57   H38   S    
C10   C11   A    
C54   H32   S    
C16   C17   A    
C18   H11   S    
C9    C40   S    
C50   H2    S    
C6    C59   S    
Cr2   O2    S    
C56   O34   S    
C12   O21   A    
C29   C30   A    
C57   H39   S    
C44   O16   A    
C23   O23   A    
C46   O13   A    
C7    C13   A    
C30   C31   A    
Cr1   O24   S    
C35   H19   S    
Cr5   O16   S    
C43   O15   A    
Cr4   O14   S    
C5    H24   S    
C4    C5    S    
Cr1   O1    S    
C55   H29   S    
C48   C51   S    
Cr1   O12   S    
C58   H36   S    
C33   H17   S    
C31   H16   S    
C41   O10   A    
C37   H20   S    
C32   C47   S    
C22   C24   A    
C5    C50   S    
C10   H5    S    
Cr6   O19   S    
C57   C58   S    
C28   C29   A    
C25   C54   S    
C16   C42   S    
C54   C55   S    
O34   H34   S    
C48   C49   S    
C27   C32   A    
C14   C15   A    
C14   C19   A    
C20   H12   S    
C28   H14   S    
Cr5   O15   S    
C60   H40   S    
O30   H27   S    
C38   H21   S    
C5    C52   S    
C17   H9    S    
C4    C49   S    
C40   O7    A    
Cr2   O5    S    
C2    C3    S    
C25   C26   A    
Cr5   O8    S    
C59   H44   S    
C8    H4    S    
Cr4   O7    S    
C11   C13   A    
C38   C39   A    
C20   C26   A    
Cr3   O22   S    
Cr1   O25   S    
C14   H7    S    
C33   C35   A    
C53   O32   S    
C53   O31   D    
C58   H35   S    
C42   O11   A    
Cr4   O13   S    
C3    C41   S    
C59   C60   S    
C45   O3    A    
Cr6   O11   S    
C20   C21   A    
C1    O12   A    
C27   C28   A    
C49   H18   S    
C2    H25   S    
Cr3   O4    S    
C42   O6    A    
Cr6   O18   S    
C48   H10   S    
C56   O33   D    
