data_mof_unit_2787.cif
_audit_creation_date              2013-03-05T16:01:06-0500
_audit_creation_method            fapswitch 2.2
_symmetry_space_group_name_H-M    P1
_symmetry_Int_Tables_number       1
_space_group_crystal_system       triclinic
_cell_length_a                    14.707956
_cell_length_b                    14.709321
_cell_length_c                    15.84994
_cell_angle_alpha                 76.959412
_cell_angle_beta                  102.611939
_cell_angle_gamma                 114.678634
_cell_volume                      3005.49552336

loop_
_atom_site_label
_atom_site_type_symbol
_atom_site_description
_atom_site_fract_x
_atom_site_fract_y
_atom_site_fract_z
_atom_type_partial_charge
O1    O     O_R   0.977900 0.338120 0.529810 -0.584366
O2    O     O_R   0.022100 0.661880 0.470190 -0.584364
O3    O     O_R   0.839850 0.379180 0.491620 -0.593589
O4    O     O_R   0.160150 0.620820 0.508380 -0.593589
C1    C     C_R   0.880417 0.312336 0.514351 0.793822
C2    C     C_R   0.119583 0.687664 0.485649 0.793820
O5    O     O_R   0.069010 0.479460 0.640020 -0.579998
O6    O     O_R   0.930990 0.520540 0.359980 -0.579998
O7    O     O_R   0.930960 0.520530 0.601820 -0.571970
O8    O     O_R   0.069040 0.479470 0.398180 -0.571970
C3    C     C_R   0.999552 0.500040 0.660035 0.828183
C4    C     C_R   0.000448 0.499959 0.339965 0.828183
Cu1   Cu    Cu3+1 0.081740 0.475690 0.522610 0.952511
Cu2   Cu    Cu3+1 0.918260 0.524310 0.477390 0.952512
C5    C     C_3   0.987150 0.407236 0.044595 -0.152277
C6    C     C_3   0.012850 0.592764 0.955405 -0.152277
C7    C     C_3   0.911030 0.432266 0.968480 -0.157677
C8    C     C_3   0.088970 0.567734 0.031520 -0.157676
H1    H     H_    0.837978 0.376699 0.941228 0.135368
H2    H     H_    0.162022 0.623301 0.058772 0.135368
H3    H     H_    0.976650 0.331099 0.082574 0.139325
H4    H     H_    0.023349 0.668900 0.917426 0.139326
H5    H     H_    0.862734 0.545291 0.016408 0.138108
H6    H     H_    0.137266 0.454708 0.983592 0.138107
C9    C     C_1   0.998773 0.500243 0.749651 -0.171267
C10   C     C_1   0.001227 0.499757 0.250349 -0.171268
C11   C     C_3   0.075386 0.475127 0.991747 -0.152967
C12   C     C_3   0.924614 0.524873 0.008253 -0.152967
C13   C     C_3   0.999269 0.500157 0.917171 0.183866
C14   C     C_3   0.000731 0.499843 0.082829 0.183866
C15   C     C_1   0.998728 0.500266 0.825279 -0.065528
C16   C     C_1   0.001272 0.499734 0.174721 -0.065529
C17   C     C_R   0.812877 0.204814 0.522187 -0.055446
C18   C     C_R   0.187123 0.795186 0.477815 -0.055446
C19   C     C_R   0.784412 0.027417 0.551298 -0.129583
C20   C     C_R   0.215590 0.972583 0.448709 -0.129581
C21   C     C_R   0.850528 0.128429 0.547728 -0.205966
C22   C     C_R   0.149473 0.871571 0.452275 -0.205967
C23   C     C_R   0.708612 0.179065 0.503586 -0.219614
C24   C     C_R   0.291388 0.820933 0.496417 -0.219612
C25   C     C_R   0.639697 0.077727 0.511393 0.068115
C26   C     C_R   0.360304 0.922272 0.488615 0.068114
C27   C     C_R   0.679092 0.000822 0.530453 0.031385
C28   C     C_R   0.320910 0.999178 0.469556 0.031384
C29   C     C_R   0.533197 0.051541 0.499221 0.007083
C30   C     C_R   0.466805 0.948457 0.500789 0.007085
C31   C     C_R   0.508744 0.874814 0.512256 -0.275441
C32   C     C_R   0.491258 0.125184 0.487757 -0.275440
C33   C     C_R   0.612648 0.899338 0.528271 0.316224
C34   C     C_R   0.387355 0.100661 0.471742 0.316225
H7    H     H_    0.316861 0.759887 0.519418 0.155193
H8    H     H_    0.683138 0.240111 0.480582 0.155195
H9    H     H_    0.068952 0.853363 0.436285 0.163910
H10   H     H_    0.931050 0.146638 0.563717 0.163911
H11   H     H_    0.816711 0.970669 0.571287 0.190508
H12   H     H_    0.183291 0.029332 0.428721 0.190507
H13   H     H_    0.462947 0.796766 0.506092 0.168839
H14   H     H_    0.537056 0.203231 0.493924 0.168839
N1    N     N_R   0.795440 0.560790 0.443380 -0.181020
N2    N     N_R   0.204560 0.439210 0.556620 -0.181020
C35   C     C_R   0.713961 0.665910 0.353174 -0.267211
C36   C     C_R   0.286041 0.334095 0.646830 -0.267206
C37   C     C_R   0.796100 0.637278 0.376800 0.086588
C38   C     C_R   0.203901 0.362723 0.623201 0.086590
C39   C     C_R   0.715231 0.509883 0.488693 0.028418
C40   C     C_R   0.284770 0.490118 0.511308 0.028416
C41   C     C_R   0.628646 0.534947 0.467623 -0.006350
C42   C     C_R   0.371357 0.465058 0.532382 -0.006351
C43   C     C_R   0.630192 0.615291 0.398343 0.190721
C44   C     C_R   0.369812 0.384716 0.601663 0.190721
C45   C     C_R   0.541740 0.484217 0.512567 0.116409
C46   C     C_R   0.458264 0.515790 0.487439 0.116404
C47   C     C_R   0.464644 0.597042 0.418447 -0.187121
C48   C     C_R   0.535362 0.402968 0.581561 -0.187114
C49   C     C_R   0.548665 0.645218 0.374838 -0.120211
C50   C     C_R   0.451341 0.354791 0.625170 -0.120213
H15   H     H_    0.550028 0.707211 0.322254 0.135535
H16   H     H_    0.449980 0.292800 0.677755 0.135535
H17   H     H_    0.278508 0.549022 0.458993 0.120166
H18   H     H_    0.721493 0.450978 0.541008 0.120166
H19   H     H_    0.138923 0.323377 0.657666 0.123648
H20   H     H_    0.861077 0.676623 0.342334 0.123648
H21   H     H_    0.716085 0.727573 0.300110 0.138725
H22   H     H_    0.283919 0.272433 0.699895 0.138726
H23   H     H_    0.405818 0.625895 0.396392 0.117646
H24   H     H_    0.594190 0.374117 0.603619 0.117646
N3    N     N_R   0.648913 0.820062 0.538167 0.108839
O9    O     O_R   0.604107 0.732447 0.583636 -0.374310
O10   O     O_R   0.714186 0.829069 0.489891 -0.387228
N4    N     N_R   0.351090 0.179936 0.461848 0.108839
O11   O     O_R   0.395898 0.267553 0.416383 -0.374312
O12   O     O_R   0.285814 0.170926 0.510123 -0.387228

loop_
_geom_bond_atom_site_label_1
_geom_bond_atom_site_label_2
_geom_bond_distance
_ccdc_geom_bond_type
C9    C15   1.198911 T    
C40   C42   1.421267 A    
N3    O9    1.301387 A    
C6    C12   1.548582 S    
C11   C13   1.534920 S    
C7    C13   1.534629 S    
C33   N3    1.438471 S    
H6    C11   1.110129 S    
C23   C25   1.405172 A    
Cu1   N2    2.023704 S    
C29   C30   1.417904 A    
C10   C16   1.198913 T    
Cu2   N1    2.023704 S    
C17   C23   1.396433 A    
C48   C50   1.388442 A    
O1    C1    1.301543 A    
C19   C21   1.391417 A    
C50   H16   1.084255 S    
C3    C9    1.423637 S    
C28   C34   1.405314 A    
C36   C44   1.401258 A    
C26   C30   1.427215 A    
O4    Cu1   1.943847 S    
C35   C37   1.390405 A    
C36   C38   1.390404 A    
N4    O12   1.301357 A    
C34   N4    1.438469 S    
C39   C41   1.421266 A    
C1    C17   1.468636 S    
C6    H4    1.110117 S    
C8    C14   1.534628 S    
C19   C27   1.410860 A    
C41   C45   1.435048 A    
O6    C4    1.295774 A    
C24   C26   1.405176 A    
C23   H8    1.073837 S    
N2    C40   1.363039 A    
C39   H18   1.075094 S    
Cu1   Cu2   2.694186 S    
C25   C27   1.422435 A    
C40   H17   1.075095 S    
O2    C2    1.301548 A    
C26   C28   1.422435 A    
C37   H20   1.081729 S    
C19   H11   1.081149 S    
O4    C2    1.299497 A    
C35   H21   1.083791 S    
C27   C33   1.405317 A    
C6    C13   1.534657 S    
C17   C21   1.396197 A    
C2    C18   1.468634 S    
C4    C10   1.423635 S    
C41   C43   1.416258 A    
O5    C3    1.295775 A    
O7    Cu2   1.930259 S    
C20   H12   1.081150 S    
C31   H13   1.075815 S    
C49   H15   1.084255 S    
C5    C11   1.548582 S    
C5    H3    1.110118 S    
C42   C46   1.435047 A    
H5    C12   1.110130 S    
C48   H24   1.076338 S    
O7    C3    1.296882 A    
C47   H23   1.076339 S    
O3    Cu2   1.943846 S    
O8    C4    1.296882 A    
C21   H10   1.083158 S    
C42   C44   1.416257 A    
N3    O10   1.301360 A    
C44   C50   1.393596 A    
C18   C24   1.396428 A    
C20   C28   1.410862 A    
O1    Cu1   1.957427 S    
C47   C49   1.388443 A    
C20   C22   1.391420 A    
C5    C14   1.534656 S    
C29   C32   1.416725 A    
C35   C43   1.401258 A    
C5    C7    1.548663 S    
C36   H22   1.083791 S    
C30   C31   1.416728 A    
O6    Cu2   1.925779 S    
C18   C22   1.396194 A    
C7    C12   1.548591 S    
C8    C11   1.548592 S    
C46   C47   1.412218 A    
O3    C1    1.299497 A    
O8    Cu1   1.930259 S    
C45   C48   1.412218 A    
C32   H14   1.075819 S    
C31   C33   1.393397 A    
C24   H7    1.073834 S    
N1    C37   1.356128 A    
N2    C38   1.356128 A    
C12   C14   1.534922 S    
C45   C46   1.435560 A    
C13   C15   1.454414 S    
N1    C39   1.363038 A    
C14   C16   1.454413 S    
N4    O11   1.301387 A    
C22   H9    1.083158 S    
C32   C34   1.393391 A    
C7    H1    1.110127 S    
C43   C49   1.393595 A    
C8    H2    1.110127 S    
O2    Cu2   1.957426 S    
C38   H19   1.081729 S    
O5    Cu1   1.925780 S    
C6    C8    1.548664 S    
C25   C29   1.427208 A    
