data_mof_unit_1614.cif
_audit_creation_date              2012-10-26T20:43:37-0400
_audit_creation_method            fapswitch 2.2
_symmetry_space_group_name_H-M    P1
_symmetry_Int_Tables_number       1
_space_group_crystal_system       triclinic
_cell_length_a                    11.06533
_cell_length_b                    9.724281
_cell_length_c                    23.52386
_cell_angle_alpha                 89.93585
_cell_angle_beta                  93.67133
_cell_angle_gamma                 89.821616
_cell_volume                      2526.01421737

loop_
_atom_site_label
_atom_site_type_symbol
_atom_type_description
_atom_site_fract_x
_atom_site_fract_y
_atom_site_fract_z
_atom_type_partial_charge
C1    C     C_R   0.262898 0.499043 0.503302 0.528515
C2    C     C_R   0.571374 0.570193 0.706626 0.043212
C3    C     C_R   0.438421 0.564948 0.233730 0.133970
C4    C     C_R   0.564984 0.562963 0.766103 0.139037
C5    C     C_R   0.510205 0.462981 0.209795 0.231069
C6    C     C_R   0.490316 0.464522 0.790259 0.230565
C7    C     C_R   0.065107 0.365924 0.508997 -0.015278
C8    C     C_R   0.937485 0.614784 0.490148 -0.015106
C9    C     C_R   0.936414 0.364453 0.503445 -0.011789
C10   C     C_R   0.060779 0.617207 0.509196 -0.014138
C11   C     C_R   0.871469 0.491856 0.496287 0.001340
C12   C     C_R   0.737236 0.498389 0.498340 0.524992
C13   C     C_R   0.128653 0.493874 0.508340 -0.004061
C14   C     C_R   0.468327 0.073364 0.451425 0.174231
C15   C     C_R   0.538832 0.927329 0.547189 0.156083
C16   C     C_R   0.530639 0.072890 0.548374 0.217329
C17   C     C_R   0.465007 0.926087 0.452073 0.178059
C18   C     C_R   0.503832 0.499365 0.391464 0.579795
C19   C     C_R   0.496745 0.499359 0.608547 0.573718
C20   C     C_R   0.598664 0.424070 0.881793 0.429980
C21   C     C_R   0.401193 0.426424 0.118251 0.430150
C22   C     C_R   0.388430 0.479228 0.878597 0.402524
C23   C     C_R   0.583094 0.374739 0.245811 0.058532
C24   C     C_R   0.612673 0.473571 0.121544 0.402620
C25   C     C_R   0.386809 0.461838 0.938025 0.036182
C26   C     C_R   0.613895 0.456964 0.062076 0.036157
C27   C     C_R   0.498704 0.447497 0.969980 -0.094162
C28   C     C_R   0.501711 0.447038 0.030100 -0.094184
C29   C     C_R   0.607554 0.434983 0.941815 0.021950
C30   C     C_R   0.392600 0.438044 0.058237 0.021831
C31   C     C_R   0.277591 0.459197 0.966091 0.136649
C32   C     C_R   0.723008 0.451092 0.033975 0.136607
C33   C     C_R   0.279966 0.442786 0.025521 0.093741
C34   C     C_R   0.414906 0.379193 0.754397 0.058080
C35   C     C_R   0.720258 0.435561 0.974512 0.093895
C36   C     C_3   0.648820 0.250998 0.222464 -0.189719
C37   C     C_3   0.595777 0.115153 0.242990 -0.319262
C38   C     C_3   0.652089 0.991254 0.214786 -0.448050
C39   C     C_3   0.345957 0.258420 0.777897 -0.191554
C40   C     C_3   0.395776 0.120410 0.757692 -0.317542
C41   C     C_3   0.335610 0.998999 0.785685 -0.446749
C42   C     C_3   0.130446 0.227186 0.510539 -0.213625
C43   C     C_3   0.142516 0.181331 0.448498 -0.278145
C44   C     C_3   0.155044 0.027488 0.444373 -0.476971
C45   C     C_R   0.592588 0.400475 0.304889 0.047490
C46   C     C_3   0.882543 0.740448 0.458805 -0.241753
C47   C     C_3   0.826465 0.706626 0.398911 -0.275424
C48   C     C_3   0.777698 0.836195 0.368547 -0.444063
C49   C     C_3   0.873084 0.223953 0.506873 -0.217283
C50   C     C_3   0.853893 0.189766 0.569507 -0.285111
C51   C     C_3   0.849911 0.035314 0.579820 -0.464230
C52   C     C_3   0.113808 0.749151 0.535175 -0.245634
C53   C     C_3   0.166069 0.729613 0.596824 -0.277019
C54   C     C_3   0.220905 0.863220 0.620689 -0.449317
C55   C     C_R   0.406073 0.404813 0.695281 0.051528
C56   C     C_R   0.511889 0.494280 0.329080 0.018851
C57   C     C_R   0.489372 0.494563 0.670936 0.021358
C58   C     C_R   0.432398 0.573375 0.293200 0.049775
Cu1   Cu    Cu3+1 0.500000 0.640660 0.500000 0.957778
Cu2   Cu    Cu3+1 0.500000 0.359340 0.500000 0.953822
H1    H     H_    0.114064 0.377409 0.941456 0.249765
H2    H     H_    0.751536 0.989025 0.224871 0.163837
H3    H     H_    0.612536 0.895101 0.230969 0.150421
H4    H     H_    0.613168 0.104437 0.289686 0.169167
H5    H     H_    0.496225 0.114031 0.232873 0.172884
H6    H     H_    0.641810 0.248519 0.175372 0.159373
H7    H     H_    0.746861 0.256769 0.235824 0.186861
H8    H     H_    0.353241 0.002784 0.832677 0.169599
H9    H     H_    0.236343 0.000697 0.775053 0.163322
H10   H     H_    0.373159 0.901211 0.769836 0.154768
H11   H     H_    0.379049 0.110376 0.710962 0.172349
H12   H     H_    0.114559 0.551063 0.948624 0.259474
H13   H     H_    0.495100 0.115209 0.768245 0.175334
H14   H     H_    0.352631 0.256034 0.824987 0.159589
H15   H     H_    0.248169 0.267947 0.764394 0.186988
H16   H     H_    0.739679 0.410995 0.361107 0.218606
H17   H     H_    0.654331 0.268502 0.368441 0.253809
H18   H     H_    0.259839 0.421492 0.638867 0.218271
H19   H     H_    0.341365 0.275430 0.631899 0.252148
H20   H     H_    0.345577 0.755628 0.300823 0.218347
H21   H     H_    0.256409 0.615480 0.303945 0.231956
H22   H     H_    0.748757 0.604051 0.696197 0.236692
H23   H     H_    0.887710 0.537659 0.051569 0.260985
H24   H     H_    0.663469 0.748393 0.697936 0.230731
H25   H     H_    0.398935 0.758804 0.206431 0.213896
H26   H     H_    0.278653 0.650069 0.203844 0.247921
H27   H     H_    0.609804 0.755444 0.792737 0.216392
H28   H     H_    0.726935 0.641535 0.795883 0.249373
H29   H     H_    0.237119 0.993323 0.469720 0.160635
H30   H     H_    0.075275 0.980693 0.461795 0.131493
H31   H     H_    0.157876 0.996334 0.399148 0.134622
H32   H     H_    0.061097 0.211521 0.421034 0.156150
H33   H     H_    0.220115 0.232619 0.430333 0.211524
H34   H     H_    0.885008 0.363937 0.058376 0.248369
H35   H     H_    0.215412 0.221972 0.537668 0.167865
H36   H     H_    0.084047 0.149625 0.535552 0.122583
H37   H     H_    0.708808 0.886819 0.393836 0.155194
H38   H     H_    0.852431 0.909634 0.362327 0.147435
H39   H     H_    0.734655 0.808346 0.326205 0.150279
H40   H     H_    0.896266 0.658772 0.373225 0.159827
H41   H     H_    0.750720 0.633337 0.400863 0.176976
H42   H     H_    0.817736 0.794995 0.484889 0.167171
H43   H     H_    0.954132 0.814790 0.451148 0.123995
H44   H     H_    0.785837 0.985629 0.548162 0.164744
H45   H     H_    0.161523 0.517842 0.080866 0.275996
H46   H     H_    0.941194 0.991535 0.576281 0.134693
H47   H     H_    0.822930 0.013729 0.623551 0.159362
H48   H     H_    0.928865 0.232052 0.597998 0.160297
H49   H     H_    0.769712 0.239666 0.581960 0.206050
H50   H     H_    0.791601 0.209897 0.478021 0.168416
H51   H     H_    0.922779 0.140538 0.486859 0.121881
H52   H     H_    0.293871 0.899100 0.594016 0.154863
H53   H     H_    0.150403 0.944502 0.621841 0.143955
H54   H     H_    0.260309 0.845554 0.664701 0.147074
H55   H     H_    0.092915 0.696024 0.623940 0.161782
H56   H     H_    0.155243 0.342684 0.070290 0.275792
H57   H     H_    0.237817 0.649769 0.599291 0.173218
H58   H     H_    0.181935 0.792361 0.508151 0.181546
H59   H     H_    0.042639 0.828169 0.537213 0.117037
H60   H     H_    0.351861 0.112025 0.382393 0.200806
H61   H     H_    0.499357 0.113884 0.369601 0.191742
H62   H     H_    0.526772 0.831763 0.622845 0.262468
H63   H     H_    0.653942 0.786557 0.585172 0.298449
H64   H     H_    0.632248 0.111538 0.621957 0.229855
H65   H     H_    0.483099 0.101831 0.628324 0.195722
H66   H     H_    0.335125 0.882494 0.389907 0.208656
H67   H     H_    0.843022 0.332039 0.929584 0.275557
H68   H     H_    0.479764 0.880736 0.368824 0.204212
H69   H     H_    0.839951 0.507418 0.919194 0.275910
H70   H     H_    0.633374 0.995499 0.167856 0.169843
N1    N     N_R   0.491904 0.453500 0.851585 -0.385797
N2    N     N_3   0.307994 0.343744 0.661154 -0.655259
N3    N     N_3   0.340989 0.655977 0.317129 -0.608180
N4    N     N_3   0.665487 0.647765 0.682514 -0.645201
N5    N     N_3   0.370590 0.658637 0.196725 -0.595799
N6    N     N_3   0.635251 0.654296 0.802866 -0.594441
N7    N     N_3   0.437153 0.142643 0.398884 -0.575682
N8    N     N_3   0.594188 0.863403 0.596690 -0.664477
N9    N     N_3   0.548688 0.139207 0.602382 -0.568896
N10   N     N_3   0.424330 0.855150 0.401559 -0.542420
N11   N     N_R   0.508566 0.451680 0.148493 -0.385619
N12   N     N_R   0.500000 0.852070 0.500000 -0.219499
N13   N     N_R   0.500000 0.147930 0.500000 -0.204919
N14   N     N_3   0.162810 0.466920 0.934045 -0.543940
N15   N     N_3   0.837944 0.454808 0.065992 -0.543026
N16   N     N_3   0.165631 0.438502 0.051097 -0.637085
N17   N     N_3   0.834438 0.427983 0.948887 -0.637439
N18   N     N_3   0.689037 0.335390 0.339041 -0.654550
O1    O     O_R   0.319640 0.618740 0.500000 -0.490889
O2    O     O_2   0.303968 0.391185 0.146702 -0.513856
O3    O     O_2   0.287870 0.520407 0.847674 -0.470471
O4    O     O_2   0.714188 0.510386 0.152564 -0.469999
O5    O     O_R   0.680360 0.381260 0.500000 -0.518224
O6    O     O_R   0.680360 0.618740 0.500000 -0.517972
O7    O     O_R   0.319640 0.381260 0.500000 -0.515266
O8    O     O_R   0.499960 0.618810 0.417880 -0.435575
O9    O     O_R   0.500040 0.381190 0.582120 -0.471864
O10   O     O_R   0.500040 0.618810 0.582120 -0.504298
O11   O     O_R   0.499960 0.381190 0.417880 -0.473233
O12   O     O_2   0.694983 0.385230 0.853318 -0.514272

loop_
_geom_bond_atom_site_label_1
_geom_bond_atom_site_label_2
_ccdc_geom_bond_type
C25   C31   A    
Cu1   Cu2   S    
C26   C32   A    
C23   C45   A    
C40   H11   S    
C22   N1    A    
C27   C29   A    
C45   N18   S    
H64   N9    S    
Cu2   O11   S    
C12   O5    A    
C10   C52   S    
C36   H7    S    
C18   O8    A    
C53   C54   S    
H65   N9    S    
C48   H37   S    
C46   H42   S    
H63   N8    S    
H24   N4    S    
C2    N4    S    
C42   H36   S    
C38   H70   S    
C36   C37   S    
C24   C26   A    
C8    C11   A    
Cu2   N13   S    
Cu1   O10   S    
C36   H6    S    
C7    C42   S    
H45   N16   S    
C15   C16   A    
Cu1   N12   S    
C54   H53   S    
C40   H13   S    
H12   N14   S    
C39   H14   S    
H61   N7    S    
C31   N14   S    
C1    O7    A    
H18   N2    S    
Cu2   O5    S    
C18   O11   A    
C24   O4    S    
H23   N15   S    
C34   C39   S    
C45   C56   A    
C22   C25   A    
C37   H5    S    
C31   C33   A    
C1    O1    A    
C39   H15   S    
C3    N5    S    
C18   C56   S    
C49   H51   S    
C15   N8    S    
H34   N15   S    
C34   C55   A    
C50   H48   S    
C14   C17   A    
Cu1   O6    S    
C41   H8    S    
C20   C29   A    
Cu1   O1    S    
C58   N3    S    
C2    C57   A    
C42   H35   S    
C19   O9    A    
C32   C35   A    
C16   N13   A    
C9    C49   S    
Cu2   O9    S    
H28   N6    S    
C4    C6    A    
C39   C40   S    
C32   N15   S    
C51   H44   S    
C50   H49   S    
C19   C57   S    
C47   H40   S    
C6    C34   A    
C17   N12   A    
H22   N4    S    
C2    C4    A    
C43   C44   S    
C3    C58   A    
C37   C38   S    
C15   N12   A    
H1    N14   S    
C5    N11   S    
C47   C48   S    
C5    C23   A    
C14   N7    S    
C24   N11   A    
C11   C12   S    
H66   N10   S    
C50   C51   S    
C54   H52   S    
C35   N17   S    
C21   O2    S    
C9    C11   A    
H17   N18   S    
H62   N8    S    
C44   H31   S    
H25   N5    S    
C8    C10   A    
C40   C41   S    
C23   C36   S    
C55   C57   A    
C49   C50   S    
C16   N9    S    
C1    C13   S    
C42   C43   S    
C22   O3    S    
C20   N1    A    
C37   H4    S    
C44   H30   S    
C52   C53   S    
C41   H9    S    
C38   H3    S    
C46   H43   S    
C7    C9    A    
C48   H39   S    
C46   C47   S    
C30   C33   A    
C19   O10   A    
H27   N6    S    
C12   O6    A    
C6    N1    S    
C3    C5    A    
C10   C13   A    
Cu1   O8    S    
H21   N3    S    
C25   C27   A    
C48   H38   S    
C21   C30   A    
C29   C35   A    
C26   C28   A    
C43   H32   S    
C4    N6    S    
C28   C30   A    
C14   N13   A    
Cu2   O7    S    
C21   N11   A    
H56   N16   S    
C51   H46   S    
H19   N2    S    
C54   H54   S    
C43   H33   S    
C56   C58   A    
C17   N10   S    
C53   H57   S    
C47   H41   S    
H68   N10   S    
C8    C46   S    
H69   N17   S    
C33   N16   S    
H20   N3    S    
C52   H59   S    
H26   N5    S    
C7    C13   A    
H16   N18   S    
C51   H47   S    
C55   N2    S    
C20   O12   S    
C27   C28   A    
C41   H10   S    
H60   N7    S    
C44   H29   S    
C53   H55   S    
H67   N17   S    
C49   H50   S    
C38   H2    S    
C52   H58   S    
