data_mof_unit_2263.cif
_audit_creation_date              2012-10-26T19:04:41-0400
_audit_creation_method            fapswitch 2.2
_symmetry_space_group_name_H-M    P1
_symmetry_Int_Tables_number       1
_space_group_crystal_system       triclinic
_cell_length_a                    9.588545
_cell_length_b                    10.903202
_cell_length_c                    13.458683
_cell_angle_alpha                 93.156871
_cell_angle_beta                  73.10903
_cell_angle_gamma                 91.697206
_cell_volume                      1344.1687643

loop_
_atom_site_label
_atom_site_type_symbol
_atom_type_description
_atom_site_fract_x
_atom_site_fract_y
_atom_site_fract_z
_atom_type_partial_charge
Br1   Br    Br    0.775838 0.882071 0.558590 -0.559549
C1    C     C_R   0.504602 0.737217 0.493865 0.576007
C2    C     C_R   0.383600 0.452008 0.808584 0.001494
C3    C     C_R   0.314972 0.865445 0.397090 -0.084585
C4    C     C_R   0.423577 0.485407 0.698259 0.554243
C5    C     C_R   0.188012 0.916752 0.388617 -0.090873
C6    C     C_R   0.145986 0.031730 0.435178 -0.096242
C7    C     C_R   0.238558 0.100759 0.480193 -0.099120
C8    C     C_R   0.375763 0.055075 0.479772 0.016238
C9    C     C_R   0.401894 0.929277 0.452751 -0.000304
C10   C     C_R   0.511803 0.870922 0.483944 0.004142
C11   C     C_R   0.615804 0.943630 0.517453 0.137703
C12   C     C_R   0.445184 0.439134 0.972551 0.036015
C13   C     C_R   0.606016 0.069997 0.522902 -0.118553
C14   C     C_R   0.487840 0.127643 0.505272 -0.034878
C15   C     C_R   0.909525 0.342715 0.356142 -0.100346
C16   C     C_R   0.495705 0.262201 0.503017 0.531271
C17   C     C_R   0.008928 0.267843 0.284071 -0.055324
C18   C     C_R   0.152352 0.267131 0.285330 -0.197389
C19   C     C_R   0.196894 0.341281 0.357865 -0.128370
C20   C     C_R   0.100968 0.422519 0.429576 0.142091
C21   C     C_R   0.951601 0.422931 0.429157 0.137925
C22   C     C_R   0.900735 0.572019 0.568296 0.016412
C23   C     C_R   0.490499 0.438747 0.862411 0.033177
C24   C     C_R   0.048838 0.572578 0.567868 0.004223
C25   C     C_R   0.577668 0.499849 0.300342 0.531245
C26   C     C_R   0.806910 0.493541 0.021275 -0.122865
C27   C     C_R   0.621577 0.493503 0.186683 0.002610
C28   C     C_R   0.236018 0.434012 0.862353 -0.130901
C29   C     C_R   0.194450 0.410911 0.967618 -0.132451
C30   C     C_R   0.295825 0.419191 0.023316 -0.115549
C31   C     C_1   0.962372 0.189464 0.209613 0.184908
C32   C     C_R   0.551757 0.457582 0.026916 0.033140
C33   C     C_R   0.701309 0.465283 0.970296 0.059279
C34   C     C_R   0.744449 0.441454 0.863474 -0.137386
C35   C     C_R   0.640689 0.422927 0.810956 -0.114848
C36   C     C_R   0.514409 0.473468 0.135459 -0.136429
C37   C     C_R   0.768027 0.505370 0.129123 -0.126097
Cu1   Cu    Cu3+1 0.359340 0.500010 0.500010 0.918789
Cu2   Cu    Cu3+1 0.640660 0.499990 0.499990 0.955983
H1    H     H_    0.852112 0.524049 0.167222 0.135124
H2    H     H_    0.306914 0.328477 0.355977 0.193243
H3    H     H_    0.858985 0.436027 0.820301 0.102572
H4    H     H_    0.083452 0.632144 0.623471 0.136231
H5    H     H_    0.919182 0.507473 0.976965 0.104476
H6    H     H_    0.402245 0.471798 0.181824 0.124271
H7    H     H_    0.152717 0.435688 0.822687 0.124757
H8    H     H_    0.254425 0.405306 0.105284 0.112768
H9    H     H_    0.082487 0.388794 0.007736 0.127992
H10   H     H_    0.681896 0.391398 0.730734 0.158473
H11   H     H_    0.344385 0.775882 0.359340 0.144707
H12   H     H_    0.119737 0.865468 0.349100 0.145133
H13   H     H_    0.042513 0.068628 0.434883 0.153716
H14   H     H_    0.195915 0.186274 0.519164 0.155604
H15   H     H_    0.690708 0.123667 0.544382 0.166747
H16   H     H_    0.824484 0.630286 0.624846 0.167236
H17   H     H_    0.800825 0.333240 0.352292 0.189033
H18   H     H_    0.230085 0.207018 0.231275 0.137147
N1    N     N_R   0.852480 0.498790 0.499000 -0.248129
N2    N     N_R   0.148360 0.498710 0.498970 -0.250749
N3    N     N_1   0.924896 0.126648 0.149800 -0.287766
O1    O     O_R   0.381190 0.680360 0.500010 -0.509138
O2    O     O_R   0.618760 0.680340 0.500000 -0.436031
O3    O     O_R   0.323240 0.499990 0.650990 -0.502570
O4    O     O_R   0.560820 0.499960 0.650980 -0.512581
O5    O     O_R   0.381240 0.319660 0.500000 -0.536445
O6    O     O_R   0.618810 0.319640 0.499990 -0.535860
O7    O     O_R   0.439180 0.500040 0.349020 -0.533489
O8    O     O_R   0.676760 0.500010 0.349010 -0.521305

loop_
_geom_bond_atom_site_label_1
_geom_bond_atom_site_label_2
_ccdc_geom_bond_type
Cu1   O1    S    
C19   H2    S    
C10   C11   A    
C12   C32   A    
C5    C6    A    
C24   N2    A    
C34   H3    S    
C8    C9    A    
C25   C27   S    
C34   C35   A    
C27   C37   A    
C29   C30   A    
C30   H8    S    
C25   O7    A    
Cu2   O8    S    
C26   H5    S    
C18   C19   A    
C13   H15   S    
C2    C23   A    
C6    C7    A    
C18   H18   S    
Cu2   N1    S    
C23   C35   A    
C20   C21   A    
C19   C20   A    
C22   N1    A    
Cu1   O3    S    
Br1   C11   S    
C16   O5    A    
C28   C29   A    
Cu2   O2    S    
C27   C36   A    
C28   H7    S    
Cu1   N2    S    
C24   H4    S    
C4    O4    A    
C29   H9    S    
C11   C13   A    
C31   N3    T    
C32   C33   A    
C15   H17   S    
C22   C24   A    
C26   C33   A    
C8    C14   A    
Cu2   O4    S    
C33   C34   A    
Cu1   O5    S    
C16   O6    A    
C17   C31   S    
C9    C10   A    
C1    C10   S    
C26   C37   A    
C3    C9    A    
Cu1   Cu2   S    
C22   H16   S    
C20   N2    A    
C35   H10   S    
C1    O2    A    
C4    O3    A    
C37   H1    S    
C3    C5    A    
C17   C18   A    
Cu1   O7    S    
C7    H14   S    
C21   N1    A    
C2    C28   A    
C25   O8    A    
C6    H13   S    
C13   C14   A    
C15   C21   A    
C3    H11   S    
C5    H12   S    
C36   H6    S    
C14   C16   S    
C12   C30   A    
C15   C17   A    
C32   C36   A    
C1    O1    A    
C12   C23   A    
C7    C8    A    
C2    C4    S    
Cu2   O6    S    
