data_mof_unit_4323.cif
_audit_creation_date              2012-10-26T20:16:39-0400
_audit_creation_method            fapswitch 2.2
_symmetry_space_group_name_H-M    P1
_symmetry_Int_Tables_number       1
_space_group_crystal_system       triclinic
_cell_length_a                    11.023073
_cell_length_b                    11.010659
_cell_length_c                    9.940637
_cell_angle_alpha                 100.220836
_cell_angle_beta                  98.266762
_cell_angle_gamma                 91.182501
_cell_volume                      1173.70466875

loop_
_atom_site_label
_atom_site_type_symbol
_atom_type_description
_atom_site_fract_x
_atom_site_fract_y
_atom_site_fract_z
_atom_type_partial_charge
C1    C     C_R   0.495917 0.261992 0.499493 0.550406
C2    C     C_R   0.686170 0.939617 0.825645 -0.123395
C3    C     C_R   0.410180 0.070589 0.244914 0.039680
C4    C     C_R   0.562193 0.925735 0.766818 0.033393
C5    C     C_R   0.491466 0.109747 0.163267 0.059593
C6    C     C_R   0.475493 0.877095 0.837234 0.059014
C7    C     C_R   0.444854 0.135842 0.033022 -0.135793
C8    C     C_R   0.514614 0.843888 0.965585 -0.130368
C9    C     C_R   0.319730 0.115965 0.982726 -0.122373
C10   C     C_R   0.637795 0.860889 0.024671 -0.131165
C11   C     C_R   0.466180 0.913661 0.382354 -0.146452
C12   C     C_R   0.500963 0.737891 0.501726 0.551307
C13   C     C_R   0.522655 0.086456 0.625620 -0.156446
C14   C     C_R   0.498804 0.872346 0.506316 0.012042
C15   C     C_R   0.490886 0.127544 0.500125 0.007249
C16   C     C_R   0.262548 0.503453 0.499773 0.547513
C17   C     C_R   0.738036 0.500263 0.499590 0.549729
C18   C     C_R   0.525915 0.960504 0.630439 -0.022461
C19   C     C_R   0.456105 0.038525 0.379068 -0.019305
C20   C     C_2   0.507924 0.510754 0.079374 -0.043086
C21   C     C_2   0.491333 0.489961 0.920703 -0.030157
C22   C     C_R   0.166247 0.539148 0.048269 0.155638
C23   C     C_R   0.873088 0.503486 0.500757 0.000312
C24   C     C_R   0.809594 0.402679 0.887588 0.186329
C25   C     C_R   0.132828 0.557372 0.181773 -0.007352
C26   C     C_R   0.867753 0.411221 0.774442 -0.034512
C27   C     C_R   0.082570 0.459090 0.231386 0.014199
C28   C     C_R   0.919790 0.523779 0.759845 0.012258
C29   C     C_R   0.062079 0.342744 0.145510 -0.116009
C30   C     C_R   0.926180 0.626569 0.867125 -0.079456
C31   C     C_R   0.086774 0.326622 0.009276 -0.017700
C32   C     C_R   0.877382 0.615369 0.987500 -0.029438
C33   C     C_R   0.144456 0.422462 0.963922 -0.111982
C34   C     C_R   0.128559 0.508974 0.496096 0.001484
C35   C     C_R   0.815768 0.505276 0.995273 -0.087222
C36   C     C_R   0.918551 0.478862 0.375312 -0.129453
C37   C     C_R   0.083148 0.536871 0.621251 -0.130564
C38   C     C_1   0.621170 0.122415 0.216375 0.190396
C39   C     C_1   0.347905 0.856902 0.776405 0.195294
C40   C     C_3   0.211342 0.763178 0.062970 -0.315463
C41   C     C_3   0.738932 0.255030 0.017792 -0.301488
C42   C     C_1   0.040385 0.217948 0.910224 0.153504
C43   C     C_1   0.892425 0.714146 0.105529 0.129265
C44   C     C_R   0.957717 0.530442 0.625617 -0.020353
C45   C     C_R   0.044483 0.481233 0.370468 -0.018774
C46   C     C_R   0.240690 0.071895 0.063009 -0.122695
C47   C     C_R   0.723534 0.908413 0.954605 -0.113634
C48   C     C_R   0.284974 0.052679 0.195044 -0.132762
Cu1   Cu    Cu3+1 0.521120 0.521140 0.639640 0.968310
Cu2   Cu    Cu3+1 0.478880 0.478860 0.360360 0.957371
H1    H     H_    0.165602 0.408382 0.859404 0.102421
H2    H     H_    0.383716 0.380661 0.094294 0.219877
H3    H     H_    0.145871 0.646939 0.248762 0.128584
H4    H     H_    0.863631 0.332252 0.691052 0.118033
H5    H     H_    0.023281 0.266560 0.183474 0.116603
H6    H     H_    0.968587 0.713469 0.856925 0.137744
H7    H     H_    0.855537 0.455392 0.280178 0.125521
H8    H     H_    0.145925 0.556704 0.717141 0.151647
H9    H     H_    0.284895 0.131609 0.880067 0.139980
H10   H     H_    0.666119 0.837368 0.125219 0.149369
H11   H     H_    0.145518 0.048073 0.022771 0.148531
H12   H     H_    0.770297 0.501280 0.083376 0.100323
H13   H     H_    0.818858 0.923237 0.000649 0.152109
H14   H     H_    0.222512 0.018887 0.256339 0.123234
H15   H     H_    0.753654 0.976209 0.772321 0.137840
H16   H     H_    0.281127 0.617227 0.931888 0.257503
H17   H     H_    0.240224 0.826072 0.997577 0.166273
H18   H     H_    0.274188 0.776514 0.161852 0.142059
H19   H     H_    0.117779 0.786886 0.082329 0.168636
H20   H     H_    0.751255 0.219938 0.808055 0.253188
H21   H     H_    0.674610 0.311067 0.076134 0.170445
H22   H     H_    0.831023 0.264303 0.079135 0.158517
H23   H     H_    0.503775 0.167790 0.967793 0.105197
H24   H     H_    0.709223 0.156749 0.999090 0.157604
H25   H     H_    0.450666 0.804720 0.020566 0.103733
H26   H     H_    0.448838 0.848396 0.286122 0.119704
H27   H     H_    0.544641 0.152386 0.721211 0.141281
H28   H     H_    0.423857 0.419151 0.864251 0.144574
H29   H     H_    0.574422 0.582401 0.135959 0.146451
H30   H     H_    0.616102 0.619375 0.905303 0.220186
N1    N     N_2   0.447120 0.447110 0.150550 -0.356909
N2    N     N_2   0.552880 0.552890 0.849450 -0.348027
N3    N     N_1   0.724284 0.131399 0.262396 -0.324869
N4    N     N_1   0.245912 0.840644 0.726886 -0.308907
N5    N     N_2   0.212542 0.637441 0.991437 -0.536633
N6    N     N_2   0.740940 0.292024 0.886817 -0.521363
N7    N     N_1   0.002274 0.131485 0.829662 -0.334509
N8    N     N_1   0.905468 0.792427 0.201674 -0.325592
O1    O     O_R   0.517830 0.337490 0.617920 -0.503112
O2    O     O_R   0.482170 0.662510 0.382080 -0.514523
O3    O     O_R   0.482150 0.301790 0.382070 -0.486458
O4    O     O_R   0.517850 0.698210 0.617930 -0.487706
O5    O     O_R   0.337480 0.517860 0.617920 -0.514548
O6    O     O_R   0.662520 0.482140 0.382080 -0.509084
O7    O     O_R   0.301810 0.482160 0.382070 -0.492571
O8    O     O_R   0.698190 0.517840 0.617930 -0.486781

loop_
_geom_bond_atom_site_label_1
_geom_bond_atom_site_label_2
_ccdc_geom_bond_type
C40   N5    S    
C31   C42   S    
C38   N3    T    
C27   C29   A    
C34   C37   A    
C14   C18   A    
C10   H10   S    
C2    H15   S    
H16   N5    S    
C7    H23   S    
C15   C19   A    
C41   N6    S    
C11   C19   A    
C16   O5    A    
C17   C23   S    
C13   C18   A    
C43   N8    T    
C12   O2    A    
C25   H3    S    
C39   N4    T    
C11   H26   S    
C47   H13   S    
C11   C14   A    
Cu2   O7    S    
C48   H14   S    
C3    C48   A    
C22   C25   A    
C22   N5    S    
C16   C34   S    
C41   H24   S    
Cu2   O2    S    
C40   H17   S    
C21   H28   S    
C31   C33   A    
C3    C19   S    
C1    C15   S    
C37   H8    S    
C41   H21   S    
C4    C18   S    
C27   C45   S    
C9    C46   A    
C1    O3    A    
C20   N1    D    
C26   H4    S    
C46   C48   A    
C13   H27   S    
C24   C35   A    
C40   H19   S    
C46   H11   S    
C32   C35   A    
H30   N2    S    
C36   H7    S    
C34   C45   A    
Cu2   O6    S    
C6    C8    A    
C29   H5    S    
C30   H6    S    
C28   C44   S    
C8    H25   S    
C23   C44   A    
C9    H9    S    
Cu1   N2    S    
C2    C4    A    
C36   C45   A    
C17   O8    A    
C21   N2    D    
C41   H22   S    
C4    C6    A    
C12   C14   S    
Cu1   Cu2   S    
C13   C15   A    
C33   H1    S    
Cu1   O4    S    
H20   N6    S    
C5    C7    A    
C7    C9    A    
C22   C33   A    
C16   O7    A    
C1    O1    A    
C20   H29   S    
C12   O4    A    
C24   C26   A    
Cu1   O1    S    
C3    C5    A    
C42   N7    T    
C2    C47   A    
C25   C27   A    
C26   C28   A    
C37   C44   A    
C28   C30   A    
C29   C31   A    
C30   C32   A    
C32   C43   S    
C35   H12   S    
Cu1   O8    S    
H2    N1    S    
Cu2   O3    S    
C20   C21   S    
C8    C10   A    
C23   C36   A    
C40   H18   S    
C10   C47   A    
C6    C39   S    
C17   O6    A    
Cu1   O5    S    
C5    C38   S    
C24   N6    S    
Cu2   N1    S    
