data_mof_unit_3902.cif
_audit_creation_date              2013-03-05T16:47:43-0500
_audit_creation_method            fapswitch 2.2
_symmetry_space_group_name_H-M    P1
_symmetry_Int_Tables_number       1
_space_group_crystal_system       triclinic
_cell_length_a                    10.97284
_cell_length_b                    12.959547
_cell_length_c                    11.699851
_cell_angle_alpha                 99.843301
_cell_angle_beta                  94.891044
_cell_angle_gamma                 90.782149
_cell_volume                      1632.61773934

loop_
_atom_site_label
_atom_site_type_symbol
_atom_site_description
_atom_site_fract_x
_atom_site_fract_y
_atom_site_fract_z
_atom_type_partial_charge
O1    O     O_R   0.506570 0.354460 0.582000 -0.574306
O2    O     O_R   0.493430 0.645540 0.418000 -0.594775
O3    O     O_R   0.490940 0.341410 0.386200 -0.598055
O4    O     O_R   0.509060 0.658590 0.613800 -0.593642
C1    C     C_R   0.498544 0.299674 0.478799 0.901127
C2    C     C_R   0.504250 0.700899 0.521460 0.786519
O5    O     O_R   0.327460 0.506540 0.597900 -0.509793
O6    O     O_R   0.672540 0.493460 0.402100 -0.530280
O7    O     O_R   0.311830 0.493480 0.402100 -0.601789
O8    O     O_R   0.688170 0.506520 0.597900 -0.603941
C3    C     C_R   0.262096 0.499488 0.499336 0.934372
C4    C     C_R   0.737915 0.499708 0.500535 0.844649
Cu1   Cu    Cu3+1 0.509250 0.507730 0.615930 1.028816
Cu2   Cu    Cu3+1 0.490750 0.492270 0.384070 1.018248
H1    H     H_    0.202626 0.508706 0.972133 0.227927
H2    H     H_    0.794629 0.487940 0.026119 0.229176
C5    C     C_R   0.184669 0.603960 0.139236 0.272764
C6    C     C_R   0.813740 0.392647 0.859188 0.277213
C7    C     C_R   0.145136 0.606523 0.251968 -0.069110
C8    C     C_R   0.854619 0.389873 0.746900 -0.059533
C9    C     C_R   0.102522 0.511640 0.282533 0.079923
C10   C     C_R   0.897472 0.484809 0.716586 0.079438
C11   C     C_R   0.095578 0.418809 0.200562 -0.072100
C12   C     C_R   0.903979 0.577639 0.798488 -0.085959
H3    H     H_    0.061450 0.347357 0.224727 0.203392
H4    H     H_    0.938295 0.649086 0.774452 0.205311
C13   C     C_R   0.127545 0.418062 0.087531 -0.060502
C14   C     C_R   0.870955 0.578527 0.911168 -0.060422
C15   C     C_R   0.172704 0.510409 0.057946 -0.262541
C16   C     C_R   0.825218 0.486241 0.940496 -0.262836
C17   C     C_R   0.926449 0.505870 0.397372 0.327149
C18   C     C_R   0.073539 0.490249 0.601715 0.348082
C19   C     C_R   0.871853 0.498681 0.500922 -0.196747
C20   C     C_R   0.128141 0.498655 0.498507 -0.183691
C21   C     C_R   0.946814 0.489996 0.603267 -0.069468
C22   C     C_R   0.053193 0.506776 0.395987 -0.079902
C23   C     C_R   0.505508 0.814874 0.534971 -0.165978
C24   C     C_R   0.510382 0.187771 0.468747 -0.028917
C25   C     C_R   0.646900 0.043392 0.431437 0.015209
C26   C     C_R   0.417845 0.976069 0.624838 -0.047431
C27   C     C_R   0.616463 0.145974 0.424846 -0.269083
C28   C     C_R   0.435765 0.869178 0.618607 -0.093578
C29   C     C_R   0.432243 0.128442 0.523375 -0.096588
C30   C     C_R   0.573351 0.869293 0.465855 -0.052036
C31   C     C_R   0.470375 0.028735 0.543328 -0.035094
C32   C     C_R   0.565530 0.979721 0.479744 0.156540
H5    H     H_    0.392050 0.826948 0.677185 0.213674
H6    H     H_    0.679637 0.196111 0.391188 0.179464
N1    N     N_R   0.523180 0.519350 0.790130 -0.199598
N2    N     N_R   0.476820 0.480650 0.209870 -0.204395
C33   C     C_R   0.429401 0.374807 0.019283 -0.271762
C34   C     C_R   0.570231 0.625086 0.980666 -0.261712
C35   C     C_R   0.429915 0.390258 0.141561 0.111637
C36   C     C_R   0.569726 0.609809 0.858468 0.099847
C37   C     C_R   0.523854 0.557983 0.158074 0.156428
C38   C     C_R   0.476226 0.441717 0.841699 0.153847
C39   C     C_R   0.523583 0.546409 0.035052 0.045032
C40   C     C_R   0.476237 0.453340 0.964761 0.040021
H7    H     H_    0.436920 0.371119 0.787440 0.158897
H8    H     H_    0.563482 0.628210 0.212111 0.164609
H9    H     H_    0.606528 0.671404 0.818666 0.146856
H10   H     H_    0.392883 0.328811 0.181438 0.150908
H11   H     H_    0.392093 0.302000 0.967859 0.159488
H12   H     H_    0.607337 0.697922 0.032151 0.190832
N3    N     N_R   0.240227 0.694655 0.106849 0.113177
O9    O     O_R   0.223087 0.711520 0.000271 -0.248003
O10   O     O_R   0.322560 0.751227 0.178158 -0.364177
N4    N     N_R   0.757470 0.302090 0.891156 0.112304
O11   O     O_R   0.774410 0.284818 0.997590 -0.264994
O12   O     O_R   0.674367 0.246462 0.819835 -0.402576
C41   C     C_2   0.142174 0.708866 0.332237 0.461369
H13   H     H_    0.142213 0.781414 0.297802 0.135462
O13   O     O_2   0.139974 0.714267 0.437179 -0.546122
C42   C     C_2   0.858821 0.287313 0.667030 0.439345
H14   H     H_    0.852808 0.214659 0.700662 0.143017
O14   O     O_2   0.869723 0.281764 0.563272 -0.568143
C43   C     C_2   0.115845 0.320809 0.999999 0.400753
H15   H     H_    0.144012 0.320646 0.913567 0.118470
O15   O     O_2   0.074758 0.239583 0.023244 -0.470349
C44   C     C_2   0.881771 0.676031 0.998341 0.403037
H16   H     H_    0.850968 0.676925 0.083869 0.130881
O16   O     O_2   0.924899 0.756755 0.975700 -0.467980
N5    N     N_R   0.853948 0.512504 0.291250 0.111965
O17   O     O_R   0.827754 0.603515 0.264853 -0.441984
O18   O     O_R   0.812553 0.427407 0.222403 -0.332660
N6    N     N_R   0.146037 0.482164 0.707417 0.113320
O19   O     O_R   0.176694 0.390706 0.729859 -0.398244
O20   O     O_R   0.186548 0.566671 0.777817 -0.335496
C45   C     C_2   0.642549 0.809009 0.374029 0.461228
H17   H     H_    0.693811 0.741713 0.391841 0.103768
O21   O     O_2   0.639282 0.831991 0.276849 -0.531980
C46   C     C_2   0.303719 0.161330 0.540710 0.356895
H18   H     H_    0.236540 0.105907 0.559655 0.111651
O22   O     O_2   0.268875 0.248207 0.528588 -0.527079
C47   C     C_2   0.773090 0.014153 0.405162 0.474085
H19   H     H_    0.816616 0.047947 0.339653 0.109590
O23   O     O_2   0.832340 0.957813 0.461301 -0.528364
C48   C     C_2   0.357660 0.032939 0.725491 0.407610
H20   H     H_    0.369472 0.117317 0.750141 0.076516
O24   O     O_2   0.295868 0.986133 0.783293 -0.468122

loop_
_geom_bond_atom_site_label_1
_geom_bond_atom_site_label_2
_geom_bond_distance
_ccdc_geom_bond_type
C13   C15   1.397251 A    
C5    C15   1.404200 A    
C7    C41   1.490863 S    
C47   H19   1.085739 S    
C25   C27   1.388380 A    
C9    C22   1.486308 S    
C43   H15   1.082008 S    
O5    C3    1.293732 A    
C10   C21   1.485702 S    
C42   O14   1.219967 D    
O1    C1    1.287168 A    
C7    C9    1.421875 A    
C12   H4    1.084330 S    
C26   C48   1.488381 S    
N6    O20   1.300489 A    
H2    C16   1.080136 S    
N1    C36   1.366739 A    
C23   C28   1.394760 A    
C17   N5    1.432407 S    
O4    Cu1   1.959520 S    
Cu1   Cu2   2.675704 S    
C5    C7    1.418406 A    
C30   C32   1.417056 A    
N4    O11   1.300885 A    
N3    O10   1.301539 A    
C17   C19   1.412856 A    
C6    C16   1.404609 A    
C11   C13   1.395281 A    
C45   O21   1.221415 D    
C20   C22   1.415427 A    
C26   C28   1.392223 A    
C1    C24   1.443344 S    
O2    C2    1.292392 A    
O2    Cu2   1.957216 S    
C34   C36   1.408942 A    
H1    C15   1.079411 S    
C43   O15   1.221116 D    
C26   C31   1.418841 A    
N2    C35   1.367185 A    
C42   H14   1.084043 S    
C18   C21   1.392170 A    
C33   H11   1.083153 S    
C24   C27   1.391469 A    
C44   O16   1.221123 D    
C34   H12   1.082999 S    
C41   O13   1.220120 D    
N6    O19   1.299683 A    
C13   C43   1.478383 S    
C31   C32   1.426911 A    
C33   C35   1.409785 A    
C18   C20   1.412618 A    
O7    Cu2   1.992351 S    
C29   C31   1.414382 A    
C35   H10   1.080485 S    
N5    O17   1.299154 A    
O6    C4    1.293507 A    
N2    C37   1.372906 A    
C18   N6    1.432497 S    
C46   O22   1.221074 D    
C2    C23   1.458125 S    
C8    C42   1.492081 S    
C33   C40   1.403721 A    
O7    C3    1.294165 A    
C25   C47   1.484069 S    
O3    Cu2   1.959519 S    
O8    C4    1.294750 A    
C25   C32   1.422283 A    
Cu1   N1    2.010290 S    
O4    C2    1.290049 A    
N5    O18   1.300606 A    
C8    C10   1.422127 A    
C48   H20   1.085190 S    
C48   O24   1.221574 D    
C37   C39   1.421137 A    
C10   C12   1.400871 A    
O1    Cu1   1.957215 S    
O6    Cu2   1.987478 S    
C3    C20   1.468953 S    
C12   C14   1.394941 A    
C44   H16   1.081455 S    
O3    C1    1.288193 A    
O8    Cu1   1.992351 S    
C47   O23   1.221195 D    
C36   H9    1.080498 S    
N1    C38   1.374073 A    
C5    N3    1.438339 S    
C29   C46   1.499098 S    
C38   H7    1.081689 S    
C23   C30   1.410237 A    
C9    C11   1.401244 A    
C45   H17   1.084414 S    
C24   C29   1.406519 A    
C39   C40   1.404246 A    
Cu2   N2    2.010289 S    
C14   C16   1.397599 A    
C46   H18   1.084557 S    
C19   C21   1.415527 A    
C27   H6    1.086051 S    
C38   C40   1.421812 A    
C6    C8    1.418875 A    
C28   H5    1.084647 S    
C11   H3    1.084306 S    
C14   C44   1.478382 S    
C34   C39   1.403433 A    
O5    Cu1   1.987478 S    
C41   H13   1.084345 S    
N4    O12   1.301597 A    
N3    O9    1.300884 A    
C17   C22   1.392137 A    
C4    C19   1.469548 S    
C37   H8    1.078278 S    
C6    N4    1.438088 S    
C30   C45   1.486421 S    
