data_mof_unit_4550.cif
_audit_creation_date              2012-12-11T16:09:02-0500
_audit_creation_method            fapswitch 2.2
_symmetry_space_group_name_H-M    P1
_symmetry_Int_Tables_number       1
_space_group_crystal_system       triclinic
_cell_length_a                    12.979166
_cell_length_b                    13.276857
_cell_length_c                    27.711456
_cell_angle_alpha                 95.012277
_cell_angle_beta                  90.026407
_cell_angle_gamma                 119.310249
_cell_volume                      4142.91801194

loop_
_atom_site_label
_atom_site_type_symbol
_atom_type_description
_atom_site_fract_x
_atom_site_fract_y
_atom_site_fract_z
_atom_type_partial_charge
C1    C     C_R   0.627947 0.895204 0.427476 0.547285
C2    C     C_R   0.190978 0.752447 0.297520 0.008337
C3    C     C_R   0.177887 0.747769 0.197011 0.009713
C4    C     C_R   0.600999 0.221770 0.440491 0.546073
C5    C     C_R   0.192543 0.663216 0.218012 -0.131515
C6    C     C_R   0.197064 0.664432 0.268106 -0.133748
C7    C     C_R   0.161715 0.740002 0.147171 -0.129710
C8    C     C_R   0.128102 0.812851 0.126529 -0.005846
C9    C     C_R   0.197109 0.938688 0.356818 -0.137271
C10   C     C_R   0.178284 0.931209 0.306586 0.010847
C11   C     C_R   0.179929 0.840074 0.276839 0.060528
C12   C     C_R   0.581009 0.255159 0.219838 -0.104607
C13   C     C_R   0.163099 0.015463 0.285314 -0.134075
C14   C     C_R   0.148540 0.008673 0.234923 -0.132950
C15   C     C_R   0.152217 0.919361 0.205239 0.010219
C16   C     C_R   0.269558 0.876101 0.425448 0.546333
C17   C     C_R   0.171003 0.836427 0.226348 0.059674
C18   C     C_R   0.130186 0.906745 0.155104 -0.136230
C19   C     C_R   0.213854 0.854021 0.376977 -0.004274
C20   C     C_R   0.753566 0.935891 0.357751 -0.129204
C21   C     C_R   0.759204 0.926458 0.307796 0.012572
C22   C     C_R   0.761783 0.915971 0.207066 0.011891
C23   C     C_R   0.569706 0.239378 0.269178 -0.102849
C24   C     C_R   0.853680 0.009669 0.235346 -0.127087
C25   C     C_R   0.853341 0.013965 0.285562 -0.126207
C26   C     C_R   0.765975 0.908046 0.157137 -0.126885
C27   C     C_R   0.685123 0.805992 0.128902 -0.005238
C28   C     C_R   0.627362 0.898505 0.564840 0.547655
C29   C     C_R   0.562143 0.759516 0.352131 -0.133167
C30   C     C_R   0.569038 0.745811 0.301918 0.014419
C31   C     C_R   0.665718 0.832215 0.279591 0.062178
C32   C     C_R   0.478221 0.651153 0.273382 -0.127108
C33   C     C_R   0.483378 0.642154 0.222913 -0.126902
C34   C     C_R   0.663460 0.311713 0.302770 0.035984
C35   C     C_R   0.577946 0.729188 0.200433 0.014511
C36   C     C_R   0.668140 0.825866 0.229011 0.062343
C37   C     C_R   0.587773 0.718961 0.150195 -0.135371
C38   C     C_R   0.651408 0.858049 0.379628 -0.005012
C39   C     C_R   0.740131 0.302135 0.652113 -0.136083
C40   C     C_R   0.602393 0.226523 0.578674 0.545402
C41   C     C_R   0.753236 0.322647 0.702728 0.010354
C42   C     C_R   0.771124 0.350945 0.804610 0.007043
C43   C     C_R   0.865470 0.355998 0.778176 -0.134428
C44   C     C_R   0.855985 0.340462 0.727500 -0.134128
C45   C     C_R   0.686416 0.343033 0.203748 0.035454
C46   C     C_R   0.781486 0.372525 0.855116 -0.135216
C47   C     C_R   0.688053 0.372972 0.880574 -0.005164
C48   C     C_R   0.548163 0.292439 0.654878 -0.127734
C49   C     C_R   0.556713 0.305663 0.705009 0.004546
C50   C     C_R   0.659091 0.319906 0.729210 0.061278
C51   C     C_R   0.461511 0.298651 0.731162 -0.113308
C52   C     C_R   0.271704 0.879483 0.563416 0.547005
C53   C     C_R   0.467352 0.305207 0.781443 -0.096249
C54   C     C_R   0.569861 0.322449 0.805954 0.013803
C55   C     C_R   0.666516 0.330354 0.779933 0.060710
C56   C     C_1   0.694830 0.366391 0.153693 -0.057852
C57   C     C_R   0.579807 0.339242 0.856136 -0.118410
C58   C     C_R   0.635325 0.282209 0.628347 -0.004435
C59   C     C_1   0.221778 0.863068 0.610115 -0.012431
C60   C     C_R   0.078968 0.745103 0.718124 -0.099512
C61   C     C_R   0.064307 0.735123 0.767775 -0.098642
C62   C     C_R   0.229504 0.930071 0.785859 -0.102341
C63   C     C_R   0.244134 0.940074 0.736162 -0.104660
C64   C     C_1   0.632468 0.267484 0.394426 -0.014342
C65   C     C_R   0.169293 0.847390 0.702205 0.035305
C66   C     C_R   0.140245 0.827072 0.801748 0.037926
C67   C     C_1   0.650343 0.292760 0.353323 -0.058507
C68   C     C_1   0.123722 0.814706 0.852667 -0.053316
C69   C     C_1   0.192669 0.854338 0.651504 -0.057150
C70   C     C_1   0.100464 0.797346 0.894275 -0.009767
C71   C     C_1   0.648546 0.859296 0.608587 -0.010355
C72   C     C_R   0.785614 0.880549 0.722780 -0.117456
C73   C     C_R   0.796852 0.864829 0.771343 -0.150557
C74   C     C_R   0.597994 0.699466 0.765289 0.259982
C75   C     C_R   0.587135 0.715663 0.716590 -0.069529
C76   C     C_R   0.769358 0.398972 0.286678 -0.106111
C77   C     C_R   0.680282 0.806964 0.695411 -0.004646
C78   C     C_1   0.703267 0.394215 0.112983 -0.013319
C79   C     C_R   0.702742 0.775714 0.793098 0.048258
C80   C     C_1   0.714596 0.766074 0.844072 0.007388
C81   C     C_1   0.663910 0.832437 0.647365 -0.052176
C82   C     C_1   0.727676 0.760164 0.886673 0.016399
C83   C     C_R   0.065545 0.773243 0.078995 0.550361
C84   C     C_R   0.716954 0.441386 0.067277 0.547617
C85   C     C_R   0.720463 0.782896 0.081016 0.558690
C86   C     C_R   0.056608 0.766269 0.941247 0.539343
C87   C     C_R   0.710071 0.433106 0.929310 0.537743
C88   C     C_R   0.780671 0.414776 0.237269 -0.104381
C89   C     C_R   0.201850 0.757104 0.347378 -0.130101
C90   C     C_R   0.749104 0.754121 0.936941 0.560753
Cl1   Cl    Cl    0.478087 0.585157 0.790746 -0.633014
Cr1   Cr    Cr6+3 0.416430 0.829200 0.492370 1.022715
Cr2   Cr    Cr6+3 0.674630 0.087020 0.504170 1.022886
Cr3   Cr    Cr6+3 0.408920 0.083740 0.503490 1.021595
Cr4   Cr    Cr6+3 0.914010 0.832750 0.013970 1.017260
Cr5   Cr    Cr6+3 0.922310 0.578600 0.003000 1.022210
Cr6   Cr    Cr6+3 0.656280 0.574630 0.003870 1.037163
H1    H     H_    0.842639 0.454951 0.312234 0.112211
H2    H     H_    0.413429 0.567531 0.201501 0.103983
H3    H     H_    0.403406 0.584255 0.290083 0.099952
H4    H     H_    0.862194 0.483913 0.225298 0.119289
H5    H     H_    0.483737 0.698348 0.369150 0.122597
H6    H     H_    0.864865 0.397252 0.874042 0.135041
H7    H     H_    0.807998 0.295333 0.631638 0.125134
H8    H     H_    0.946457 0.372064 0.796673 0.124834
H9    H     H_    0.929006 0.342856 0.707711 0.117848
H10   H     H_    0.506631 0.337296 0.875740 0.145105
H11   H     H_    0.392980 0.299699 0.801183 0.141305
H12   H     H_    0.134026 0.072866 0.219193 0.102025
H13   H     H_    0.381917 0.286305 0.712706 0.122299
H14   H     H_    0.467501 0.278875 0.636889 0.138582
H15   H     H_    0.021397 0.672524 0.692270 0.116487
H16   H     H_    0.507121 0.200039 0.194404 0.114899
H17   H     H_    0.994468 0.655281 0.779696 0.121748
H18   H     H_    0.288217 0.001930 0.811758 0.113600
H19   H     H_    0.315087 0.019196 0.724229 0.117190
H20   H     H_    0.857915 0.951993 0.706961 0.125968
H21   H     H_    0.878219 0.923790 0.792247 0.120887
H22   H     H_    0.505120 0.658914 0.695683 0.143679
H23   H     H_    0.161533 0.085871 0.307621 0.104889
H24   H     H_    0.487587 0.171125 0.281180 0.120356
H25   H     H_    0.162812 0.668958 0.125084 0.133944
H26   H     H_    0.212700 0.690125 0.362596 0.131575
H27   H     H_    0.197239 0.594450 0.195719 0.104773
H28   H     H_    0.206921 0.597542 0.283856 0.099841
H29   H     H_    0.105871 0.964260 0.139054 0.124373
H30   H     H_    0.205286 0.013057 0.379671 0.123329
H31   H     H_    0.840111 0.977001 0.140889 0.132808
H32   H     H_    0.823724 0.010966 0.378960 0.132385
H33   H     H_    0.926744 0.078483 0.218626 0.100060
H34   H     H_    0.925172 0.086949 0.306979 0.102971
H35   H     H_    0.524449 0.640707 0.128335 0.125151
O1    O     O_R   0.296680 0.802170 0.437540 -0.524622
O2    O     O_R   0.637200 0.461990 0.052510 -0.509812
O3    O     O_R   0.664790 0.681920 0.057970 -0.494789
O4    O     O_R   0.525380 0.838530 0.443500 -0.503336
O5    O     O_R   0.815840 0.852920 0.961840 -0.507739
O6    O     O_R   0.012100 0.822630 0.963670 -0.514710
O7    O     O_R   0.037010 0.668460 0.953040 -0.502998
O8    O     O_R   0.813390 0.478970 0.949660 -0.505849
O9    O     O_R   0.632250 0.456930 0.945520 -0.519013
O10   O     O_R   0.660200 0.677230 0.958780 -0.475492
O11   O     O_3   0.830870 0.661990 0.006950 -0.269002
O12   O     O_R   0.662610 0.183990 0.557860 -0.500484
O13   O     O_R   0.702130 0.995190 0.446810 -0.519715
O14   O     O_R   0.661770 0.181390 0.458760 -0.494286
O15   O     O_R   0.499820 0.198480 0.455280 -0.509378
O16   O     O_R   0.311660 0.976250 0.449080 -0.500121
O17   O     O_R   0.297580 0.804960 0.544440 -0.505803
O18   O     O_R   0.526220 0.841130 0.542590 -0.494069
O19   O     O_R   0.703030 0.997990 0.553710 -0.509886
O20   O     O_R   0.500730 0.201280 0.562180 -0.521189
O21   O     O_R   0.312500 0.978850 0.548170 -0.496433
O22   O     O_3   0.499990 0.999990 0.500010 -0.242930
O23   O     O_R   0.820790 0.857990 0.068830 -0.519286
O24   O     O_R   0.016700 0.827330 0.062850 -0.501903
O25   O     O_R   0.041970 0.673520 0.060040 -0.515818
O26   O     O_R   0.817980 0.483660 0.048840 -0.491625

loop_
_geom_bond_atom_site_label_1
_geom_bond_atom_site_label_2
_ccdc_geom_bond_type
C15   C18   A    
Cr5   O26   S    
C63   C65   A    
C28   O18   A    
C14   H12   S    
C8    C83   S    
C66   C68   S    
Cr1   O1    S    
C20   H32   S    
C90   O5    A    
Cr5   O7    S    
C88   H4    S    
C7    C8    A    
C39   C41   A    
C2    C6    A    
C53   C54   A    
Cr4   O11   S    
C21   C31   A    
C5    H27   S    
C84   O2    A    
C26   C27   A    
C29   C30   A    
C19   C89   A    
Cr2   O22   S    
C35   C37   A    
C3    C7    A    
Cr3   O21   S    
C85   O23   A    
C30   C31   A    
C16   O1    A    
Cr3   O20   S    
C56   C78   T    
C40   O20   A    
C15   C17   A    
Cr4   O24   S    
C43   H8    S    
C27   C85   S    
Cr6   O11   S    
C21   C25   A    
C46   C47   A    
C1    O13   A    
C61   C66   A    
C9    C19   A    
C35   C36   A    
C45   C56   S    
C52   O17   A    
C49   C51   A    
C72   H20   S    
Cr2   O13   S    
C1    O4    A    
C9    C10   A    
C87   O8    A    
Cr5   O25   S    
C13   C14   A    
Cr1   O4    S    
C42   C46   A    
Cr6   O2    S    
C2    C11   A    
Cr3   O16   S    
Cr4   O5    S    
C40   C58   S    
C74   C75   A    
C62   C66   A    
C64   C67   T    
C39   H7    S    
C45   C88   A    
C75   H22   S    
C24   C25   A    
C23   H24   S    
C84   O26   A    
C72   C73   A    
C12   C23   A    
C83   O24   A    
C89   H26   S    
C52   O21   A    
C4    O15   A    
C8    C18   A    
C32   H3    S    
C60   C61   A    
C33   H2    S    
C47   C87   S    
C74   Cl1   S    
C29   C38   A    
C2    C89   A    
C43   C44   A    
C72   C77   A    
C60   H15   S    
C52   C59   S    
C24   H33   S    
C42   C55   A    
C47   C57   A    
C20   C38   A    
C83   O25   A    
C77   C81   S    
Cr3   O22   S    
C23   C34   A    
C4    O14   A    
C62   C63   A    
C73   C79   A    
Cr2   O14   S    
C26   H31   S    
C87   O9    A    
C75   C77   A    
Cr6   O9    S    
C90   O10   A    
Cr2   O12   S    
C1    C38   S    
C59   C69   T    
C63   H19   S    
C86   O7    A    
C80   C82   T    
C48   C49   A    
C57   H10   S    
C85   O3    A    
C60   C65   A    
C51   H13   S    
C74   C79   A    
C40   O12   A    
Cr1   O18   S    
C41   C44   A    
C22   C24   A    
Cr2   O19   S    
C28   C71   S    
C42   C43   A    
Cr6   O3    S    
C7    H25   S    
C70   C86   S    
C41   C50   A    
C61   H17   S    
C13   H23   S    
C12   H16   S    
Cr3   O15   S    
C9    H30   S    
C76   C88   A    
C54   C55   A    
C11   C17   A    
Cr4   O6    S    
C73   H21   S    
C14   C15   A    
C6    H28   S    
C12   C45   A    
C3    C5    A    
C10   C13   A    
C34   C67   S    
Cr5   O8    S    
C48   C58   A    
C44   H9    S    
C22   C36   A    
C46   H6    S    
C4    C64   S    
C50   C55   A    
C82   C90   S    
C37   H35   S    
C16   O16   A    
C32   C33   A    
C62   H18   S    
C18   H29   S    
Cr5   O11   S    
C30   C32   A    
C39   C58   A    
C53   H11   S    
C5    C6    A    
C27   C37   A    
C16   C19   S    
C65   C69   S    
C33   C35   A    
C29   H5    S    
C3    C17   A    
Cr4   O23   S    
Cr6   O10   S    
C10   C11   A    
C86   O6    A    
C79   C80   S    
C78   C84   S    
C48   H14   S    
C20   C21   A    
C28   O19   A    
C68   C70   T    
C49   C50   A    
C22   C26   A    
Cr1   O17   S    
C31   C36   A    
Cr1   O22   S    
C51   C53   A    
C76   H1    S    
C34   C76   A    
C71   C81   T    
C54   C57   A    
C25   H34   S    
