data_mof_unit_2228.cif
_audit_creation_date              2012-12-10T18:33:36-0500
_audit_creation_method            fapswitch 2.2
_symmetry_space_group_name_H-M    P1
_symmetry_Int_Tables_number       1
_space_group_crystal_system       triclinic
_cell_length_a                    10.514029
_cell_length_b                    14.972892
_cell_length_c                    15.522718
_cell_angle_alpha                 82.137018
_cell_angle_beta                  89.82177
_cell_angle_gamma                 104.58275
_cell_volume                      2340.9143

loop_
_atom_site_label
_atom_site_type_symbol
_atom_type_description
_atom_site_fract_x
_atom_site_fract_y
_atom_site_fract_z
_atom_type_partial_charge
C1    C     C_R   0.479468 0.441653 0.662080 0.897843
C2    C     C_R   0.428231 0.480884 0.046851 -0.003759
C3    C     C_R   0.395572 0.384350 0.078738 -0.297895
C4    C     C_R   0.428958 0.603295 0.926329 -0.283134
C5    C     C_R   0.381867 0.317223 0.022644 0.479101
C6    C     C_R   0.444707 0.669880 0.982831 0.446237
C7    C     C_R   0.702131 0.842758 0.635374 -0.118029
C8    C     C_R   0.303083 0.158218 0.361556 -0.139913
C9    C     C_R   0.665269 0.752978 0.613046 -0.040480
C10   C     C_R   0.336583 0.247260 0.385791 -0.046499
C11   C     C_R   0.516845 0.794828 0.510112 -0.049314
C12   C     C_R   0.517239 0.558268 0.337969 0.881477
C13   C     C_R   0.484614 0.205688 0.489132 -0.050759
C14   C     C_R   0.548667 0.887221 0.528420 -0.007756
C15   C     C_R   0.456550 0.114102 0.468812 -0.005333
C16   C     C_R   0.742376 0.500721 0.500678 0.912438
C17   C     C_R   0.257489 0.499137 0.499667 0.905162
C18   C     C_R   0.638821 0.909905 0.595198 0.080121
C19   C     C_R   0.368021 0.091685 0.401050 0.081632
C20   C     C_R   0.491436 0.956375 0.484109 0.087532
C21   C     C_R   0.515657 0.045484 0.512207 0.083617
C22   C     C_R   0.596706 0.062713 0.583570 -0.208856
C23   C     C_R   0.458146 0.470888 0.811714 -0.212400
C24   C     C_R   0.412871 0.939737 0.411551 -0.204532
C25   C     C_R   0.658442 0.997208 0.622860 -0.133983
C26   C     C_R   0.351780 0.005411 0.371714 -0.142867
C27   C     C_3   0.932762 0.429807 0.558229 0.028340
C28   C     C_3   0.066575 0.569655 0.442970 0.028830
C29   C     C_3   0.046722 0.509156 0.580580 -0.235276
C30   C     C_3   0.952774 0.490275 0.420647 -0.238472
C31   C     C_3   0.121928 0.497883 0.499506 -0.084941
C32   C     C_3   0.877684 0.501635 0.501559 -0.088484
C33   C     C_3   0.009627 0.417487 0.477989 -0.159848
C34   C     C_R   0.490943 0.527331 0.188255 -0.211968
C35   C     C_3   0.989839 0.581936 0.523220 -0.158647
C36   C     C_R   0.453610 0.406285 0.754527 -0.039959
C37   C     C_R   0.510618 0.592436 0.245942 -0.024904
C38   C     C_R   0.391835 0.280954 0.874578 -0.169281
C39   C     C_R   0.485967 0.710624 0.129236 -0.184052
C40   C     C_R   0.418371 0.310834 0.785817 -0.209295
C41   C     C_R   0.508860 0.684682 0.216370 -0.198650
C42   C     C_2   0.809762 0.863780 0.697102 0.860600
C43   C     C_2   0.197193 0.137233 0.298500 0.876982
C44   C     C_2   0.853150 0.352758 0.623424 0.895797
C45   C     C_R   0.425884 0.442767 0.899997 0.056328
C46   C     C_2   0.143430 0.647077 0.377112 0.891413
C47   C     C_3   0.443228 0.194632 0.103659 0.117440
C48   C     C_3   0.530291 0.158011 0.045153 -0.406103
C49   C     C_3   0.629881 0.117166 0.097764 -0.909424
C50   C     C_3   0.562739 0.814406 0.922785 0.075902
C51   C     C_3   0.557511 0.916359 0.903641 -0.338392
C52   C     C_3   0.694631 0.981832 0.885788 -0.932999
C53   C     C_R   0.458609 0.549835 0.102593 0.072028
C54   C     C_R   0.398797 0.346298 0.932712 0.057165
C55   C     C_R   0.462683 0.644082 0.071319 0.063694
C56   C     C_R   0.428267 0.509425 0.956726 0.004328
H1    H     H_    0.088726 0.515741 0.645652 0.166449
H2    H     H_    0.978279 0.648824 0.541189 0.186666
H3    H     H_    0.502941 0.458656 0.211031 0.149683
H4    H     H_    0.492060 0.543990 0.786837 0.163404
H5    H     H_    0.522612 0.736046 0.260616 0.158189
H6    H     H_    0.412842 0.259583 0.742098 0.163402
H7    H     H_    0.367716 0.206844 0.897488 0.177139
H8    H     H_    0.485946 0.782525 0.107659 0.172264
H9    H     H_    0.374953 0.359009 0.147185 0.185558
H10   H     H_    0.412081 0.626224 0.859299 0.166803
H11   H     H_    0.717862 0.015079 0.677612 0.189482
H12   H     H_    0.910824 0.483654 0.355563 0.165380
H13   H     H_    0.295367 0.988547 0.315408 0.187031
H14   H     H_    0.973854 0.954170 0.729288 0.351972
H15   H     H_    0.037025 0.045655 0.262860 0.353551
H16   H     H_    0.731754 0.316665 0.730220 0.336486
H17   H     H_    0.248661 0.683830 0.263649 0.344833
H18   H     H_    0.394770 0.136855 0.155200 0.176216
H19   H     H_    0.505151 0.249973 0.137893 0.117723
H20   H     H_    0.467751 0.102990 0.011259 0.231903
H21   H     H_    0.583996 0.215865 0.995338 0.223455
H22   H     H_    0.694844 0.171229 0.131411 0.273939
H23   H     H_    0.554686 0.230749 0.536160 0.145431
H24   H     H_    0.691581 0.091657 0.053488 0.273050
H25   H     H_    0.578437 0.057681 0.146795 0.258562
H26   H     H_    0.594220 0.792530 0.862135 0.174787
H27   H     H_    0.636622 0.808579 0.973338 0.148512
H28   H     H_    0.496733 0.925409 0.846172 0.228796
H29   H     H_    0.510822 0.935503 0.960422 0.234041
H30   H     H_    0.753985 0.978165 0.944658 0.270510
H31   H     H_    0.686573 0.054611 0.868387 0.265248
H32   H     H_    0.745556 0.962699 0.831143 0.279003
H33   H     H_    0.444945 0.769797 0.464047 0.147304
H34   H     H_    0.290179 0.300367 0.356706 0.168554
H35   H     H_    0.710990 0.699584 0.642352 0.170447
H36   H     H_    0.613732 0.126101 0.612027 0.166058
H37   H     H_    0.398464 0.876909 0.382296 0.160492
H38   H     H_    0.021112 0.350580 0.460026 0.185399
N1    N     N_R   0.574200 0.731700 0.552740 -0.114370
N2    N     N_R   0.425800 0.268300 0.447260 -0.112274
O1    O     O_R   0.462600 0.383110 0.605620 -0.616233
O2    O     O_R   0.905219 0.948845 0.683238 -0.785212
O3    O     O_2   0.186895 0.197469 0.239151 -0.621587
O4    O     O_R   0.104987 0.050639 0.309348 -0.781506
O5    O     O_2   0.849233 0.271688 0.616998 -0.639119
O6    O     O_R   0.783213 0.374318 0.690969 -0.816491
O7    O     O_2   0.152272 0.728131 0.386401 -0.635316
O8    O     O_R   0.203316 0.625901 0.304854 -0.809558
O9    O     O_3   0.342675 0.222979 0.055084 -0.619589
O10   O     O_3   0.436178 0.759149 0.951519 -0.641846
O11   O     O_R   0.537400 0.616890 0.394380 -0.616586
O12   O     O_R   0.510210 0.531900 0.639510 -0.626504
O13   O     O_R   0.489790 0.468100 0.360490 -0.626304
O14   O     O_R   0.662240 0.425610 0.483080 -0.622232
O15   O     O_R   0.337760 0.574390 0.516920 -0.621565
O16   O     O_R   0.709860 0.574400 0.516970 -0.617017
O17   O     O_R   0.290140 0.425600 0.483030 -0.616677
O18   O     O_2   0.818278 0.804860 0.758175 -0.648047
Zn1   Zn    Zn3+2 0.468210 0.400660 0.477370 0.960183
Zn2   Zn    Zn3+2 0.531790 0.599340 0.522630 0.962323

loop_
_geom_bond_atom_site_label_1
_geom_bond_atom_site_label_2
_ccdc_geom_bond_type
C4    H10   S    
C13   H23   S    
C23   C45   A    
C27   C29   S    
C34   C37   A    
C14   C18   A    
C25   H11   S    
C8    C43   S    
C41   H5    S    
C6    C55   A    
C33   H38   S    
C51   H29   S    
C17   O17   A    
C39   C41   A    
C5    O9    S    
C27   C33   S    
C15   C19   A    
C39   H8    S    
C28   C46   S    
C35   H2    S    
C24   C26   A    
C42   O2    S    
C11   C14   A    
C40   H6    S    
C49   H22   S    
C7    C42   S    
C49   H25   S    
C12   C37   S    
C19   C26   A    
C48   H20   S    
C27   C44   S    
C42   O18   D    
H17   O8    S    
C39   C55   A    
C20   C24   A    
C45   C56   A    
C47   O9    S    
C22   C25   A    
C31   C33   S    
N2    Zn1   S    
O15   Zn2   S    
O1    Zn1   S    
C9    N1    A    
C21   C22   A    
C4    C56   A    
C9    H35   S    
C3    H9    S    
C18   C25   A    
C17   O15   A    
C12   O13   A    
C50   H27   S    
C53   C55   A    
C23   H4    S    
C8    C19   A    
C13   N2    A    
C16   O14   A    
C51   C52   S    
C30   C32   S    
C32   C35   S    
C14   C20   A    
C5    C54   A    
C36   C40   A    
C43   O4    S    
C28   C35   S    
C4    C6    A    
C1    O1    A    
C44   O6    S    
C50   H26   S    
C46   O8    S    
C48   H21   S    
C28   C31   S    
C11   H33   S    
C47   C48   S    
C38   C54   A    
C10   N2    A    
N1    Zn2   S    
C7    C18   A    
C50   C51   S    
C6    O10   S    
C48   C49   S    
C29   H1    S    
C45   C54   A    
C13   C15   A    
C34   H3    S    
C17   C31   S    
O16   Zn2   S    
C16   O16   A    
C38   H7    S    
C46   O7    D    
C11   N1    A    
C7    C9    A    
C30   C33   S    
C27   C32   S    
C52   H31   S    
C47   H18   S    
C43   O3    D    
C3    C5    A    
C2    C53   A    
C12   O11   A    
C44   O5    D    
C16   C32   S    
H15   O4    S    
C29   C35   S    
C49   H24   S    
O12   Zn2   S    
C28   C30   S    
C2    C3    A    
C47   H19   S    
C29   C31   S    
C2    C56   A    
C24   H37   S    
C38   C40   A    
H16   O6    S    
C51   H28   S    
C52   H30   S    
C37   C41   A    
C52   H32   S    
O11   Zn2   S    
O13   Zn1   S    
C1    O12   A    
C15   C21   A    
C20   C21   A    
C10   H34   S    
C34   C53   A    
C8    C10   A    
C23   C36   A    
C50   O10   S    
C26   H13   S    
C22   H36   S    
O14   Zn1   S    
C30   H12   S    
H14   O2    S    
C1    C36   S    
O17   Zn1   S    
