data_mof_unit_372.cif
_audit_creation_date              2012-12-11T15:58:21-0500
_audit_creation_method            fapswitch 2.2
_symmetry_space_group_name_H-M    P1
_symmetry_Int_Tables_number       1
_space_group_crystal_system       triclinic
_cell_length_a                    8.388863
_cell_length_b                    18.767349
_cell_length_c                    18.987451
_cell_angle_alpha                 98.671852
_cell_angle_beta                  94.878142
_cell_angle_gamma                 91.543774
_cell_volume                      2942.04410132

loop_
_atom_site_label
_atom_site_type_symbol
_atom_type_description
_atom_site_fract_x
_atom_site_fract_y
_atom_site_fract_z
_atom_type_partial_charge
Ba1   Ba    Ba6+2 0.152460 0.535140 0.468980 1.827822
Ba2   Ba    Ba6+2 0.657710 0.464850 0.530960 1.808800
C1    C     C_3   0.241770 0.729381 0.212986 0.269933
C2    C     C_3   0.338905 0.711353 0.280524 0.703375
C3    C     C_3   0.526476 0.689315 0.650212 1.299600
C4    C     C_3   0.614390 0.758931 0.686743 -0.211746
C5    C     C_3   0.937021 0.268382 0.679783 0.992088
C6    C     C_3   0.951400 0.196276 0.706690 -0.232992
C7    C     C_3   0.413015 0.226489 0.698655 0.746108
C8    C     C_3   0.451537 0.154630 0.723758 -0.243460
C9    C     C_R   0.001828 0.949926 0.528162 0.058480
C10   C     C_R   0.098841 0.901331 0.559982 0.074042
C11   C     C_R   0.258444 0.922004 0.584532 -0.057269
C12   C     C_3   0.951639 0.731687 0.345247 0.333028
C13   C     C_R   0.320736 0.990343 0.577916 -0.110193
C14   C     C_R   0.222458 0.040764 0.550070 0.038524
C15   C     C_R   0.062389 0.020548 0.525025 0.023772
C16   C     C_R   0.280890 0.111250 0.548145 -0.128542
C17   C     C_R   0.178466 0.164239 0.527501 -0.056655
C18   C     C_R   0.020953 0.142679 0.497116 0.030274
C19   C     C_R   0.963983 0.070447 0.495775 0.003290
C20   C     C_R   0.227577 0.238200 0.537013 -0.014730
C21   C     C_R   0.122011 0.288190 0.513499 -0.197355
C22   C     C_R   0.974243 0.266666 0.475036 0.057135
C23   C     C_3   0.969116 0.811630 0.337785 0.438598
C24   C     C_R   0.921330 0.192692 0.467083 -0.002766
C25   C     C_R   0.844805 0.927967 0.499519 0.029256
C26   C     C_R   0.787183 0.855954 0.499299 -0.007433
C27   C     C_R   0.886485 0.806242 0.530251 -0.082956
C28   C     C_R   0.037225 0.832068 0.564829 -0.009686
C29   C     C_R   0.771495 0.166955 0.431401 -0.024025
C30   C     C_R   0.711460 0.096807 0.433877 0.032260
C31   C     C_R   0.807556 0.048353 0.466455 0.016505
C32   C     C_R   0.747810 0.977338 0.468512 0.006140
C33   C     C_R   0.555192 0.074604 0.405039 -0.071192
C34   C     C_3   0.848375 0.367287 0.298687 0.170095
C35   C     C_R   0.495010 0.005077 0.408358 -0.039803
C36   C     C_R   0.590906 0.955852 0.439380 0.022118
C37   C     C_R   0.630777 0.833970 0.467740 -0.068879
C38   C     C_R   0.532702 0.885327 0.440493 -0.023100
C39   C     C_R   0.578932 0.760861 0.462692 0.086952
C40   C     C_R   0.682487 0.711166 0.488157 -0.166778
C41   C     C_R   0.833368 0.732278 0.523766 0.025440
C42   C     C_R   0.622739 0.520039 0.299944 -0.242005
C43   C     C_R   0.469765 0.489720 0.276173 0.009243
C44   C     C_R   0.413891 0.485373 0.204025 -0.060673
C45   C     C_3   0.938268 0.335485 0.234489 0.216835
C46   C     C_R   0.510262 0.510860 0.155107 0.055626
C47   C     C_R   0.664385 0.541242 0.180030 0.065721
C48   C     C_R   0.720654 0.546078 0.252380 0.129729
C49   C     C_R   0.472226 0.563954 0.041360 -0.157376
C50   C     C_R   0.417237 0.559395 0.969125 -0.078640
C51   C     C_R   0.340026 0.495786 0.931475 -0.046263
C52   C     C_R   0.317253 0.437243 0.968333 -0.036474
C53   C     C_R   0.371491 0.441750 0.040731 0.670965
C54   C     C_R   0.450384 0.505336 0.078193 -0.028241
C55   C     C_R   0.144651 0.451512 0.824031 -0.030722
C56   C     C_3   0.059807 0.655311 0.701395 0.713210
C57   C     C_R   0.100022 0.443757 0.750268 -0.003145
C58   C     C_R   0.339374 0.512470 0.734309 0.017019
C59   C     C_R   0.383627 0.521249 0.807941 0.012392
C60   C     C_R   0.288431 0.489548 0.853603 0.081390
C61   C     C_R   0.199897 0.472492 0.705588 -0.229873
C62   C     C_3   0.966398 0.602970 0.737469 -0.287155
C63   C     C_3   0.277728 0.318285 0.365802 0.921606
C64   C     C_3   0.254069 0.237783 0.338742 -0.293486
H1    H     H_    0.309403 0.654235 0.284898 -0.094983
H2    H     H_    0.915665 0.276052 0.222915 0.067839
H3    H     H_    0.068594 0.345592 0.247032 0.039812
H4    H     H_    0.150925 0.626927 0.670001 -0.082955
H5    H     H_    0.860370 0.628686 0.760163 0.139323
H6    H     H_    0.041932 0.585000 0.781667 0.055162
H7    H     H_    0.925060 0.556223 0.696781 0.069102
H8    H     H_    0.160514 0.340924 0.376585 -0.162212
H9    H     H_    0.273540 0.692380 0.165315 -0.000809
H10   H     H_    0.168442 0.228428 0.290092 0.058976
H11   H     H_    0.206387 0.209442 0.380086 0.030594
H12   H     H_    0.370287 0.214759 0.325391 0.117663
H13   H     H_    0.711772 0.746721 0.725849 0.077049
H14   H     H_    0.666241 0.787616 0.646482 0.021535
H15   H     H_    0.531342 0.795155 0.715716 0.131311
H16   H     H_    0.113881 0.718366 0.215329 0.018791
H17   H     H_    0.856923 0.838997 0.348069 0.065105
H18   H     H_    0.059288 0.287823 0.671184 -0.173854
H19   H     H_    0.830926 0.173610 0.712971 0.112062
H20   H     H_    0.010064 0.157653 0.667752 0.043198
H21   H     H_    0.024161 0.203218 0.759043 0.110873
H22   H     H_    0.287732 0.221988 0.674425 -0.212266
H23   H     H_    0.360810 0.140239 0.759140 0.109812
H24   H     H_    0.571787 0.157639 0.753510 0.136712
H25   H     H_    0.062199 0.713522 0.370383 0.075199
H26   H     H_    0.451292 0.110685 0.678273 0.029558
H27   H     H_    0.336340 0.884676 0.607431 0.102270
H28   H     H_    0.445414 0.003992 0.595676 0.074623
H29   H     H_    0.160441 0.344526 0.520967 0.076720
H30   H     H_    0.405884 0.124739 0.564185 0.085968
H31   H     H_    0.111708 0.798268 0.593672 0.151762
H32   H     H_    0.697260 0.201251 0.402973 0.114580
H33   H     H_    0.478611 0.111308 0.380593 0.079314
H34   H     H_    0.373582 0.989621 0.386095 0.139646
H35   H     H_    0.411255 0.870987 0.418536 0.180482
H36   H     H_    0.861423 0.726818 0.383015 0.023574
H37   H     H_    0.642672 0.655093 0.481831 0.118809
H38   H     H_    0.493584 0.551430 0.828940 0.064373
H39   H     H_    0.434412 0.606034 0.942884 0.131000
H40   H     H_    0.530804 0.613790 0.068527 0.155122
H41   H     H_    0.295496 0.461742 0.186145 0.158529
H42   H     H_    0.260833 0.387054 0.940692 0.164866
H43   H     H_    0.065503 0.429571 0.858258 0.087189
H44   H     H_    0.739803 0.561938 0.143576 0.095102
H45   H     H_    0.163980 0.467392 0.648881 0.027556
H46   H     H_    0.665992 0.523317 0.355716 0.059983
H47   H     H_    0.999092 0.818411 0.283557 0.115435
H48   H     H_    0.728008 0.383072 0.279512 0.048869
H49   H     H_    0.913264 0.415970 0.328818 0.045854
O1    O     O_2   0.118870 0.674530 0.547560 -0.423599
O2    O     O_3   0.346365 0.350941 0.313522 -0.648165
O3    O     O_3   0.908892 0.687995 0.278444 -0.590590
O4    O     O_2   0.691430 0.325420 0.452420 -0.359319
O5    O     O_3   0.939830 0.414660 0.457830 -0.512025
O6    O     O_3   0.456020 0.368240 0.581510 -0.427460
O7    O     O_3   0.826165 0.311882 0.339283 -0.669727
O8    O     O_3   0.374170 0.535780 0.585810 -0.432048
O9    O     O_3   0.871300 0.403980 0.619270 -0.455609
O10   O     O_2   0.770562 0.449590 0.747394 -0.475880
O11   O     O_3   0.864889 0.317270 0.729963 -0.571847
O12   O     O_3   0.870460 0.585330 0.542110 -0.450655
O13   O     O_3   0.436130 0.464210 0.414140 -0.426325
O14   O     O_2   0.629420 0.533310 0.672080 -0.431433
O15   O     O_3   0.468578 0.652694 0.702745 -0.638356
O16   O     O_2   0.543144 0.243836 0.517372 -0.401662
O17   O     O_3   0.524797 0.243002 0.651168 -0.592651
O18   O     O_3   0.354280 0.631750 0.418430 -0.475221
O19   O     O_2   0.259397 0.757334 0.477030 -0.446272
O20   O     O_3   0.949511 0.689590 0.660211 -0.650030
O21   O     O_3   0.305276 0.757338 0.343001 -0.594651
O22   O     O_2   0.180880 0.466650 0.327890 -0.505048
O23   O     O_3   0.939000 0.596010 0.380670 -0.523245
O24   O     O_2   0.061623 0.566013 0.256142 -0.490202
P1    P     P_3+3 0.947550 0.663200 0.567530 1.063660
P2    P     P_3+3 0.354660 0.445020 0.336980 1.055700
P3    P     P_3+3 0.910228 0.596293 0.289223 1.039628
P4    P     P_3+3 0.862750 0.336790 0.432410 1.015357
P5    P     P_3+3 0.902286 0.404670 0.711944 1.029336
P6    P     P_3+3 0.376633 0.725810 0.423401 1.085461
P7    P     P_3+3 0.452218 0.558926 0.675212 1.060800
P8    P     P_3+3 0.432232 0.273452 0.574548 1.080056
S1    S     S_3+6 0.880168 0.369689 0.153843 -0.062360
O25   O     O_2   0.946212 0.445488 0.158674 -0.305211
O26   O     O_2   0.947129 0.323608 0.092396 -0.199805
O27   O     O_3   0.679683 0.367765 0.139214 -0.492486
H50   H     H_    0.645065 0.317028 0.139913 0.361250
S2    S     S_3+6 0.155853 0.723372 0.768930 -0.041526
O28   O     O_2   0.279105 0.690805 0.815250 -0.293592
O29   O     O_2   0.235600 0.779999 0.734321 -0.309232
O30   O     O_3   0.018994 0.762020 0.820623 -0.474036
H51   H     H_    0.967904 0.797457 0.793100 0.344452
F1    F     F_    0.378362 0.328019 0.427897 -0.697523
S3    S     S_3+6 0.543358 0.720537 0.269427 -0.115560
O31   O     O_2   0.622986 0.678753 0.322184 -0.440510
O32   O     O_2   0.579430 0.690157 0.194972 -0.368026
O33   O     O_3   0.601449 0.808104 0.288108 -0.503265
H52   H     H_    0.661212 0.817790 0.247542 0.386009
S4    S     S_3+6 0.267433 0.820558 0.196123 0.016176
O34   O     O_2   0.119209 0.840403 0.154408 -0.257369
O35   O     O_2   0.294364 0.872325 0.264955 -0.208934
O36   O     O_3   0.424504 0.827455 0.147812 -0.432490
H53   H     H_    0.399049 0.792335 0.103552 0.350353
F2    F     F_    0.629991 0.648833 0.610192 -0.751815
F3    F     F_    0.400661 0.706620 0.605494 -0.713670
F4    F     F_    0.842735 0.257691 0.615502 -0.704748
S5    S     S_3+6 0.428064 0.294816 0.775486 -0.057980
O37   O     O_2   0.277947 0.292729 0.813057 -0.326638
O38   O     O_2   0.569672 0.284318 0.826438 -0.233758
O39   O     O_3   0.450464 0.374947 0.749039 -0.544257
H54   H     H_    0.536378 0.369236 0.716553 0.365723
F5    F     F_    0.351659 0.382832 0.073153 -0.650285
F6    F     F_    0.085470 0.846619 0.387874 -0.704844

loop_
_geom_bond_atom_site_label_1
_geom_bond_atom_site_label_2
_ccdc_geom_bond_type
C53   C54   A    
C5    F4    S    
O15   P7    S    
O4    P4    D    
C39   C40   A    
C62   H7    S    
O2    P2    S    
C17   C18   A    
C29   H32   S    
Ba1   O13   S    
C34   H48   S    
C40   H37   S    
C13   H28   S    
C55   C60   A    
C37   C39   A    
C43   C44   A    
C50   C51   A    
C10   C11   A    
C28   H31   S    
C35   C36   A    
C58   C61   A    
C26   C27   A    
C33   C35   A    
S1    O26   D    
C6    H19   S    
C7    H22   S    
C3    C4    S    
O24   P3    D    
Ba1   O18   S    
C12   H36   S    
C2    S3    S    
C19   C31   A    
C22   P4    S    
C13   C14   A    
Ba2   O14   S    
C16   H30   S    
C34   C45   S    
C49   C54   A    
C62   H5    S    
O19   P6    D    
C45   H3    S    
C38   H35   S    
C52   C53   A    
C9    C15   A    
S3    O31   D    
C8    H23   S    
C14   C15   A    
C12   O3    S    
C21   C22   A    
S3    O32   D    
O16   P8    D    
Ba1   O1    S    
S2    O29   D    
C1    H9    S    
C7    C8    S    
O21   P6    S    
S5    O39   S    
C2    O21   S    
Ba2   O12   S    
C5    H18   S    
C8    H26   S    
C24   C29   A    
C5    O11   S    
C4    H15   S    
C27   C41   A    
C43   P2    S    
Ba2   P4    S    
C53   F5    S    
O5    P4    S    
C58   P7    S    
O7    P4    S    
C33   H33   S    
S5    O38   D    
C25   C32   A    
C56   C62   S    
O20   P1    S    
C64   H12   S    
C44   C46   A    
C3    F3    S    
C49   C50   A    
C30   C33   A    
C5    C6    S    
C59   H38   S    
Ba1   P2    S    
S1    O25   D    
O23   P3    S    
O36   H53   S    
Ba2   O5    S    
C23   F6    S    
C16   C17   A    
C7    O17   S    
C26   C37   A    
Ba2   O8    S    
C15   C19   A    
C63   H8    S    
C11   H27   S    
C58   C59   A    
Ba1   O5    S    
O30   H51   S    
C34   O7    S    
Ba1   O8    S    
C27   C28   A    
C56   S2    S    
C23   H47   S    
C51   C60   S    
C4    H14   S    
C29   C30   A    
O8    P7    S    
C9    C25   A    
O27   H50   S    
C64   H10   S    
C44   H41   S    
C17   C20   A    
C1    H16   S    
O6    P8    S    
C31   C32   A    
S3    O33   S    
C41   P1    S    
C55   H43   S    
C18   C19   A    
S2    O30   S    
O14   P7    D    
Ba1   P1    S    
C1    S4    S    
C42   H46   S    
C46   C47   A    
C50   H39   S    
C47   C48   A    
C11   C13   A    
O18   P6    S    
C40   C41   A    
C1    C2    S    
C45   H2    S    
C37   C38   A    
Ba1   O22   S    
S5    O37   D    
O33   H52   S    
O13   P2    S    
Ba2   O6    S    
C42   C48   A    
C46   C54   S    
C64   H11   S    
O22   P2    D    
C45   S1    S    
S4    O34   D    
C3    F2    S    
C10   C28   A    
C32   C36   A    
O17   P8    S    
S4    O36   S    
C56   H4    S    
C42   C43   A    
Ba1   O12   S    
C22   C24   A    
C63   F1    S    
O3    P3    S    
C57   P5    S    
C2    H1    S    
Ba2   O4    S    
C51   C52   A    
Ba2   O9    S    
C56   O20   S    
C57   C61   A    
C52   H42   S    
C6    H21   S    
C30   C31   A    
S4    O35   D    
S1    O27   S    
O39   H54   S    
C36   C38   A    
C4    H13   S    
C18   C24   A    
C49   H40   S    
Ba1   Ba2   S    
O11   P5    S    
C21   H29   S    
C6    H20   S    
C62   H6    S    
C12   C23   S    
C61   H45   S    
C59   C60   A    
C12   H25   S    
C55   C57   A    
C3    O15   S    
C39   P6    S    
C20   P8    S    
C8    H24   S    
C14   C16   A    
C63   C64   S    
O12   P1    S    
C25   C26   A    
C23   H17   S    
C63   O2    S    
C20   C21   A    
O9    P5    S    
C7    S5    S    
O10   P5    D    
S2    O28   D    
C34   H49   S    
C35   H34   S    
Ba1   O23   S    
C48   P3    S    
C9    C10   A    
C47   H44   S    
O1    P1    D    
Ba2   O13   S    
