data_mof_unit_647.cif
_audit_creation_date              2012-12-10T17:02:20-0500
_audit_creation_method            fapswitch 2.2
_symmetry_space_group_name_H-M    P1
_symmetry_Int_Tables_number       1
_space_group_crystal_system       triclinic
_cell_length_a                    10.698402
_cell_length_b                    10.751938
_cell_length_c                    9.984449
_cell_angle_alpha                 90.568511
_cell_angle_beta                  88.445415
_cell_angle_gamma                 90.450259
_cell_volume                      1147.9844124

loop_
_atom_site_label
_atom_site_type_symbol
_atom_type_description
_atom_site_fract_x
_atom_site_fract_y
_atom_site_fract_z
_atom_type_partial_charge
C1    C     C_R   0.504118 0.262319 0.498567 0.951528
C2    C     C_2   0.524006 0.131086 0.495928 -0.399662
C3    C     C_2   0.426771 0.566879 0.927683 -0.138093
C4    C     C_R   0.259516 0.488924 0.502596 0.905885
C5    C     C_2   0.421870 0.560882 0.077976 -0.086392
C6    C     C_R   0.499593 0.737302 0.500534 0.981151
C7    C     C_R   0.739696 0.511036 0.498390 0.910503
C8    C     C_R   0.102912 0.520832 0.757731 -0.127983
C9    C     C_R   0.042132 0.586197 0.860938 -0.134650
C10   C     C_R   0.936661 0.655157 0.834530 -0.212547
C11   C     C_R   0.883046 0.648152 0.707994 -0.091621
C12   C     C_R   0.057022 0.521303 0.625812 0.065672
C13   C     C_R   0.936690 0.567105 0.608119 0.061460
C14   C     C_2   0.784443 0.739368 0.676797 0.949874
C15   C     C_2   0.527221 0.109362 0.244557 0.964504
C16   C     C_R   0.124875 0.477232 0.510222 -0.183089
C17   C     C_R   0.061725 0.442818 0.393630 0.163978
C18   C     C_R   0.935805 0.463362 0.388628 -0.228771
C19   C     C_R   0.873035 0.523367 0.494661 -0.126831
C20   C     C_2   0.548257 0.928750 0.395275 -0.162385
C21   C     C_2   0.498051 0.868877 0.500380 -0.259120
C22   C     C_2   0.534157 0.061618 0.382935 0.003105
H1    H     H_    0.538851 0.090999 0.593497 0.180235
H2    H     H_    0.591479 0.877997 0.311522 0.191182
H3    H     H_    0.449891 0.914507 0.584001 0.148209
H4    H     H_    0.692669 0.723960 0.856380 0.301569
H5    H     H_    0.423139 0.189885 0.104561 0.345061
H6    H     H_    0.361778 0.628373 0.880213 0.168807
H7    H     H_    0.558025 0.437543 0.895478 0.175600
H8    H     H_    0.347717 0.611263 0.130513 0.171451
H9    H     H_    0.575934 0.459280 0.099711 0.168263
H10   H     H_    0.181918 0.465866 0.785331 0.178258
H11   H     H_    0.079941 0.587276 0.960469 0.158539
H12   H     H_    0.898469 0.715295 0.912749 0.156738
H13   H     H_    0.886023 0.427626 0.303125 0.192859
I1    I     I_    0.141564 0.343540 0.226417 -0.307013
N1    N     N_2   0.501340 0.501330 0.852150 -0.197608
N2    N     N_2   0.501380 0.501360 0.147810 -0.183674
O1    O     O_R   0.499980 0.319060 0.613040 -0.614060
O2    O     O_R   0.694136 0.776472 0.772733 -0.749536
O3    O     O_2   0.616978 0.097907 0.167133 -0.624860
O4    O     O_R   0.416353 0.161564 0.201065 -0.752736
O5    O     O_R   0.500020 0.319100 0.386900 -0.576428
O6    O     O_R   0.316750 0.499980 0.613090 -0.643986
O7    O     O_R   0.316790 0.500020 0.386950 -0.583595
O8    O     O_R   0.499980 0.680900 0.613100 -0.583524
O9    O     O_R   0.500020 0.680940 0.386960 -0.628730
O10   O     O_R   0.683210 0.499980 0.613050 -0.629871
O11   O     O_R   0.683250 0.500020 0.386910 -0.622823
O12   O     O_2   0.784022 0.786209 0.565914 -0.607545
Zn1   Zn    Zn3+2 0.499970 0.499970 0.650990 0.967241
Zn2   Zn    Zn3+2 0.500030 0.500030 0.349010 0.995463

loop_
_geom_bond_atom_site_label_1
_geom_bond_atom_site_label_2
_ccdc_geom_bond_type
C2    C22   D    
O1    Zn1   S    
C4    C16   S    
O9    Zn2   S    
C17   I1    S    
C6    O8    A    
C9    C10   A    
H9    N2    S    
C8    C12   A    
O11   Zn2   S    
C7    O10   A    
C17   C18   A    
C7    O11   A    
C10   H12   S    
C5    N2    D    
C12   C13   A    
C9    H11   S    
C11   C13   A    
H5    O4    S    
H4    O2    S    
C14   O12   D    
C1    C2    S    
O6    Zn1   S    
C3    H6    S    
C20   C22   S    
C18   C19   A    
C7    C19   S    
C4    O7    A    
O10   Zn1   S    
N1    Zn1   S    
C11   C14   S    
O5    Zn2   S    
N2    Zn2   S    
C10   C11   A    
C1    O1    A    
C15   O3    D    
C14   O2    S    
C8    H10   S    
C12   C16   A    
C20   C21   D    
C3    N1    D    
C18   H13   S    
C5    H8    S    
C6    O9    A    
H7    N1    S    
C2    H1    S    
C13   C19   A    
C16   C17   A    
C21   H3    S    
C4    O6    A    
O7    Zn2   S    
C6    C21   S    
O8    Zn1   S    
C1    O5    A    
C15   C22   S    
C20   H2    S    
C15   O4    S    
C8    C9    A    
C3    C5    S    
