data_mof_unit_1434.cif
_audit_creation_date              2012-12-10T18:05:13-0500
_audit_creation_method            fapswitch 2.2
_symmetry_space_group_name_H-M    P1
_symmetry_Int_Tables_number       1
_space_group_crystal_system       triclinic
_cell_length_a                    9.503228
_cell_length_b                    10.822325
_cell_length_c                    17.109673
_cell_angle_alpha                 89.499318
_cell_angle_beta                  93.88822
_cell_angle_gamma                 89.591206
_cell_volume                      1755.50886763

loop_
_atom_site_label
_atom_site_type_symbol
_atom_type_description
_atom_site_fract_x
_atom_site_fract_y
_atom_site_fract_z
_atom_type_partial_charge
C1    C     C_R   0.500511 0.262224 0.497558 0.796868
C2    C     C_R   0.499682 0.737628 0.502736 0.792100
C3    C     C_R   0.401633 0.939519 0.545693 0.089145
C4    C     C_R   0.599728 0.059912 0.454917 0.095755
C5    C     C_R   0.498837 0.871398 0.503927 -0.073103
C6    C     C_R   0.502012 0.128249 0.496616 -0.069293
C7    C     C_R   0.081384 0.428718 0.552344 -0.035155
C8    C     C_R   0.918607 0.571228 0.447626 -0.029955
C9    C     C_R   0.932447 0.428711 0.552296 -0.037034
C10   C     C_R   0.067521 0.571030 0.447564 -0.026349
C11   C     C_R   0.517416 0.498880 0.650971 0.791003
C12   C     C_R   0.482534 0.502805 0.349064 0.788413
C13   C     C_R   0.526757 0.500061 0.736841 -0.028444
C14   C     C_R   0.472899 0.505320 0.263248 -0.021518
C15   C     C_R   0.403013 0.500359 0.777120 -0.247461
C16   C     C_R   0.594529 0.524811 0.222886 -0.248553
C17   C     C_R   0.410536 0.502596 0.858450 -0.159930
C18   C     C_R   0.587047 0.524552 0.141515 -0.168974
C19   C     C_R   0.542830 0.504597 0.901166 0.386144
C20   C     C_R   0.456814 0.505042 0.098964 0.386723
C21   C     C_R   0.665960 0.504431 0.860851 -0.200271
C22   C     C_R   0.335369 0.487841 0.139379 -0.199641
C23   C     C_R   0.658428 0.502049 0.779264 -0.221576
C24   C     C_R   0.342951 0.487787 0.220962 -0.228445
C25   C     C_R   0.404048 0.067738 0.540664 -0.237318
C26   C     C_R   0.596710 0.931669 0.459893 -0.237151
Cu1   Cu    Cu3+1 0.640660 0.500020 0.500000 0.930146
Cu2   Cu    Cu3+1 0.359340 0.499980 0.500000 0.929662
H1    H     H_    0.695887 0.539686 0.254134 0.155279
H2    H     H_    0.300002 0.499128 0.745880 0.156021
H3    H     H_    0.683153 0.539431 0.112332 0.151303
H4    H     H_    0.312773 0.503057 0.887458 0.149432
H5    H     H_    0.768182 0.506118 0.892923 0.136246
H6    H     H_    0.234621 0.473387 0.107389 0.136599
H7    H     H_    0.755489 0.502061 0.749537 0.156123
H8    H     H_    0.247492 0.472931 0.250811 0.156662
H9    H     H_    0.330864 0.121020 0.573150 0.146188
H10   H     H_    0.668845 0.877660 0.427177 0.142062
H11   H     H_    0.143127 0.371483 0.594165 0.117103
H12   H     H_    0.856880 0.628572 0.405863 0.112839
H13   H     H_    0.881737 0.371451 0.594056 0.120187
H14   H     H_    0.118205 0.628152 0.405726 0.113868
N1    N     N_2   0.556973 0.507278 0.984168 -0.270408
N2    N     N_2   0.442932 0.502273 0.015993 -0.270749
N3    N     N_R   0.852070 0.500030 0.499980 -0.154961
N4    N     N_R   0.147930 0.499970 0.500020 -0.153236
O1    O     O_R   0.618740 0.319660 0.500000 -0.584428
O2    O     O_R   0.381260 0.680340 0.500000 -0.581750
O3    O     O_R   0.381170 0.319630 0.500010 -0.583205
O4    O     O_R   0.618830 0.680370 0.499990 -0.584325
O5    O     O_R   0.631780 0.498870 0.613920 -0.584560
O6    O     O_R   0.368220 0.501130 0.386080 -0.587352
O7    O     O_R   0.394210 0.498840 0.613930 -0.593210
O8    O     O_R   0.605790 0.501160 0.386070 -0.586396
C27   C     C_3   0.298488 0.880652 0.598452 -0.388548
C28   C     C_3   0.151278 0.871828 0.556162 -0.323513
C29   C     C_3   0.050045 0.801364 0.605496 -0.824434
H15   H     H_    0.089409 0.705663 0.617351 0.261732
H16   H     H_    0.038781 0.849100 0.661962 0.245647
H17   H     H_    0.944728 0.796619 0.573326 0.245989
H18   H     H_    0.108208 0.966312 0.543805 0.204990
H19   H     H_    0.157761 0.823974 0.499347 0.230218
H20   H     H_    0.336281 0.788339 0.619857 0.207606
H21   H     H_    0.291754 0.937285 0.652045 0.180758
C30   C     C_3   0.703572 0.118061 0.402004 -0.406591
C31   C     C_3   0.627903 0.171824 0.327150 -0.320747
C32   C     C_3   0.732419 0.230636 0.274395 -0.831431
H22   H     H_    0.786219 0.309490 0.304567 0.259217
H23   H     H_    0.812525 0.161602 0.258635 0.245173
H24   H     H_    0.675348 0.265079 0.219671 0.251546
H25   H     H_    0.571140 0.096774 0.294495 0.214273
H26   H     H_    0.549223 0.242695 0.341716 0.212261
H27   H     H_    0.768599 0.188672 0.433639 0.224203
H28   H     H_    0.780682 0.047477 0.384319 0.180535

loop_
_geom_bond_atom_site_label_1
_geom_bond_atom_site_label_2
_ccdc_geom_bond_type
Cu1   O1    S    
C10   N4    A    
C4    C26   A    
Cu2   O7    S    
C9    N3    A    
C19   C21   A    
C21   H5    S    
C10   H14   S    
Cu2   O6    S    
Cu2   O3    S    
C1    C6    S    
C9    H13   S    
C31   H25   S    
C11   O7    A    
Cu1   O4    S    
N1    N2    D    
C32   H24   S    
C2    O2    A    
C27   H21   S    
Cu1   N3    S    
C27   C28   S    
C13   C15   A    
C31   C32   S    
Cu1   O8    S    
C28   H19   S    
Cu1   O5    S    
C11   C13   S    
Cu2   N4    S    
C29   H15   S    
C24   H8    S    
C1    O3    A    
C15   H2    S    
C12   O8    A    
C22   C24   A    
C16   C18   A    
C12   O6    A    
Cu2   O2    S    
C19   N1    S    
C20   N2    S    
C8    H12   S    
C23   H7    S    
C21   C23   A    
C1    O1    A    
C4    C30   S    
C22   H6    S    
C14   C16   A    
C29   H16   S    
C6    C25   A    
C11   O5    A    
C8    N3    A    
C20   C22   A    
C17   C19   A    
C32   H22   S    
C2    C5    S    
C7    N4    A    
C3    C5    A    
C3    C25   A    
C30   H27   S    
C28   C29   S    
C13   C23   A    
C18   C20   A    
C4    C6    A    
C30   C31   S    
C14   C24   A    
Cu1   Cu2   S    
C7    C9    A    
C17   H4    S    
C7    H11   S    
C28   H18   S    
C26   H10   S    
C29   H17   S    
C18   H3    S    
C2    O4    A    
C25   H9    S    
C16   H1    S    
C15   C17   A    
C3    C27   S    
C8    C10   A    
C31   H26   S    
C30   H28   S    
C5    C26   A    
C12   C14   S    
C32   H23   S    
C27   H20   S    
