data_mof_unit_3609.cif
_audit_creation_date              2012-12-11T17:11:44-0500
_audit_creation_method            fapswitch 2.2
_symmetry_space_group_name_H-M    P1
_symmetry_Int_Tables_number       1
_space_group_crystal_system       triclinic
_cell_length_a                    14.964508
_cell_length_b                    6.937396
_cell_length_c                    13.613438
_cell_angle_alpha                 89.671514
_cell_angle_beta                  100.707009
_cell_angle_gamma                 90.410868
_cell_volume                      1388.6205791

loop_
_atom_site_label
_atom_site_type_symbol
_atom_type_description
_atom_site_fract_x
_atom_site_fract_y
_atom_site_fract_z
_atom_type_partial_charge
O1    O     O_R   0.398250 0.605080 0.401520 -0.535385
O2    O     O_R   0.898250 0.394920 0.901520 -0.534779
O3    O     O_R   0.584130 0.932110 0.405450 -0.540494
O4    O     O_R   0.084130 0.067890 0.905450 -0.535565
O5    O     O_R   0.601750 0.105090 0.598480 -0.534890
O6    O     O_R   0.101750 0.894910 0.098480 -0.534771
C1    C     C_R   0.612987 0.765203 0.384677 0.761795
C2    C     C_R   0.113684 0.236514 0.885092 0.761036
O7    O     O_R   0.397870 0.934620 0.389680 -0.538189
O8    O     O_R   0.897870 0.065380 0.889680 -0.540990
O9    O     O_R   0.414160 0.107620 0.582600 -0.537066
O10   O     O_R   0.914160 0.892380 0.082600 -0.541192
C3    C     C_R   0.364062 0.765607 0.362556 0.736422
C4    C     C_R   0.863753 0.234107 0.862959 0.733954
O11   O     O_R   0.585840 0.602550 0.417400 -0.535774
O12   O     O_R   0.085840 0.397450 0.917400 -0.544212
O13   O     O_3   0.505560 0.772440 0.563310 -0.378296
O14   O     O_3   0.005560 0.227560 0.063310 -0.371057
V1    V     V_3+5 0.498970 0.046250 0.488250 1.413183
V2    V     V_3+5 0.998970 0.953750 0.988250 1.404588
O15   O     O_R   0.415870 0.437500 0.594550 -0.547455
O16   O     O_R   0.915870 0.562500 0.094550 -0.543401
C5    C     C_R   0.388248 0.267653 0.616704 0.747742
C6    C     C_R   0.884642 0.729304 0.112855 0.746081
O17   O     O_R   0.602130 0.434980 0.610320 -0.541247
O18   O     O_R   0.102130 0.565020 0.110320 -0.538104
C7    C     C_R   0.635783 0.265964 0.637587 0.730599
C8    C     C_R   0.136051 0.734181 0.137245 0.737143
V3    V     V_3+5 0.501030 0.546580 0.511750 1.398268
V4    V     V_3+5 0.001030 0.453420 0.011750 1.407361
O19   O     O_3   0.494440 0.270520 0.436690 -0.367767
O20   O     O_3   0.994440 0.729480 0.936690 -0.370797
C9    C     C_1   0.715966 0.255206 0.717374 -0.191708
C10   C     C_1   0.216444 0.744906 0.216754 -0.190636
C11   C     C_1   0.783265 0.244733 0.783560 -0.194772
C12   C     C_1   0.283762 0.754870 0.282944 -0.189676
C13   C     C_2   0.304324 0.108704 0.739225 0.095914
C14   C     C_2   0.740437 0.843991 0.166340 0.095983
C15   C     C_2   0.316874 0.258208 0.678437 -0.355253
C16   C     C_2   0.812792 0.724174 0.175185 -0.397867
H1    H     H_    0.268234 0.375539 0.668179 0.112402
H2    H     H_    0.812672 0.596563 0.221994 0.133884
C17   C     C_2   0.218064 0.094705 0.779077 0.150142
C18   C     C_2   0.665610 0.792535 0.222330 0.190046
C19   C     C_2   0.189231 0.245684 0.828167 -0.341900
C20   C     C_2   0.684338 0.767783 0.322715 -0.315541
H3    H     H_    0.227583 0.380058 0.833124 0.105795
H4    H     H_    0.753968 0.784993 0.362223 0.092397
C21   C     C_3   0.372947 0.946420 0.766051 -0.320303
C22   C     C_3   0.464233 0.019276 0.825582 -0.299202
C23   C     C_3   0.532062 0.854650 0.849528 -0.769844
H5    H     H_    0.505500 0.742478 0.895291 0.216386
H6    H     H_    0.545144 0.788624 0.779460 0.243721
H7    H     H_    0.597345 0.911022 0.892120 0.215268
H8    H     H_    0.494388 0.131043 0.782838 0.183981
H9    H     H_    0.453224 0.084743 0.896710 0.188416
H10   H     H_    0.346099 0.837675 0.813599 0.163876
H11   H     H_    0.382485 0.868065 0.698035 0.195918
C24   C     C_3   0.734356 0.020036 0.097459 -0.303815
C25   C     C_3   0.652260 0.152563 0.096503 -0.336184
C26   C     C_3   0.658088 0.329650 0.030778 -0.780748
H12   H     H_    0.720080 0.415324 0.060045 0.239551
H13   H     H_    0.659730 0.285354 0.952829 0.225316
H14   H     H_    0.597500 0.421369 0.029804 0.221591
H15   H     H_    0.588094 0.076828 0.065050 0.209558
H16   H     H_    0.649741 0.200116 0.173789 0.209017
H17   H     H_    0.796239 0.109598 0.122240 0.189746
H18   H     H_    0.734393 0.970536 0.019948 0.159671
C27   C     C_3   0.165502 0.906769 0.761839 -0.721669
H19   H     H_    0.191922 0.815516 0.706947 0.178274
H20   H     H_    0.171998 0.823550 0.832688 0.211098
H21   H     H_    0.092826 0.935133 0.730452 0.204296
C28   C     C_3   0.570479 0.755937 0.165406 -0.797180
H22   H     H_    0.568933 0.755605 0.083647 0.205241
H23   H     H_    0.546339 0.611874 0.185667 0.205837
H24   H     H_    0.523458 0.867736 0.183643 0.196234

loop_
_geom_bond_atom_site_label_1
_geom_bond_atom_site_label_2
_ccdc_geom_bond_type
C14   C16   D    
C26   H14   S    
O13   V3    S    
C28   H22   S    
O4    C2    A    
V1    O19   S    
C15   H1    S    
C7    C9    S    
O9    V1    S    
O3    C1    A    
O12   V4    S    
C21   H10   S    
C27   H20   S    
O9    C5    A    
C26   H13   S    
O7    C3    A    
C2    C19   S    
C9    C11   T    
O5    C7    A    
O7    V1    S    
O6    C8    A    
O8    V2    S    
O3    V1    S    
O14   V4    S    
C10   C12   T    
C24   H17   S    
C16   H2    S    
C25   H16   S    
C24   C25   S    
C2    O12   A    
C28   H23   S    
C26   H12   S    
C18   C20   D    
O11   V3    S    
C19   H3    S    
O17   V3    S    
C20   H4    S    
C23   H5    S    
C1    C20   S    
C3    C12   S    
O8    C4    A    
C4    C11   S    
O15   V3    S    
C22   H9    S    
C21   H11   S    
C25   C26   S    
C23   H6    S    
C13   C17   S    
C27   H21   S    
C14   C18   S    
C24   H18   S    
C13   C21   S    
O10   V2    S    
O1    V3    S    
C22   C23   S    
C17   C19   D    
C25   H15   S    
O18   V4    S    
O15   C5    A    
C28   H24   S    
O16   C6    A    
O1    C3    A    
V2    O20   S    
C18   C28   S    
C6    C16   S    
O16   V4    S    
O5    V1    S    
O17   C7    A    
O6    V2    S    
O10   C6    A    
O18   C8    A    
C22   H8    S    
O2    V4    S    
C23   H7    S    
C13   C15   D    
V4    O20   S    
C5    C15   S    
C1    O11   A    
O13   V1    S    
O14   V2    S    
C27   H19   S    
O2    C4    A    
C8    C10   S    
C14   C24   S    
O4    V2    S    
V3    O19   S    
C21   C22   S    
C17   C27   S    
