data_mof_unit_2949.cif
_audit_creation_date              2012-12-11T15:35:21-0500
_audit_creation_method            fapswitch 2.2
_symmetry_space_group_name_H-M    P1
_symmetry_Int_Tables_number       1
_space_group_crystal_system       monoclinic
_cell_length_a                    17.24608
_cell_length_b                    24.125031
_cell_length_c                    14.884348
_cell_angle_alpha                 90.0
_cell_angle_beta                  125.02632
_cell_angle_gamma                 90.0
_cell_volume                      5071.22465297

loop_
_atom_site_label
_atom_site_type_symbol
_atom_type_description
_atom_site_fract_x
_atom_site_fract_y
_atom_site_fract_z
_atom_type_partial_charge
C1    C     C_R   0.306545 0.120196 0.906773 -0.046438
C2    C     C_R   0.306545 0.879803 0.906773 -0.046437
C3    C     C_R   0.806545 0.620197 0.906773 -0.046438
C4    C     C_R   0.806545 0.379803 0.906773 -0.046438
C5    C     C_R   0.655968 0.149868 0.090914 -0.190273
C6    C     C_R   0.655967 0.850132 0.090913 -0.190274
C7    C     C_R   0.155967 0.649868 0.090913 -0.190274
C8    C     C_R   0.155968 0.350132 0.090914 -0.190273
C9    C     C_R   0.557288 0.847459 0.909548 0.325757
C10   C     C_R   0.557288 0.152541 0.909548 0.325757
C11   C     C_R   0.057288 0.347459 0.909548 0.325757
C12   C     C_R   0.057288 0.652541 0.909548 0.325757
C13   C     C_R   0.563897 1.000000 0.741750 0.058757
C14   C     C_R   0.063897 0.500000 0.741750 0.058757
C15   C     C_R   0.825918 0.000000 0.278444 0.005984
C16   C     C_R   0.325918 0.500000 0.278444 0.005984
C17   C     C_R   0.629833 0.181129 0.999129 0.062701
C18   C     C_R   0.629833 0.818871 0.999128 0.062701
C19   C     C_R   0.129833 0.681129 0.999129 0.062701
C20   C     C_R   0.129833 0.318871 0.999129 0.062701
C21   C     C_3   0.040116 1.000000 0.571905 -0.347284
C22   C     C_3   0.083179 0.052089 0.458670 -0.358440
C23   C     C_3   0.540116 0.499997 0.571905 -0.347283
C24   C     C_3   0.583177 0.552091 0.458673 -0.358439
C25   C     C_3   0.936632 0.000002 0.475240 -0.373368
C26   C     C_3   0.978499 0.052011 0.360529 -0.377882
C27   C     C_3   0.436632 0.499997 0.475239 -0.373368
C28   C     C_3   0.478497 0.552015 0.360535 -0.377887
C29   C     C_3   0.083179 0.947911 0.458669 -0.358437
C30   C     C_3   0.583180 0.447913 0.458666 -0.358437
C31   C     C_3   0.104742 1.000000 0.530931 0.300930
C32   C     C_3   0.604742 0.500000 0.530931 0.300928
C33   C     C_3   0.927915 1.000000 0.365663 0.324932
C34   C     C_3   0.427915 0.500000 0.365663 0.324932
C35   C     C_R   0.397122 0.878300 0.090265 -0.083056
C36   C     C_R   0.397122 0.121700 0.090264 -0.083056
C37   C     C_R   0.897122 0.378300 0.090265 -0.083056
C38   C     C_R   0.897122 0.621700 0.090265 -0.083056
C39   C     C_3   0.978497 0.947987 0.360532 -0.377887
C40   C     C_3   0.478499 0.447990 0.360526 -0.377883
C41   C     C_R   0.161483 0.812684 0.892267 0.242224
C42   C     C_R   0.161485 0.187317 0.892267 0.242224
C43   C     C_R   0.661484 0.312684 0.892267 0.242224
C44   C     C_R   0.661483 0.687316 0.892267 0.242224
C45   C     C_R   0.648400 0.256983 0.899965 0.341286
C46   C     C_R   0.648400 0.743017 0.899965 0.341286
C47   C     C_R   0.148400 0.756983 0.899965 0.341286
C48   C     C_R   0.148402 0.243018 0.899966 0.341286
C49   C     C_R   0.659806 0.237381 0.996020 -0.069280
C50   C     C_R   0.659806 0.762619 0.996019 -0.069280
C51   C     C_R   0.159806 0.737381 0.996020 -0.069280
C52   C     C_R   0.159807 0.262619 0.996020 -0.069281
C53   C     C_R   0.695636 0.273401 0.085950 -0.251969
C54   C     C_R   0.695636 0.726599 0.085950 -0.251969
C55   C     C_R   0.195636 0.773401 0.085950 -0.251970
C56   C     C_R   0.195636 0.226600 0.085950 -0.251970
C57   C     C_R   0.231504 0.825157 0.084634 0.339350
C58   C     C_R   0.231504 0.174843 0.084633 0.339350
C59   C     C_R   0.731504 0.325157 0.084634 0.339350
C60   C     C_R   0.731504 0.674843 0.084634 0.339349
C61   C     C_R   0.224052 0.842053 0.989440 -0.108773
C62   C     C_R   0.224052 0.157948 0.989440 -0.108774
C63   C     C_R   0.724052 0.342053 0.989440 -0.108773
C64   C     C_R   0.724052 0.657947 0.989440 -0.108773
C65   C     C_R   0.613347 0.950296 0.639569 -0.181583
C66   C     C_R   0.613347 0.049704 0.639568 -0.181583
C67   C     C_R   0.113347 0.450296 0.639569 -0.181582
C68   C     C_R   0.113347 0.549704 0.639568 -0.181583
C69   C     C_R   0.586094 0.949486 0.532146 0.326798
C70   C     C_R   0.586094 0.050514 0.532146 0.326798
C71   C     C_R   0.086094 0.449486 0.532146 0.326798
C72   C     C_R   0.086094 0.550514 0.532146 0.326798
C73   C     C_R   0.579378 0.000000 0.478395 -0.104794
C74   C     C_R   0.079378 0.500000 0.478395 -0.104795
C75   C     C_R   0.552314 0.045555 0.305005 0.057420
C76   C     C_R   0.552314 0.954445 0.305005 0.057419
C77   C     C_R   0.052314 0.545555 0.305005 0.057419
C78   C     C_R   0.052314 0.454445 0.305005 0.057419
C79   C     C_R   0.611022 1.000000 0.685237 0.021768
C80   C     C_R   0.111022 0.500000 0.685237 0.021767
C81   C     C_R   0.247222 0.953963 0.694037 -0.105091
C82   C     C_R   0.247222 0.046037 0.694036 -0.105093
C83   C     C_R   0.747222 0.453963 0.694036 -0.105092
C84   C     C_R   0.747222 0.546037 0.694037 -0.105090
C85   C     C_R   0.304708 0.131050 0.996974 0.091564
C86   C     C_R   0.304708 0.868949 0.996975 0.091563
C87   C     C_R   0.804708 0.631050 0.996974 0.091564
C88   C     C_R   0.804708 0.368949 0.996975 0.091563
C89   C     C_R   0.558009 0.000000 0.366127 0.039489
C90   C     C_R   0.058009 0.500000 0.366127 0.039489
C91   C     C_R   0.202037 1.000000 0.630075 -0.008743
C92   C     C_R   0.702036 0.500000 0.630075 -0.008743
C93   C     C_R   0.526941 0.045911 0.761003 -0.080231
C94   C     C_R   0.526941 0.954089 0.761003 -0.080232
C95   C     C_R   0.026941 0.545911 0.761003 -0.080232
C96   C     C_R   0.026941 0.454089 0.761003 -0.080231
C97   C     C_R   0.769118 0.953477 0.251263 -0.125604
C98   C     C_R   0.769118 0.046523 0.251263 -0.125604
C99   C     C_R   0.269119 0.453477 0.251263 -0.125605
C100  C     C_R   0.269118 0.546524 0.251263 -0.125603
H1    H     H_    0.250743 0.124416 0.821707 0.157575
H2    H     H_    0.250743 0.875583 0.821706 0.157575
H3    H     H_    0.750744 0.624417 0.821706 0.157575
H4    H     H_    0.750743 0.375583 0.821706 0.157575
H5    H     H_    0.054401 0.037175 0.623658 0.203478
H6    H     H_    0.096586 0.090754 0.506074 0.183095
H7    H     H_    0.554399 0.537172 0.623657 0.203480
H8    H     H_    0.596586 0.590755 0.506080 0.183094
H9    H     H_    0.901182 0.037196 0.480600 0.181761
H10   H     H_    0.945816 0.090869 0.363944 0.171317
H11   H     H_    0.401177 0.537188 0.480602 0.181759
H12   H     H_    0.445814 0.590870 0.363959 0.171320
H13   H     H_    0.901177 0.962810 0.480600 0.181758
H14   H     H_    0.973039 0.052328 0.282321 0.179249
H15   H     H_    0.401181 0.462802 0.480597 0.181760
H16   H     H_    0.473035 0.552337 0.282326 0.179248
H17   H     H_    0.096590 0.909245 0.506074 0.183092
H18   H     H_    0.129541 0.947262 0.429063 0.188826
H19   H     H_    0.596590 0.409247 0.506068 0.183092
H20   H     H_    0.629544 0.447265 0.429062 0.188825
H21   H     H_    0.945816 0.909131 0.363955 0.171320
H22   H     H_    0.973034 0.947666 0.282322 0.179248
H23   H     H_    0.445818 0.409132 0.363940 0.171317
H24   H     H_    0.473039 0.447675 0.282318 0.179249
H25   H     H_    0.699586 0.260781 0.158235 0.184666
H26   H     H_    0.699585 0.739219 0.158235 0.184666
H27   H     H_    0.199585 0.760781 0.158235 0.184666
H28   H     H_    0.199585 0.239219 0.158234 0.184667
H29   H     H_    0.614783 0.911357 0.676379 0.194223
H30   H     H_    0.614782 0.088643 0.676378 0.194223
H31   H     H_    0.114783 0.411357 0.676379 0.194223
H32   H     H_    0.114782 0.588643 0.676378 0.194223
H33   H     H_    0.422797 0.872661 0.174926 0.172928
H34   H     H_    0.422797 0.127339 0.174926 0.172928
H35   H     H_    0.922797 0.372661 0.174926 0.172928
H36   H     H_    0.922797 0.627339 0.174926 0.172928
H37   H     H_    0.235583 0.911192 0.667964 0.137459
H38   H     H_    0.235583 0.088808 0.667964 0.137461
H39   H     H_    0.735582 0.411192 0.667964 0.137460
H40   H     H_    0.735584 0.588809 0.667964 0.137459
H41   H     H_    0.538776 0.088930 0.753323 0.160159
H42   H     H_    0.538777 0.911070 0.753323 0.160159
H43   H     H_    0.038776 0.588930 0.753323 0.160159
H44   H     H_    0.038777 0.411070 0.753323 0.160159
H45   H     H_    0.790653 0.910717 0.268898 0.108517
H46   H     H_    0.790653 0.089283 0.268899 0.108517
H47   H     H_    0.290654 0.410718 0.268899 0.108517
H48   H     H_    0.290652 0.589283 0.268897 0.108517
H49   H     H_    0.698187 0.164062 0.174977 0.130341
H50   H     H_    0.698187 0.835938 0.174977 0.130341
H51   H     H_    0.198187 0.664062 0.174977 0.130341
H52   H     H_    0.198188 0.335938 0.174977 0.130342
H53   H     H_    0.054399 0.962823 0.623653 0.203481
H54   H     H_    0.129544 0.052740 0.429067 0.188825
H55   H     H_    0.554401 0.462820 0.623653 0.203480
H56   H     H_    0.629541 0.552743 0.429068 0.188825
N1    N     N_R   0.392140 0.102630 0.941800 -0.049214
N2    N     N_R   0.392140 0.897370 0.941800 -0.049214
N3    N     N_R   0.892140 0.602630 0.941800 -0.049214
N4    N     N_R   0.892140 0.397370 0.941800 -0.049214
N5    N     N_R   0.450890 0.896450 0.057150 -0.058683
N6    N     N_R   0.450890 0.103550 0.057150 -0.058683
N7    N     N_R   0.950890 0.396450 0.057150 -0.058683
N8    N     N_R   0.950890 0.603550 0.057150 -0.058683
N9    N     N_R   0.525160 0.027960 0.206160 -0.078618
N10   N     N_R   0.525160 0.972040 0.206160 -0.078617
N11   N     N_R   0.025160 0.527960 0.206160 -0.078618
N12   N     N_R   0.025160 0.472040 0.206160 -0.078617
N13   N     N_R   0.317870 0.971120 0.792790 -0.045489
N14   N     N_R   0.317870 0.028880 0.792790 -0.045489
N15   N     N_R   0.817870 0.471120 0.792790 -0.045488
N16   N     N_R   0.817870 0.528880 0.792790 -0.045489
N17   N     N_R   0.473480 0.027920 0.793480 -0.046300
N18   N     N_R   0.473480 0.972080 0.793480 -0.046300
N19   N     N_R   0.973480 0.527920 0.793480 -0.046300
N20   N     N_R   0.973480 0.472080 0.793480 -0.046300
N21   N     N_R   0.681610 0.971120 0.207570 -0.048364
N22   N     N_R   0.681610 0.028880 0.207570 -0.048363
N23   N     N_R   0.181610 0.471120 0.207570 -0.048363
N24   N     N_R   0.181610 0.528880 0.207570 -0.048364
N25   N     N_R   0.605410 0.102620 0.056870 -0.061085
N26   N     N_R   0.605410 0.897380 0.056870 -0.061085
N27   N     N_R   0.105410 0.602620 0.056870 -0.061084
N28   N     N_R   0.105410 0.397380 0.056870 -0.061084
N29   N     N_R   0.549680 0.896430 0.944180 -0.087691
N30   N     N_R   0.549680 0.103570 0.944180 -0.087691
N31   N     N_R   0.049680 0.396430 0.944180 -0.087691
N32   N     N_R   0.049680 0.603570 0.944180 -0.087691
Ni1   Ni    Ni4+2 0.433410 0.064680 0.868830 0.279242
Ni2   Ni    Ni4+2 0.433410 0.935320 0.868830 0.279242
Ni3   Ni    Ni4+2 0.933410 0.564680 0.868830 0.279242
Ni4   Ni    Ni4+2 0.933410 0.435320 0.868830 0.279242
Ni5   Ni    Ni4+2 0.565650 0.934380 0.131170 0.223812
Ni6   Ni    Ni4+2 0.565650 0.065620 0.131170 0.223812
Ni7   Ni    Ni4+2 0.065650 0.434380 0.131170 0.223813
Ni8   Ni    Ni4+2 0.065650 0.565620 0.131170 0.223813
Br1   Br    Br    0.079072 0.848621 0.752222 -0.478945
Br2   Br    Br    0.079073 0.151380 0.752221 -0.478943
Br3   Br    Br    0.579072 0.348621 0.752222 -0.478945
Br4   Br    Br    0.579072 0.651379 0.752222 -0.478944
Br5   Br    Br    0.642470 0.209361 0.791831 -0.437161
Br6   Br    Br    0.642469 0.790639 0.791830 -0.437160
Br7   Br    Br    0.142469 0.709361 0.791830 -0.437160
Br8   Br    Br    0.142472 0.290640 0.791832 -0.437161
Br9   Br    Br    0.279202 0.873580 0.207648 -0.435743
Br10  Br    Br    0.279201 0.126420 0.207648 -0.435742
Br11  Br    Br    0.779202 0.373580 0.207648 -0.435743
Br12  Br    Br    0.779202 0.626420 0.207648 -0.435743
Br13  Br    Br    0.518423 0.882298 0.458573 -0.421791
Br14  Br    Br    0.518422 0.117702 0.458572 -0.421791
Br15  Br    Br    0.018423 0.382298 0.458573 -0.421791
Br16  Br    Br    0.018423 0.617702 0.458572 -0.421791
C101  C     C_1   0.616888 0.091848 0.351592 0.108752
N33   N     N_1   0.669121 0.128807 0.388279 -0.030346
C102  C     C_1   0.616888 0.908152 0.351592 0.108753
N34   N     N_1   0.669121 0.871193 0.388279 -0.030346
C103  C     C_1   0.116888 0.591848 0.351592 0.108753
N35   N     N_1   0.169122 0.628807 0.388279 -0.030346
C104  C     C_1   0.116888 0.408152 0.351592 0.108753
N36   N     N_1   0.169122 0.371193 0.388279 -0.030346
Br17  Br    Br    0.447716 0.814442 0.781562 -0.453287
Br18  Br    Br    0.447717 0.185558 0.781562 -0.453286
Br19  Br    Br    0.947717 0.314442 0.781562 -0.453286
Br20  Br    Br    0.947716 0.685558 0.781562 -0.453287

loop_
_geom_bond_atom_site_label_1
_geom_bond_atom_site_label_2
_ccdc_geom_bond_type
C68   C80   A    
C38   C87   A    
C3    N3    A    
N15   N16   A    
C82   N14   A    
C58   C62   A    
N9    N10   A    
C65   C79   A    
C23   H55   S    
C63   C88   S    
N13   N14   A    
C37   C88   A    
N10   Ni5   S    
C41   C61   A    
N9    Ni6   S    
C35   H33   S    
C83   H39   S    
C53   C59   A    
C43   C63   A    
N29   Ni2   S    
N18   Ni2   S    
C72   Br16  S    
N17   N18   A    
C44   C64   A    
C95   H43   S    
C83   C92   A    
C21   C31   S    
N14   Ni1   S    
C50   C54   A    
C39   H22   S    
N21   Ni5   S    
C6    N26   A    
N32   Ni3   S    
C34   C40   S    
C8    H52   S    
C28   H12   S    
C48   C52   A    
C9    N29   A    
N2    Ni2   S    
N19   Ni3   S    
C35   C86   A    
C49   C53   A    
N20   Ni4   S    
C5    C17   A    
C30   H19   S    
C58   Br10  S    
C10   C17   A    
C59   Br11  S    
C38   H36   S    
C12   N32   A    
C57   Br9   S    
C5    H49   S    
C13   C79   S    
N11   Ni8   S    
C5    N25   A    
C68   H32   S    
C9    Br17  S    
C95   N19   A    
C12   Br20  S    
C99   H47   S    
C28   H16   S    
N2    N5    A    
C16   C34   S    
C52   C56   A    
C33   C39   S    
N5    Ni5   S    
N12   Ni7   S    
C83   N15   A    
N17   Ni1   S    
C37   H35   S    
C76   N10   A    
C24   H8    S    
C14   C80   S    
C98   N22   A    
C96   N20   A    
C26   H10   S    
C64   C87   S    
C51   C55   A    
N24   Ni8   S    
C68   C72   A    
C76   C89   A    
C37   N7    A    
C8    N28   A    
C38   N8    A    
C27   H11   S    
N16   Ni3   S    
C45   Br5   S    
C36   N6    A    
N6    Ni6   S    
N13   Ni2   S    
C15   C97   A    
C40   H24   S    
C14   C96   A    
C44   C46   A    
C46   C50   A    
C23   C27   S    
C27   C34   S    
C1    C85   A    
C6    C18   A    
C62   C85   S    
C77   C90   A    
C22   C31   S    
C3    C87   A    
C94   H42   S    
N4    N7    A    
N3    Ni3   S    
C42   Br2   S    
N4    Ni4   S    
C41   Br1   S    
C17   C49   S    
N11   N12   A    
C10   Br18  S    
C16   C100  A    
C47   C51   A    
C98   H46   S    
C32   C92   S    
C103  N35   T    
C101  N33   T    
C29   H17   S    
C11   C20   A    
C75   C101  S    
N23   Ni7   S    
C78   C90   A    
C82   C91   A    
C13   C93   A    
C60   C64   A    
N26   N29   A    
C6    H50   S    
C42   C48   A    
C81   H37   S    
C102  N34   T    
C24   C32   S    
C99   N23   A    
C66   C79   A    
C25   H13   S    
C78   C104  S    
C96   H44   S    
N22   Ni6   S    
C26   C33   S    
C97   N21   A    
N19   N20   A    
N7    Ni7   S    
C2    N2    A    
C23   H7    S    
C29   C39   S    
C70   C73   A    
N27   Ni8   S    
C41   C47   A    
C30   C40   S    
C75   N9    A    
N26   Ni5   S    
C35   N5    A    
C69   C73   A    
N25   Ni6   S    
C43   C45   A    
N31   Ni4   S    
C53   H25   S    
C42   C62   A    
C7    H51   S    
C72   C74   A    
C8    C20   A    
C94   N18   A    
C44   Br4   S    
C7    C19   A    
C55   C57   A    
C70   Br14  S    
C11   N31   A    
C59   C63   A    
C69   Br13  S    
C15   C98   A    
C11   Br19  S    
C100  N24   A    
C1    H1    S    
C14   C95   A    
C104  N36   T    
C93   H41   S    
C18   C50   S    
C22   H54   S    
C3    H3    S    
C26   H14   S    
C40   H23   S    
C21   C25   S    
C21   H53   S    
C47   Br7   S    
C97   H45   S    
C67   H31   S    
C67   C80   A    
C24   C28   S    
C31   C91   S    
C55   H27   S    
C84   N16   A    
C36   H34   S    
C4    N4    A    
C71   C74   A    
C65   H29   S    
N25   N30   A    
N8    Ni8   S    
C16   C99   A    
C57   C61   A    
C4    C88   A    
C25   H9    S    
C36   C85   A    
C77   N11   A    
N28   Ni7   S    
C29   H18   S    
C48   Br8   S    
C78   N12   A    
C81   N13   A    
C39   H21   S    
N28   N31   A    
C7    N27   A    
C13   C94   A    
C54   C60   A    
C23   C32   S    
C74   C90   S    
N30   Ni1   S    
C1    N1    A    
C73   C89   S    
C29   C31   S    
C22   H6    S    
N27   N32   A    
C82   H38   S    
C30   C32   S    
C54   H26   S    
C76   C102  S    
C77   C103  S    
C66   C70   A    
C30   H20   S    
C100  H48   S    
C65   C69   A    
C4    H4    S    
C12   C19   A    
C93   N17   A    
C10   N30   A    
C56   C58   A    
N15   Ni4   S    
C2    C86   A    
C67   C71   A    
C56   H28   S    
N1    Ni1   S    
C61   C86   S    
C75   C89   A    
C28   C34   S    
N23   N24   A    
C81   C91   A    
C19   C51   S    
C9    C18   A    
C46   Br6   S    
C84   H40   S    
C20   C52   S    
N21   N22   A    
C22   C26   S    
C25   C33   S    
C2    H2    S    
N3    N8    A    
C71   Br15  S    
C43   Br3   S    
C45   C49   A    
C84   C92   A    
N1    N6    A    
C15   C33   S    
C21   H5    S    
C24   H56   S    
C60   Br12  S    
C66   H30   S    
C27   H15   S    
