data_mof_unit_4214.cif
_audit_creation_date              2012-12-10T17:32:22-0500
_audit_creation_method            fapswitch 2.2
_symmetry_space_group_name_H-M    P1
_symmetry_Int_Tables_number       1
_space_group_crystal_system       triclinic
_cell_length_a                    15.520826
_cell_length_b                    15.486002
_cell_length_c                    15.50721
_cell_angle_alpha                 91.431733
_cell_angle_beta                  72.003966
_cell_angle_gamma                 111.837823
_cell_volume                      3273.39917517

loop_
_atom_site_label
_atom_site_type_symbol
_atom_type_description
_atom_site_fract_x
_atom_site_fract_y
_atom_site_fract_z
_atom_type_partial_charge
C1    C     C_R   0.461460 0.257941 0.464104 0.502521
C2    C     C_R   0.534829 0.506521 0.110703 -0.132049
C3    C     C_R   0.610989 0.670227 0.129931 -0.121717
C4    C     C_R   0.534097 0.741077 0.536920 0.527486
C5    C     C_R   0.436242 0.422936 0.837367 -0.041127
C6    C     C_R   0.315667 0.005289 0.469048 -0.129282
C7    C     C_R   0.440603 0.159195 0.455672 0.036065
C8    C     C_R   0.642717 0.895709 0.560068 -0.137018
C9    C     C_R   0.671909 0.992547 0.558634 0.263266
C10   C     C_R   0.615753 0.034972 0.536258 -0.095237
C11   C     C_R   0.524321 0.981419 0.524718 -0.057780
C12   C     C_R   0.419760 0.298354 0.940382 0.271929
C13   C     C_R   0.487881 0.882197 0.541095 0.002353
C14   C     C_R   0.467690 0.023308 0.498050 0.019496
C15   C     C_R   0.373062 0.965950 0.494910 0.003178
C16   C     C_R   0.756291 0.550843 0.463546 0.535140
C17   C     C_R   0.334081 0.870506 0.521983 -0.102012
C18   C     C_R   0.388132 0.828879 0.548957 0.275922
C19   C     C_R   0.501132 0.120593 0.475406 -0.113947
C20   C     C_R   0.348659 0.101540 0.451023 -0.119788
C21   C     C_R   0.552465 0.840127 0.549532 -0.025344
C22   C     C_R   0.016782 0.607801 0.328609 -0.140442
C23   C     C_R   0.477434 0.364469 0.983854 0.268785
C24   C     C_R   0.859815 0.569570 0.444891 0.035738
C25   C     C_R   0.068865 0.364672 0.627220 -0.129464
C26   C     C_R   0.969710 0.346147 0.647829 -0.161479
C27   C     C_R   0.938111 0.392150 0.595682 -0.087804
C28   C     C_R   0.242862 0.447590 0.534231 0.481098
C29   C     C_R   0.005768 0.457573 0.520352 0.019726
C30   C     C_R   0.104292 0.463875 0.491090 -0.026655
C31   C     C_R   0.978388 0.513339 0.470241 -0.007741
C32   C     C_R   0.044060 0.557682 0.382221 0.006250
C33   C     C_R   0.135354 0.549537 0.347680 0.261350
C34   C     C_R   0.495500 0.461120 0.968460 -0.031470
C35   C     C_R   0.165559 0.505798 0.402790 -0.084910
C36   C     C_R   0.889465 0.528794 0.504444 0.250428
C37   C     C_R   0.924081 0.610278 0.358275 -0.193740
C38   C     C_R   0.137506 0.424094 0.549521 0.019610
C39   C     C_R   0.551645 0.551727 0.259067 0.485251
C40   C     C_R   0.448327 0.450123 0.742717 0.505946
C41   C     C_R   0.607175 0.695469 0.046366 -0.132386
C42   C     C_R   0.572324 0.575957 0.163102 0.021398
C43   C     C_R   0.401365 0.327684 0.866063 -0.174817
C44   C     C_3   0.763409 0.032527 0.655984 0.009313
C45   C     C_R   0.476124 0.490128 0.892570 -0.025315
C46   C     C_3   0.707495 0.082003 0.724649 -0.270846
C47   C     C_3   0.714149 0.069059 0.819289 -0.488065
C48   C     C_3   0.315887 0.725955 0.677439 -0.001548
C49   C     C_3   0.279569 0.622467 0.710468 -0.232123
C50   C     C_3   0.254172 0.607372 0.813599 -0.495700
C51   C     C_3   0.180320 0.529569 0.195343 -0.002205
C52   C     C_3   0.251261 0.478695 0.171184 -0.258510
C53   C     C_3   0.239611 0.421053 0.091246 -0.480468
C54   C     C_3   0.841963 0.578158 0.645779 0.022789
C55   C     C_3   0.922592 0.590710 0.687957 -0.279897
C56   C     C_R   0.533942 0.530042 0.023927 0.019401
C57   C     C_3   0.929699 0.667057 0.752602 -0.489806
C58   C     C_3   0.619546 0.359548 0.995528 0.013130
C59   C     C_3   0.642506 0.295255 0.922697 -0.246687
C60   C     C_3   0.752814 0.321373 0.881150 -0.499429
C61   C     C_3   0.295628 0.163224 0.016623 0.009487
C62   C     C_3   0.286390 0.169927 0.117722 -0.247690
C63   C     C_3   0.180100 0.121990 0.178698 -0.493168
C64   C     C_R   0.564918 0.626397 0.995244 0.042590
C65   C     C_R   0.546939 0.652992 0.919662 -0.139756
C66   C     C_R   0.498428 0.585798 0.872229 -0.109812
H1    H     H_    0.638280 0.724346 0.171475 0.115290
H2    H     H_    0.091783 0.331827 0.672036 0.133285
H3    H     H_    0.859962 0.371728 0.613261 0.180108
H4    H     H_    0.917106 0.296728 0.705481 0.107595
H5    H     H_    0.236064 0.501116 0.372549 0.157294
H6    H     H_    0.632361 0.769034 0.024067 0.105524
H7    H     H_    0.497632 0.435747 0.143025 0.163115
H8    H     H_    0.367928 0.275386 0.825935 0.150079
H9    H     H_    0.478185 0.610065 0.819558 0.135980
H10   H     H_    0.300546 0.131556 0.437715 0.108246
H11   H     H_    0.841314 0.062259 0.653602 0.155323
H12   H     H_    0.259791 0.827685 0.524358 0.124998
H13   H     H_    0.735201 0.956832 0.679582 0.113651
H14   H     H_    0.738605 0.157900 0.701412 0.166587
H15   H     H_    0.628951 0.052860 0.729103 0.161773
H16   H     H_    0.685202 0.993493 0.842936 0.146153
H17   H     H_    0.669726 0.101954 0.868319 0.153244
H18   H     H_    0.791503 0.102467 0.818092 0.141215
H19   H     H_    0.256218 0.751847 0.708357 0.123960
H20   H     H_    0.379930 0.765425 0.700350 0.117358
H21   H     H_    0.213453 0.582263 0.691111 0.169387
H22   H     H_    0.337563 0.595384 0.676947 0.169657
H23   H     H_    0.243223 0.961947 0.467016 0.107013
H24   H     H_    0.319676 0.645972 0.834303 0.139747
H25   H     H_    0.228986 0.531728 0.834924 0.144569
H26   H     H_    0.194567 0.631767 0.848751 0.143802
H27   H     H_    0.192310 0.572641 0.133287 0.149356
H28   H     H_    0.102858 0.477823 0.215032 0.118244
H29   H     H_    0.328031 0.530584 0.152966 0.193498
H30   H     H_    0.236727 0.431146 0.230933 0.145046
H31   H     H_    0.162953 0.369645 0.107257 0.142620
H32   H     H_    0.288902 0.382209 0.077856 0.144130
H33   H     H_    0.259220 0.467431 0.028865 0.151928
H34   H     H_    0.571071 0.169078 0.477726 0.102046
H35   H     H_    0.771704 0.563539 0.701753 0.170488
H36   H     H_    0.857903 0.644728 0.606328 0.133100
H37   H     H_    0.906537 0.523950 0.726392 0.171093
H38   H     H_    0.994428 0.609970 0.633157 0.169973
H39   H     H_    0.946884 0.734923 0.715472 0.146874
H40   H     H_    0.989083 0.674802 0.781424 0.146211
H41   H     H_    0.859510 0.648417 0.809566 0.149013
H42   H     H_    0.651680 0.353954 0.048967 0.156711
H43   H     H_    0.656381 0.433919 0.965574 0.123822
H44   H     H_    0.607088 0.221548 0.953820 0.190169
H45   H     H_    0.692628 0.864297 0.566204 0.133722
H46   H     H_    0.613067 0.301238 0.867278 0.178627
H47   H     H_    0.789529 0.395173 0.850403 0.149081
H48   H     H_    0.767153 0.275744 0.826899 0.143040
H49   H     H_    0.784096 0.311895 0.933989 0.146958
H50   H     H_    0.267813 0.088137 0.005106 0.148455
H51   H     H_    0.247740 0.193477 0.998322 0.106682
H52   H     H_    0.331717 0.136439 0.135327 0.192017
H53   H     H_    0.313705 0.244433 0.131141 0.174465
H54   H     H_    0.133999 0.155944 0.163493 0.147937
H55   H     H_    0.176000 0.127829 0.251255 0.151353
H56   H     H_    0.645172 0.110201 0.530878 0.128760
H57   H     H_    0.151085 0.046737 0.168065 0.148640
H58   H     H_    0.901160 0.641916 0.312450 0.116637
H59   H     H_    0.065126 0.641343 0.261407 0.156609
H60   H     H_    0.565841 0.726087 0.899939 0.100043
O1    O     O_3   0.500000 0.500000 0.500000 -0.440411
O2    O     O_R   0.588830 0.499590 0.285390 -0.545774
O3    O     O_R   0.395900 0.395880 0.699370 -0.548177
O4    O     O_R   0.493280 0.582590 0.315890 -0.539527
O5    O     O_R   0.521980 0.521940 0.699340 -0.540274
O6    O     O_3   0.761740 0.048523 0.567081 -0.567519
O7    O     O_3   0.341335 0.735185 0.581544 -0.540627
O8    O     O_3   0.199964 0.591219 0.262186 -0.570373
O9    O     O_3   0.828734 0.500473 0.593832 -0.596916
O10   O     O_3   0.517034 0.331920 0.038391 -0.574855
O11   O     O_3   0.395134 0.204188 0.961281 -0.551722
O12   O     O_R   0.708210 0.582550 0.530770 -0.538077
O13   O     O_R   0.270260 0.395900 0.573760 -0.558109
O14   O     O_R   0.537060 0.322180 0.411040 -0.532754
O15   O     O_R   0.484470 0.699370 0.484430 -0.475923
O16   O     O_R   0.404710 0.279110 0.530840 -0.541748
O17   O     O_R   0.573760 0.699350 0.573690 -0.575315
O18   O     O_R   0.714470 0.499570 0.411000 -0.540635
O19   O     O_R   0.307050 0.521980 0.484470 -0.523937
Zn1   Zn    Zn3+2 0.574690 0.574670 0.574650 0.917409
Zn2   Zn    Zn3+2 0.583640 0.456100 0.403530 0.937863
Zn3   Zn    Zn3+2 0.447120 0.574690 0.447120 0.959670
Zn4   Zn    Zn3+2 0.394550 0.394550 0.574700 0.923019

loop_
_geom_bond_atom_site_label_1
_geom_bond_atom_site_label_2
_ccdc_geom_bond_type
O17   Zn1   S    
C57   H39   S    
C40   O3    A    
C3    C42   A    
C34   C56   A    
C63   H54   S    
C27   C29   A    
C58   H43   S    
C49   H21   S    
C54   H35   S    
C60   H48   S    
C4    O17   A    
C53   H33   S    
C28   O13   A    
C12   C23   A    
C20   H10   S    
C26   C27   A    
C29   C30   A    
C22   C32   A    
C23   O10   S    
C52   H29   S    
O16   Zn4   S    
C44   H11   S    
C16   O18   A    
O12   Zn1   S    
C12   C43   A    
C31   C36   A    
C33   C35   A    
C51   O8    S    
C18   O7    S    
C54   O9    S    
C46   H15   S    
C55   H37   S    
C59   H44   S    
C30   C38   A    
O5    Zn1   S    
C47   H16   S    
C49   C50   S    
C1    O16   A    
O15   Zn3   S    
C59   H46   S    
C6    C15   A    
C46   C47   S    
C33   O8    S    
C50   H24   S    
C8    C9    A    
C56   C64   A    
C47   H17   S    
C9    C10   A    
C27   H3    S    
O1    Zn3   S    
C43   H8    S    
C57   H40   S    
C5    C43   A    
C35   H5    S    
C59   C60   S    
C16   C24   S    
C54   H36   S    
C49   H22   S    
C60   H47   S    
C25   H2    S    
O18   Zn2   S    
O14   Zn2   S    
C63   H55   S    
C44   C46   S    
C24   C37   A    
C39   C42   S    
C3    H1    S    
C61   H51   S    
C51   C52   S    
C48   O7    S    
C8    H45   S    
C4    O15   A    
C22   H59   S    
C51   H28   S    
C53   H31   S    
C25   C26   A    
C22   C37   A    
O4    Zn3   S    
C55   H38   S    
O13   Zn4   S    
C32   C33   A    
O3    Zn4   S    
C62   C63   S    
C25   C38   A    
C37   H58   S    
C31   C32   A    
C14   C15   A    
C28   C38   S    
C23   C34   A    
C61   H50   S    
C17   C18   A    
C28   O19   A    
C13   C21   A    
C34   C45   A    
C24   C36   A    
C47   H18   S    
C1    O14   A    
C62   H53   S    
C2    H7    S    
C51   H27   S    
C41   H6    S    
C13   C18   A    
C50   H26   S    
C48   C49   S    
C57   H41   S    
C40   O5    A    
C65   C66   A    
C7    C19   A    
C55   C57   S    
C26   H4    S    
C48   H20   S    
C36   O9    S    
O19   Zn3   S    
C6    C20   A    
C52   C53   S    
C9    O6    S    
C15   C17   A    
C54   C55   S    
C3    C41   A    
C39   O2    A    
C1    C7    S    
C14   C19   A    
C12   O11   S    
C44   H13   S    
C16   O12   A    
C10   H56   S    
C8    C21   A    
C63   H57   S    
C19   H34   S    
O2    Zn2   S    
C39   O4    A    
C53   H32   S    
C44   O6    S    
C6    H23   S    
C30   C35   A    
C58   O10   S    
C65   H60   S    
C58   C59   S    
C29   C31   A    
C2    C56   A    
C64   C65   A    
C46   H14   S    
C4    C21   S    
C11   C13   A    
C61   O11   S    
C5    C45   A    
C2    C42   A    
C66   H9    S    
C17   H12   S    
C11   C14   A    
C52   H30   S    
C58   H42   S    
C61   C62   S    
C62   H52   S    
C10   C11   A    
O1    Zn1   S    
C50   H25   S    
C7    C20   A    
C5    C40   S    
C45   C66   A    
C48   H19   S    
C60   H49   S    
C41   C64   A    
O1    Zn4   S    
O1    Zn2   S    
