data_mof_unit_3657.cif
_audit_creation_date              2012-12-10T20:31:05-0500
_audit_creation_method            fapswitch 2.2
_symmetry_space_group_name_H-M    P1
_symmetry_Int_Tables_number       1
_space_group_crystal_system       triclinic
_cell_length_a                    14.955457
_cell_length_b                    10.628641
_cell_length_c                    9.876638
_cell_angle_alpha                 90.737087
_cell_angle_beta                  90.413837
_cell_angle_gamma                 90.482404
_cell_volume                      1569.72493698

loop_
_atom_site_label
_atom_site_type_symbol
_atom_type_description
_atom_site_fract_x
_atom_site_fract_y
_atom_site_fract_z
_atom_type_partial_charge
C1    C     C_R   0.500599 0.260650 0.499026 0.959857
C2    C     C_R   0.905488 0.573963 0.401387 0.106311
C3    C     C_R   0.955111 0.371471 0.698201 -0.173569
C4    C     C_R   0.047934 0.371667 0.696162 -0.171637
C5    C     C_R   0.093553 0.440482 0.597920 0.122300
C6    C     C_R   0.046441 0.510058 0.500301 0.014400
C7    C     C_R   0.092287 0.582020 0.402491 0.037310
C8    C     C_R   0.043344 0.648961 0.305304 -0.131813
C9    C     C_R   0.950602 0.644032 0.304279 -0.187437
C10   C     C_R   0.185727 0.439722 0.595094 -0.294939
C11   C     C_R   0.231253 0.509830 0.498796 -0.127648
C12   C     C_R   0.326924 0.503623 0.499544 0.932379
C13   C     C_R   0.185767 0.584713 0.404591 0.307061
C14   C     C_R   0.427698 0.063989 0.539821 0.022455
C15   C     C_R   0.502074 0.129019 0.494478 -0.194187
C16   C     C_R   0.573657 0.065711 0.433141 0.334573
C17   C     C_R   0.574329 0.934607 0.435718 0.342060
C18   C     C_R   0.503930 0.871459 0.500887 -0.178782
C19   C     C_R   0.429187 0.936260 0.545219 -0.005614
C20   C     C_3   0.376924 0.934385 0.674369 0.271854
C21   C     C_3   0.374871 0.077321 0.666746 -0.471243
C22   C     C_R   0.449757 0.413966 0.069412 0.201786
C23   C     C_R   0.500933 0.739530 0.500810 0.984130
C24   C     C_R   0.556091 0.576319 0.074296 -0.132349
C25   C     C_R   0.556438 0.576404 0.930626 0.451788
C26   C     C_R   0.449622 0.414102 0.926965 0.098224
C27   C     C_3   0.350484 0.398559 0.919929 -0.538004
C28   C     C_3   0.350715 0.398496 0.073890 0.202530
C29   C     C_R   0.673102 0.500041 0.500378 0.949151
C30   C     C_R   0.813075 0.569023 0.400812 -0.178135
C31   C     C_R   0.768600 0.502209 0.500937 -0.047814
C32   C     C_R   0.814997 0.437953 0.601223 -0.189176
C33   C     C_R   0.907599 0.438723 0.600888 0.109652
C34   C     C_R   0.953233 0.507706 0.500921 0.082306
H1    H     H_    0.920524 0.318193 0.774982 0.169085
H2    H     H_    0.075811 0.704122 0.228314 0.214307
N1    N     N_R   0.499390 0.499140 0.142800 -0.156639
N2    N     N_R   0.499390 0.499180 0.857150 -0.143384
O1    O     O_R   0.500010 0.316790 0.614690 -0.633115
O2    O     O_R   0.500000 0.316760 0.385350 -0.564353
O3    O     O_R   0.367850 0.499990 0.614680 -0.642252
O4    O     O_R   0.367840 0.499950 0.385340 -0.579629
O5    O     O_R   0.500000 0.683240 0.614650 -0.546289
O6    O     O_R   0.499990 0.683210 0.385310 -0.590261
O7    O     O_R   0.632160 0.500050 0.614660 -0.590844
O8    O     O_R   0.632150 0.500010 0.385320 -0.612068
Zn1   Zn    Zn3+2 0.500010 0.500020 0.653130 1.035396
Zn2   Zn    Zn3+2 0.499990 0.499980 0.346870 1.057112
H3    H     H_    0.775626 0.618711 0.323993 0.194506
Cl1   Cl    Cl    0.666152 0.851482 0.368240 -0.546579
H4    H     H_    0.310068 0.889090 0.661633 0.127216
Cl2   Cl    Cl    0.439024 0.882244 0.818226 -0.486487
H5    H     H_    0.306880 0.114650 0.646843 0.178839
H6    H     H_    0.412687 0.127100 0.749002 0.249516
H7    H     H_    0.599979 0.639590 0.130698 0.208916
Cl3   Cl    Cl    0.630045 0.679714 0.849530 -0.488949
H8    H     H_    0.316788 0.482143 0.877109 0.210133
H9    H     H_    0.330301 0.307288 0.872268 0.228478
H10   H     H_    0.316242 0.480501 0.119995 0.179245
H11   H     H_    0.778948 0.385629 0.677432 0.169561
Cl4   Cl    Cl    0.319635 0.250337 0.143168 -0.530058
H12   H     H_    0.084070 0.318350 0.771396 0.164374
H13   H     H_    0.222403 0.383354 0.667251 0.163358
Cl5   Cl    Cl    0.245628 0.687750 0.296958 -0.617361
H14   H     H_    0.914129 0.695374 0.227794 0.182435
Cl6   Cl    Cl    0.665289 0.149445 0.364820 -0.511986

loop_
_geom_bond_atom_site_label_1
_geom_bond_atom_site_label_2
_ccdc_geom_bond_type
C17   Cl1   S    
C2    C9    A    
C7    C13   A    
O6    Zn2   S    
C11   C12   S    
C24   C25   A    
C6    C7    A    
C1    C15   S    
C26   N2    A    
C25   N2    A    
C19   C20   S    
C25   Cl3   S    
C3    H1    S    
C29   O8    A    
C2    C30   A    
C6    C34   A    
C32   C33   A    
C2    C34   A    
N2    Zn1   S    
C17   C18   A    
O3    Zn1   S    
C5    C10   A    
C29   C31   S    
C3    C33   A    
C22   C28   S    
C28   Cl4   S    
C24   H7    S    
C21   H5    S    
C4    C5    A    
C11   C13   A    
C30   C31   A    
C26   C27   S    
C5    C6    A    
C13   Cl5   S    
C15   C16   A    
C14   C21   S    
O1    Zn1   S    
C30   H3    S    
C33   C34   A    
C20   H4    S    
C9    H14   S    
O7    Zn1   S    
C8    H2    S    
C21   H6    S    
C23   O6    A    
O8    Zn2   S    
C16   Cl6   S    
C10   C11   A    
C1    O1    A    
C22   C26   A    
C18   C23   S    
C4    H12   S    
C7    C8    A    
C23   O5    A    
C20   C21   S    
C12   O3    A    
C20   Cl2   S    
C18   C19   A    
C27   H8    S    
C28   H10   S    
C24   N1    A    
O2    Zn2   S    
C32   H11   S    
C14   C15   A    
C16   C17   A    
C12   O4    A    
N1    Zn2   S    
C1    O2    A    
C22   N1    A    
O5    Zn1   S    
C14   C19   A    
C31   C32   A    
O4    Zn2   S    
C3    C4    A    
C10   H13   S    
C29   O7    A    
C8    C9    A    
C27   C28   S    
C27   H9    S    
