data_mof_unit_12.cif
_audit_creation_date              2012-12-10T18:11:06-0500
_audit_creation_method            fapswitch 2.2
_symmetry_space_group_name_H-M    P1
_symmetry_Int_Tables_number       1
_space_group_crystal_system       triclinic
_cell_length_a                    10.998061
_cell_length_b                    9.934987
_cell_length_c                    10.760373
_cell_angle_alpha                 90.750251
_cell_angle_beta                  89.160226
_cell_angle_gamma                 90.456866
_cell_volume                      1175.47586031

loop_
_atom_site_label
_atom_site_type_symbol
_atom_type_description
_atom_site_fract_x
_atom_site_fract_y
_atom_site_fract_z
_atom_type_partial_charge
C1    C     C_R   0.261070 0.500254 0.507752 0.768315
C2    C     C_3   0.489610 0.501154 0.125477 -0.071806
C3    C     C_3   0.066110 0.620049 0.598024 -0.010318
C4    C     C_3   0.066766 0.366673 0.562012 -0.102677
C5    C     C_3   0.923323 0.610467 0.600108 0.099845
C6    C     C_3   0.927641 0.359806 0.541682 0.139003
C7    C     C_3   0.077180 0.520185 0.378884 -0.467108
C8    C     C_3   0.121263 0.502237 0.514817 0.009921
C9    C     C_3   0.876977 0.501551 0.503630 -0.034541
C10   C     C_3   0.935559 0.535637 0.370704 0.190990
C11   C     C_3   0.562052 0.082687 0.616170 -0.016075
C12   C     C_3   0.585319 0.923220 0.598341 -0.035370
C13   C     C_3   0.374772 0.080745 0.501444 0.478084
C14   C     C_3   0.374578 0.917124 0.518075 0.490840
C15   C     C_3   0.576338 0.075057 0.398487 0.191471
C16   C     C_3   0.552152 0.916761 0.383496 0.151689
C17   C     C_R   0.495856 0.499785 0.261719 0.841392
C18   C     C_R   0.738376 0.500417 0.500222 0.841610
C19   C     C_R   0.496685 0.499927 0.739561 0.839566
C20   C     C_3   0.582344 0.574083 0.042313 0.127288
C21   C     C_3   0.385940 0.551535 0.045307 0.148177
C22   C     C_3   0.478487 0.626179 0.960628 -0.196433
C23   C     C_3   0.490933 0.497495 0.877947 -0.195435
C24   C     C_3   0.594346 0.446770 0.960726 0.315953
C25   C     C_3   0.395974 0.425560 0.961805 0.201734
C26   C     C_3   0.499146 0.374977 0.043340 -0.203716
Cu1   Cu    Cu3+1 0.499860 0.642410 0.500060 0.961920
Cu2   Cu    Cu3+1 0.499860 0.357590 0.500060 1.018039
H1    H     H_    0.463258 0.732091 0.935834 0.181331
H2    H     H_    0.653764 0.125585 0.614923 0.215353
H3    H     H_    0.680090 0.917738 0.558912 0.128325
H4    H     H_    0.673947 0.082572 0.424503 0.085095
H5    H     H_    0.641315 0.867999 0.363834 0.109110
H6    H     H_    0.499250 0.267876 0.068481 0.262278
H7    H     H_    0.088570 0.714130 0.548916 0.192974
H8    H     H_    0.105539 0.287040 0.501505 0.188237
H9    H     H_    0.888478 0.710582 0.574098 0.128805
H10   H     H_    0.911623 0.287573 0.464662 0.129444
H11   H     H_    0.124374 0.607707 0.336448 0.226334
H12   H     H_    0.108697 0.431866 0.322644 0.197441
N1    N     N_3   0.500250 0.143650 0.502780 -0.226311
N2    N     N_3   0.500250 0.856350 0.502780 -0.219554
O1    O     O_R   0.317570 0.620260 0.500070 -0.550272
O2    O     O_R   0.317570 0.379740 0.500070 -0.571870
O3    O     O_R   0.499850 0.620240 0.316900 -0.544526
O4    O     O_R   0.499850 0.379760 0.316900 -0.505524
O5    O     O_R   0.682190 0.620260 0.500030 -0.613480
O6    O     O_R   0.682190 0.379740 0.500030 -0.539315
O7    O     O_R   0.499910 0.620280 0.683200 -0.611475
O8    O     O_R   0.499910 0.379720 0.683200 -0.575477
C27   C     C_3   0.907506 0.681351 0.328373 -0.798059
H13   H     H_    0.808638 0.700185 0.327438 0.231963
H14   H     H_    0.951818 0.759436 0.386873 0.234072
H15   H     H_    0.943118 0.698080 0.232539 0.256510
C28   C     C_3   0.887752 0.440439 0.265747 -0.730586
H16   H     H_    0.915809 0.334505 0.275535 0.241360
H17   H     H_    0.787078 0.443317 0.260700 0.236256
H18   H     H_    0.926211 0.471137 0.174258 0.261914
C29   C     C_3   0.521973 0.123727 0.752436 -0.657915
H19   H     H_    0.503614 0.039658 0.815416 0.212564
H20   H     H_    0.596402 0.180402 0.798176 0.277452
H21   H     H_    0.441875 0.184744 0.765982 0.254474
C30   C     C_3   0.616258 0.849982 0.717738 -0.681722
H22   H     H_    0.667266 0.757831 0.696045 0.291442
H23   H     H_    0.679753 0.912386 0.774204 0.229282
H24   H     H_    0.536474 0.828820 0.775899 0.228658
C31   C     C_3   0.286597 0.136916 0.602373 -0.777485
H25   H     H_    0.281520 0.093332 0.694836 0.198601
H26   H     H_    0.311359 0.234388 0.637774 0.273086
H27   H     H_    0.193019 0.120473 0.570043 0.235274
C32   C     C_3   0.323014 0.867822 0.644779 -0.794655
H28   H     H_    0.340318 0.762964 0.659635 0.283562
H29   H     H_    0.365770 0.914576 0.725923 0.202701
H30   H     H_    0.223815 0.884820 0.651974 0.226881
Br1   Br    Br    0.626340 0.159518 0.245223 -0.436561
Br2   Br    Br    0.471538 0.881595 0.223749 -0.406234
Br3   Br    Br    0.304175 0.145270 0.342807 -0.350192
Br4   Br    Br    0.247832 0.850273 0.401684 -0.491430
C33   C     C_3   0.690287 0.663016 0.077281 -0.721696
H31   H     H_    0.770742 0.600720 0.094034 0.245735
H32   H     H_    0.712409 0.732281 0.999953 0.266419
H33   H     H_    0.669799 0.722702 0.161984 0.247045
C34   C     C_3   0.264907 0.608273 0.090286 -0.732699
H34   H     H_    0.279902 0.694041 0.154890 0.289599
H35   H     H_    0.212318 0.642796 0.009630 0.237808
H36   H     H_    0.212382 0.528635 0.138804 0.237286
Br5   Br    Br    0.744401 0.347641 0.950971 -0.406694
Br6   Br    Br    0.264833 0.297262 0.940719 -0.556836
C35   C     C_3   0.122723 0.642123 0.728689 -0.789782
H37   H     H_    0.109933 0.747864 0.759726 0.243460
H38   H     H_    0.219845 0.615711 0.729431 0.204664
H39   H     H_    0.082104 0.583717 0.804736 0.283204
C36   C     C_3   0.100023 0.339462 0.698093 -0.645974
H40   H     H_    0.094888 0.230766 0.718903 0.264479
H41   H     H_    0.191185 0.380004 0.718276 0.221781
H42   H     H_    0.035879 0.385552 0.765256 0.318159
Br7   Br    Br    0.847360 0.593224 0.764435 -0.533453
Br8   Br    Br    0.842273 0.261174 0.672601 -0.493000

loop_
_geom_bond_atom_site_label_1
_geom_bond_atom_site_label_2
_ccdc_geom_bond_type
C7    C10   S    
C15   Br1   S    
C28   H16   S    
C4    H8    S    
C36   H40   S    
C22   H1    S    
C5    H9    S    
C1    C8    S    
C14   C32   S    
C19   O8    A    
C4    C8    S    
C18   O5    A    
C6    C9    S    
C30   H23   S    
C7    C8    S    
Cu2   O4    S    
C6    Br8   S    
C4    C36   S    
C24   C26   S    
C15   C16   S    
Cu2   N1    S    
C12   N2    S    
Cu2   O8    S    
C26   H6    S    
C21   C34   S    
C11   H2    S    
C23   C24   S    
C6    H10   S    
C35   H38   S    
C9    C10   S    
C14   N2    S    
Cu1   O3    S    
C23   C25   S    
C30   H24   S    
C29   H19   S    
C36   H41   S    
C21   C22   S    
C2    C17   S    
C11   C29   S    
C10   C27   S    
C13   N1    S    
C1    O1    A    
C13   Br3   S    
C29   H20   S    
C2    C20   S    
C31   H25   S    
C20   C24   S    
C15   H4    S    
C17   O4    A    
C15   N1    S    
C4    C6    S    
C3    C8    S    
C32   H29   S    
C12   C30   S    
C25   C26   S    
Cu2   O2    S    
C25   Br6   S    
C27   H13   S    
C27   H14   S    
C19   C23   S    
C5    C9    S    
C16   H5    S    
C32   H30   S    
C19   O7    A    
C1    O2    A    
C34   H34   S    
C3    H7    S    
C7    H12   S    
C2    C21   S    
C2    C26   S    
C35   H39   S    
C10   C28   S    
C34   H35   S    
C20   C22   S    
C36   H42   S    
C28   H17   S    
C12   H3    S    
C16   N2    S    
C33   H32   S    
C13   C31   S    
Cu1   O5    S    
C21   C25   S    
Cu2   O6    S    
C29   H21   S    
C20   C33   S    
C16   Br2   S    
C17   O3    A    
C30   H22   S    
C3    C5    S    
C18   O6    A    
C33   H33   S    
C11   C12   S    
C3    C35   S    
C27   H15   S    
C31   H27   S    
C32   H28   S    
Cu1   N2    S    
C9    C18   S    
C11   N1    S    
C14   Br4   S    
C24   Br5   S    
C33   H31   S    
Cu1   O1    S    
C5    Br7   S    
C34   H36   S    
C28   H18   S    
Cu1   Cu2   S    
C7    H11   S    
C22   C23   S    
C31   H26   S    
C35   H37   S    
C13   C14   S    
Cu1   O7    S    
