data_mof_unit_2181.cif
_audit_creation_date              2012-12-10T18:57:14-0500
_audit_creation_method            fapswitch 2.2
_symmetry_space_group_name_H-M    P1
_symmetry_Int_Tables_number       1
_space_group_crystal_system       triclinic
_cell_length_a                    8.728091
_cell_length_b                    10.83534
_cell_length_c                    9.556612
_cell_angle_alpha                 90.473329
_cell_angle_beta                  97.860015
_cell_angle_gamma                 90.210911
_cell_volume                      895.254265262

loop_
_atom_site_label
_atom_site_type_symbol
_atom_type_description
_atom_site_fract_x
_atom_site_fract_y
_atom_site_fract_z
_atom_type_partial_charge
C1    C     C_R   0.497449 0.262472 0.498987 0.803836
C2    C     C_R   0.514653 0.934883 0.375426 -0.170821
C3    C     C_R   0.483850 0.871087 0.496290 -0.161646
C4    C     C_R   0.430302 0.937975 0.605604 0.098388
C5    C     C_3   0.476195 0.935524 0.762314 0.305073
C6    C     C_3   0.479211 0.075956 0.760322 -0.489067
C7    C     C_R   0.631945 0.526553 0.090310 0.245329
C8    C     C_R   0.374475 0.460749 0.058244 -0.058481
C9    C     C_R   0.374542 0.460568 0.909643 -0.000895
C10   C     C_R   0.632364 0.525427 0.943146 0.238912
C11   C     C_3   0.726094 0.640802 0.949209 -0.455038
C12   C     C_R   0.203920 0.499466 0.463874 0.893410
C13   C     C_3   0.723512 0.643413 0.107684 -0.471305
C14   C     C_R   0.497164 0.737747 0.499973 0.815110
C15   C     C_R   0.796113 0.500170 0.536191 0.873847
C16   C     C_2   0.038102 0.497746 0.444166 -0.363380
C17   C     C_2   0.962014 0.501105 0.556160 -0.336379
C18   C     C_R   0.432341 0.065259 0.604775 0.046442
C19   C     C_R   0.483311 0.129531 0.493983 -0.093117
C20   C     C_R   0.513431 0.063364 0.373854 -0.173319
Cu1   Cu    Cu3+1 0.499990 0.499980 0.640670 0.985340
Cu2   Cu    Cu3+1 0.500010 0.500020 0.359330 0.953678
H1    H     H_    0.978449 0.492997 0.336796 0.163263
H2    H     H_    0.272012 0.430105 0.841673 0.131784
H3    H     H_    0.843229 0.624562 0.919598 0.197823
H4    H     H_    0.661754 0.717629 0.893611 0.230046
H5    H     H_    0.839695 0.630494 0.169111 0.189144
H6    H     H_    0.656484 0.721900 0.143299 0.229122
H7    H     H_    0.021743 0.505065 0.663687 0.176791
H8    H     H_    0.545446 0.110207 0.282350 0.179268
H9    H     H_    0.548431 0.886258 0.285250 0.189772
H10   H     H_    0.591976 0.895106 0.794046 0.066733
H11   H     H_    0.389003 0.121669 0.813860 0.236433
H12   H     H_    0.597495 0.115203 0.788013 0.173738
H13   H     H_    0.271929 0.430384 0.100118 0.140460
N1    N     N_R   0.500980 0.500930 0.148050 -0.187395
N2    N     N_R   0.500990 0.500890 0.852140 -0.170702
O1    O     O_R   0.500000 0.319640 0.618810 -0.587295
O2    O     O_R   0.500020 0.319680 0.381230 -0.589781
O3    O     O_R   0.274830 0.499980 0.591380 -0.565936
O4    O     O_R   0.274850 0.500020 0.353800 -0.598424
O5    O     O_R   0.499980 0.680320 0.618770 -0.550079
O6    O     O_R   0.500000 0.680360 0.381190 -0.585265
O7    O     O_R   0.725150 0.499980 0.646200 -0.594877
O8    O     O_R   0.725170 0.500020 0.408620 -0.581347
S1    S     S_3+6 0.325995 0.874981 0.853073 -0.011902
O9    O     O_2   0.175635 0.938862 0.804703 -0.289911
O10   O     O_2   0.306900 0.739059 0.823700 -0.288775
O11   O     O_3   0.375190 0.898549 0.027450 -0.561504
H14   H     H_    0.298213 0.851038 0.072447 0.372903

loop_
_geom_bond_atom_site_label_1
_geom_bond_atom_site_label_2
_ccdc_geom_bond_type
C12   O3    A    
C7    C10   A    
C13   H6    S    
C12   O4    A    
Cu1   O7    S    
C17   H7    S    
C7    N1    A    
C13   H5    S    
C19   C20   A    
C6    H11   S    
C14   O5    A    
C5    H10   S    
C4    C18   A    
C9    N2    A    
C2    C3    A    
C9    H2    S    
C20   H8    S    
Cu1   Cu2   S    
C4    C5    S    
C11   C13   S    
S1    O11   S    
C16   C17   D    
C3    C14   S    
C1    O1    A    
C10   N2    A    
Cu2   O2    S    
C15   O7    A    
O11   H14   S    
C16   H1    S    
C2    H9    S    
C5    C6    S    
C6    C18   S    
S1    O10   D    
C1    C19   S    
Cu2   O4    S    
C10   C11   S    
C1    O2    A    
C2    C20   A    
C3    C4    A    
C12   C16   S    
C7    C13   S    
Cu2   O8    S    
Cu1   N2    S    
C18   C19   A    
C8    N1    A    
C15   C17   S    
C11   H3    S    
S1    O9    D    
C8    C9    A    
Cu1   O5    S    
C11   H4    S    
C8    H13   S    
Cu2   O6    S    
Cu2   N1    S    
Cu1   O1    S    
C6    H12   S    
C14   O6    A    
C5    S1    S    
C15   O8    A    
Cu1   O3    S    
