data_mof_unit_45.cif
_audit_creation_date              2012-12-11T13:59:58-0500
_audit_creation_method            fapswitch 2.2
_symmetry_space_group_name_H-M    P1
_symmetry_Int_Tables_number       1
_space_group_crystal_system       triclinic
_cell_length_a                    11.129622
_cell_length_b                    11.157872
_cell_length_c                    19.218415
_cell_angle_alpha                 89.970691
_cell_angle_beta                  89.922678
_cell_angle_gamma                 119.78945
_cell_volume                      2071.22225061

loop_
_atom_site_label
_atom_site_type_symbol
_atom_type_description
_atom_site_fract_x
_atom_site_fract_y
_atom_site_fract_z
_atom_type_partial_charge
C1    C     C_R   0.542486 0.479391 0.852682 0.547361
C2    C     C_R   0.475905 0.543680 0.352503 0.561344
C3    C     C_R   0.067453 0.524121 0.352460 0.561335
C4    C     C_R   0.456312 0.932252 0.352552 0.562061
C5    C     C_2   0.959582 0.489713 0.574637 0.324605
C6    C     C_2   0.510389 0.469959 0.574647 0.326492
C7    C     C_2   0.530134 0.040515 0.574534 0.324970
C8    C     C_2   0.489171 0.959066 0.425483 0.324592
C9    C     C_2   0.469834 0.510351 0.425395 0.323944
C10   C     C_2   0.040096 0.530118 0.425338 0.324210
C11   C     C_2   0.996957 0.414351 0.462302 -0.049535
C12   C     C_R   0.546114 0.124082 0.861470 0.547493
C13   C     C_2   0.585593 0.582898 0.462338 -0.049458
C14   C     C_2   0.416197 0.002235 0.462504 -0.049871
C15   C     C_2   0.413916 0.997160 0.537790 -0.049979
C16   C     C_2   0.582762 0.585586 0.537599 -0.049180
C17   C     C_2   0.002632 0.416891 0.537531 -0.050033
C18   C     C_2   0.924192 0.450728 0.933288 -0.098608
C19   C     C_2   0.492427 0.512628 0.916106 -0.105837
C20   C     C_2   0.525267 0.073658 0.933199 -0.101983
C21   C     C_2   0.450195 0.923158 0.066550 -0.103410
C22   C     C_2   0.474555 0.543740 0.067218 -0.107120
C23   C     C_R   0.875169 0.421868 0.861371 0.548626
C24   C     C_2   0.073242 0.525051 0.066898 -0.104230
C25   C     C_2   0.028516 0.603271 0.035449 -0.155104
C26   C     C_2   0.371287 0.446134 0.028897 -0.168677
C27   C     C_2   0.573828 0.969371 0.035452 -0.155112
C28   C     C_2   0.602385 0.026686 0.963970 -0.160079
C29   C     C_2   0.395311 0.415082 0.957120 -0.159838
C30   C     C_2   0.971401 0.574475 0.963970 -0.149353
C31   C     C_3   0.065817 0.752599 0.431304 -0.072523
C32   C     C_3   0.247597 0.313733 0.431407 -0.072534
C33   C     C_3   0.686379 0.932973 0.431356 -0.072944
C34   C     C_R   0.454556 0.576753 0.138476 0.531156
C35   C     C_3   0.753483 0.067123 0.568269 -0.073907
C36   C     C_3   0.313814 0.247924 0.568785 -0.072154
C37   C     C_3   0.934021 0.686849 0.568868 -0.072255
C38   C     C_R   0.123606 0.545942 0.138562 0.528715
C39   C     C_R   0.421589 0.874727 0.138626 0.532408
C40   C     C_R   0.543626 0.475886 0.647515 0.552073
C41   C     C_R   0.524191 0.067615 0.647472 0.559841
C42   C     C_R   0.932440 0.456383 0.647516 0.558976
Cr1   Cr    Cr6+3 0.464030 0.233680 0.750360 1.001773
Cr2   Cr    Cr6+3 0.766320 0.230350 0.750360 1.003608
Cr3   Cr    Cr6+3 0.769650 0.535970 0.750360 1.004111
Cr4   Cr    Cr6+3 0.233680 0.464030 0.249640 1.005804
Cr5   Cr    Cr6+3 0.230350 0.766320 0.249640 1.004873
Cr6   Cr    Cr6+3 0.535970 0.769650 0.249640 1.004418
H1    H     H_    0.966794 0.316188 0.437121 0.061112
H2    H     H_    0.690399 0.031770 0.936774 0.145876
H3    H     H_    0.336361 0.308888 0.939338 0.147010
H4    H     H_    0.967481 0.657544 0.936508 0.151011
H5    H     H_    0.074360 0.440703 0.039624 0.099329
H6    H     H_    0.578090 0.603248 0.045608 0.115819
H7    H     H_    0.363938 0.919947 0.038820 0.102931
H8    H     H_    0.441970 0.076463 0.961029 0.104480
H9    H     H_    0.547449 0.619710 0.932799 0.108689
H10   H     H_    0.920229 0.364474 0.961228 0.100999
H11   H     H_    0.953135 0.701020 0.419382 0.113454
H12   H     H_    0.683945 0.651012 0.437132 0.060767
H13   H     H_    0.125600 0.810918 0.385809 0.167716
H14   H     H_    0.094431 0.837674 0.468813 0.073204
H15   H     H_    0.300191 0.253404 0.419399 0.114174
H16   H     H_    0.189045 0.314955 0.385961 0.167884
H17   H     H_    0.162249 0.257106 0.468941 0.072903
H18   H     H_    0.746633 0.045234 0.418920 0.114056
H19   H     H_    0.685015 0.872815 0.386090 0.167799
H20   H     H_    0.743384 0.904850 0.469008 0.073377
H21   H     H_    0.702186 0.954944 0.580864 0.112268
H22   H     H_    0.812086 0.127695 0.613379 0.167873
H23   H     H_    0.347658 0.032273 0.437388 0.059944
H24   H     H_    0.838416 0.095149 0.530465 0.073399
H25   H     H_    0.252920 0.299974 0.580743 0.112644
H26   H     H_    0.315025 0.189483 0.614280 0.167806
H27   H     H_    0.257510 0.162861 0.531313 0.073299
H28   H     H_    0.046756 0.746856 0.580674 0.113345
H29   H     H_    0.874503 0.685936 0.614464 0.167572
H30   H     H_    0.905274 0.743649 0.531438 0.073048
H31   H     H_    0.315542 0.967021 0.563161 0.059887
H32   H     H_    0.650718 0.683701 0.562703 0.060801
H33   H     H_    0.032795 0.348470 0.562584 0.059633
H34   H     H_    0.035308 0.692262 0.062064 0.148151
H35   H     H_    0.269731 0.381847 0.051826 0.143126
H36   H     H_    0.656866 0.964520 0.062552 0.149468
O1    O     O_R   0.434100 0.092480 0.829780 -0.508220
O2    O     O_R   0.362730 0.477510 0.175360 -0.500739
O3    O     O_R   0.114780 0.637270 0.175360 -0.505633
O4    O     O_R   0.522490 0.885220 0.175360 -0.503956
O5    O     O_R   0.432250 0.092620 0.670380 -0.556651
O6    O     O_R   0.907380 0.339630 0.670380 -0.558323
O7    O     O_R   0.660370 0.567750 0.670380 -0.560336
O8    O     O_R   0.092620 0.432250 0.329620 -0.555801
O9    O     O_R   0.339630 0.907380 0.329620 -0.556178
O10   O     O_R   0.567750 0.660370 0.329620 -0.556361
O11   O     O_R   0.475790 0.362860 0.676880 -0.509601
O12   O     O_R   0.907520 0.341620 0.829780 -0.516594
O13   O     O_R   0.637140 0.112930 0.676880 -0.506313
O14   O     O_R   0.887070 0.524210 0.676880 -0.504320
O15   O     O_R   0.362860 0.475790 0.323120 -0.504136
O16   O     O_R   0.112930 0.637140 0.323120 -0.504669
O17   O     O_R   0.524210 0.887070 0.323120 -0.504297
O18   O     O_3   0.666667 0.333333 0.749450 -0.268453
O19   O     O_3   0.333333 0.666667 0.250550 -0.284444
O20   O     O_3   0.106523 0.659350 0.458610 -0.537163
O21   O     O_3   0.340118 0.447165 0.458729 -0.537733
O22   O     O_3   0.552609 0.892717 0.458833 -0.537846
O23   O     O_R   0.658380 0.565900 0.829780 -0.525154
O24   O     O_3   0.659505 0.106900 0.540906 -0.537089
O25   O     O_3   0.447620 0.340683 0.541408 -0.535812
O26   O     O_3   0.893113 0.553286 0.541515 -0.536529
O27   O     O_R   0.092480 0.434100 0.170220 -0.510305
O28   O     O_R   0.341620 0.907520 0.170220 -0.508383
O29   O     O_R   0.565900 0.658380 0.170220 -0.512956
O30   O     O_R   0.477510 0.362730 0.824640 -0.517333
O31   O     O_R   0.637270 0.114780 0.824640 -0.509655
O32   O     O_R   0.885220 0.522490 0.824640 -0.494937

loop_
_geom_bond_atom_site_label_1
_geom_bond_atom_site_label_2
_ccdc_geom_bond_type
C41   O5    A    
C5    C42   S    
C26   H35   S    
C14   H23   S    
C31   H13   S    
C4    C8    S    
C22   H6    S    
C13   H12   S    
C19   H9    S    
C34   O29   A    
Cr1   O5    S    
Cr6   O10   S    
C12   O1    A    
Cr2   O12   S    
C27   H36   S    
Cr3   O14   S    
C42   O14   A    
Cr1   O30   S    
C5    C17   D    
C5    O26   S    
C9    O21   S    
Cr5   O28   S    
C23   O12   A    
C34   O2    A    
C31   H11   S    
C9    C13   D    
C35   O24   S    
C23   O32   A    
C28   H2    S    
C3    O16   A    
C18   H10   S    
C15   H31   S    
C35   H22   S    
C24   C38   S    
Cr6   O4    S    
C18   C30   D    
C17   H33   S    
C20   H8    S    
C12   O31   A    
C7    C15   D    
C21   C27   D    
Cr4   O27   S    
C31   H14   S    
C39   O4    A    
C33   H18   S    
Cr2   O31   S    
C22   C34   S    
C1    C19   S    
Cr5   O19   S    
C18   C23   S    
Cr1   O1    S    
C2    O10   A    
C24   C25   D    
C32   H16   S    
Cr3   O18   S    
C21   H7    S    
Cr2   O18   S    
C20   C28   D    
C24   H5    S    
Cr6   O19   S    
C37   H29   S    
Cr5   O16   S    
C3    O8    A    
C42   O6    A    
Cr5   O3    S    
C11   H1    S    
C36   H27   S    
Cr2   O13   S    
Cr1   O11   S    
C21   C39   S    
C4    O17   A    
C12   C20   S    
Cr5   O9    S    
C37   O26   S    
C36   H26   S    
C1    O23   A    
C39   O28   A    
C37   H28   S    
C35   H24   S    
C32   O21   S    
C25   H34   S    
C6    O25   S    
C41   O13   A    
C1    O30   A    
C40   O11   A    
C19   C29   D    
C36   O25   S    
Cr2   O6    S    
C33   H19   S    
C29   H3    S    
C25   C30   S    
C30   H4    S    
C11   C17   S    
C8    C14   D    
C7    O24   S    
Cr4   O19   S    
C33   O22   S    
C32   H15   S    
C8    O22   S    
C2    O15   A    
C37   H30   S    
C38   O3    A    
C31   O20   S    
Cr4   O15   S    
C10   O20   S    
Cr1   O18   S    
C3    C10   S    
Cr3   O32   S    
Cr6   O17   S    
C6    C40   S    
C7    C41   S    
C40   O7    A    
Cr3   O7    S    
C10   C11   D    
C6    C16   D    
C4    O9    A    
Cr4   O8    S    
C35   H21   S    
C26   C29   S    
C22   C26   D    
C13   C16   S    
C27   C28   S    
C14   C15   S    
C32   H17   S    
C16   H32   S    
C38   O27   A    
C2    C9    S    
C36   H25   S    
Cr3   O23   S    
C33   H20   S    
Cr6   O29   S    
Cr4   O2    S    
