data_mof_unit_4809.cif
_audit_creation_date              2012-12-11T15:43:09-0500
_audit_creation_method            fapswitch 2.2
_symmetry_space_group_name_H-M    P1
_symmetry_Int_Tables_number       1
_space_group_crystal_system       triclinic
_cell_length_a                    19.672639
_cell_length_b                    10.925406
_cell_length_c                    18.788169
_cell_angle_alpha                 90.134585
_cell_angle_beta                  90.692606
_cell_angle_gamma                 89.743753
_cell_volume                      4037.824572

loop_
_atom_site_label
_atom_site_type_symbol
_atom_type_description
_atom_site_fract_x
_atom_site_fract_y
_atom_site_fract_z
_atom_type_partial_charge
C1    C     C_R   0.726263 0.368504 0.142271 0.542474
C2    C     C_R   0.011887 0.005465 0.038037 -0.085487
C3    C     C_R   0.757311 0.442945 0.569140 0.010979
C4    C     C_R   0.728316 0.378822 0.351743 0.545819
C5    C     C_R   0.288599 0.329823 0.640965 0.517279
C6    C     C_R   0.228316 0.878823 0.351743 0.545814
C7    C     C_R   0.788600 0.829821 0.640965 0.517287
C8    C     C_R   0.532619 0.156938 0.353310 0.560358
C9    C     C_R   0.437593 0.152962 0.638679 0.534969
C10   C     C_R   0.032620 0.656938 0.353311 0.560352
C11   C     C_R   0.937594 0.652962 0.638679 0.534961
C12   C     C_R   0.741843 0.969599 0.352887 0.585892
C13   C     C_R   0.471656 0.500182 0.978371 -0.076484
C14   C     C_R   0.260933 0.975997 0.644001 0.565483
C15   C     C_R   0.241842 0.469605 0.352889 0.585900
C16   C     C_R   0.760932 0.475999 0.644001 0.565496
C17   C     C_R   0.493676 0.167670 0.926895 0.016950
C18   C     C_R   0.547122 0.166495 0.064713 0.002408
C19   C     C_R   0.993677 0.667670 0.926895 0.016951
C20   C     C_R   0.047122 0.666495 0.064713 0.002408
C21   C     C_R   0.491764 0.277817 0.968131 0.061221
C22   C     C_R   0.527078 0.280771 0.033749 0.058024
C23   C     C_R   0.991764 0.777817 0.968131 0.061221
C24   C     C_R   0.511887 0.505465 0.038037 -0.085486
C25   C     C_R   0.027078 0.780770 0.033749 0.058024
C26   C     C_R   0.546096 0.060043 0.024207 -0.131019
C27   C     C_R   0.523060 0.062100 0.955315 -0.136068
C28   C     C_R   0.046096 0.560043 0.024207 -0.131019
C29   C     C_R   0.023060 0.562101 0.955315 -0.136066
C30   C     C_2   0.784107 0.711513 0.382690 0.572035
C31   C     C_2   0.375811 0.832054 0.553744 0.535942
C32   C     C_2   0.284122 0.211528 0.382689 0.572113
C33   C     C_2   0.875800 0.332052 0.553751 0.535968
C34   C     C_2   0.760434 0.157963 0.625791 0.644370
C35   C     C_R   0.753285 0.913458 0.928101 -0.008881
C36   C     C_2   0.063064 0.999954 0.436313 0.604735
C37   C     C_2   0.260443 0.657987 0.625801 0.644318
C38   C     C_2   0.563063 0.499955 0.436311 0.604731
C39   C     C_2   0.591936 0.764656 0.915790 0.584350
C40   C     C_2   0.394045 0.918306 0.089090 0.590787
C41   C     C_2   0.091936 0.264654 0.915790 0.584349
C42   C     C_2   0.894045 0.418307 0.089089 0.590788
C43   C     C_R   0.237880 0.886428 0.065392 0.017998
C44   C     C_R   0.253285 0.413457 0.928101 -0.008879
C45   C     C_R   0.737880 0.386428 0.065392 0.017998
C46   C     C_R   0.692914 0.877673 0.961616 0.001446
C47   C     C_R   0.290618 0.824969 0.029709 0.001829
C48   C     C_R   0.192914 0.377673 0.961617 0.001446
C49   C     C_R   0.271426 0.374810 0.855333 0.567683
C50   C     C_R   0.790618 0.324969 0.029709 0.001829
C51   C     C_R   0.687125 0.885347 0.036053 -0.051893
C52   C     C_R   0.298011 0.841069 0.957021 -0.037498
C53   C     C_R   0.187125 0.385347 0.036053 -0.051893
C54   C     C_R   0.798011 0.341069 0.957021 -0.037498
C55   C     C_R   0.805351 0.929835 0.045355 0.070447
C56   C     C_R   0.185233 0.917264 0.947936 0.058692
C57   C     C_R   0.305351 0.429836 0.045355 0.070445
C58   C     C_R   0.685233 0.417265 0.947936 0.058690
C59   C     C_R   0.806495 0.953172 0.972471 -0.147066
C60   C     C_R   0.226263 0.868504 0.142271 0.542475
C61   C     C_R   0.184758 0.933150 0.022018 -0.156467
C62   C     C_R   0.306495 0.453172 0.972471 -0.147066
C63   C     C_R   0.684758 0.433151 0.022018 -0.156466
C64   C     C_3   0.657646 0.757264 0.957618 -0.034803
C65   C     C_3   0.366340 0.820927 0.040424 -0.056644
C66   C     C_3   0.157646 0.257263 0.957618 -0.034803
C67   C     C_3   0.866340 0.320927 0.040424 -0.056644
C68   C     C_3   0.651500 0.764479 0.038004 -0.275860
C69   C     C_3   0.373448 0.847375 0.960923 -0.240044
C70   C     C_3   0.151501 0.264479 0.038004 -0.275861
C71   C     C_R   0.771426 0.874810 0.855333 0.567686
C72   C     C_3   0.873448 0.347374 0.960923 -0.240043
C73   C     C_R   0.744554 0.913848 0.077716 0.038553
C74   C     C_R   0.247199 0.897766 0.915803 0.032059
C75   C     C_R   0.244554 0.413848 0.077716 0.038552
C76   C     C_R   0.747199 0.397766 0.915803 0.032058
C77   C     C_R   0.564342 0.151916 0.139632 0.538183
C78   C     C_R   0.462891 0.155555 0.856293 0.569363
C79   C     C_R   0.064342 0.651916 0.139632 0.538184
C80   C     C_R   0.962891 0.655555 0.856293 0.569365
C81   C     C_R   0.456897 0.158691 0.564418 -0.000638
C82   C     C_R   0.459618 0.388029 0.945323 -0.078317
C83   C     C_R   0.499607 0.160455 0.422136 0.014736
C84   C     C_R   0.956900 0.658692 0.564419 -0.000635
C85   C     C_R   0.999609 0.660455 0.422137 0.014725
C86   C     C_R   0.482925 0.053411 0.532728 0.034623
C87   C     C_R   0.505649 0.056215 0.464466 0.050805
C88   C     C_R   0.982927 0.553411 0.532729 0.034633
C89   C     C_R   0.005651 0.556214 0.464467 0.050823
C90   C     C_R   0.464379 0.261858 0.449336 -0.101831
C91   C     C_R   0.444300 0.262207 0.521204 -0.145660
C92   C     C_R   0.964382 0.761859 0.449338 -0.101848
C93   C     C_R   0.537352 0.397685 0.066521 -0.079346
C94   C     C_R   0.944303 0.762208 0.521204 -0.145658
C95   C     C_3   0.537936 0.965899 0.556074 -0.004644
C96   C     C_3   0.566696 0.979678 0.482208 -0.026492
C97   C     C_3   0.037938 0.465895 0.556075 -0.004646
C98   C     C_3   0.066698 0.479676 0.482208 -0.026481
C99   C     C_R   0.774099 0.855390 0.566720 -0.020226
C100  C     C_R   0.243914 0.926854 0.421225 0.001706
C101  C     C_R   0.274099 0.355398 0.566720 -0.020214
C102  C     C_R   0.743912 0.426851 0.421225 0.001726
C103  C     C_R   0.754511 0.972591 0.548820 0.051251
C104  C     C_R   0.959618 0.888029 0.945323 -0.078318
C105  C     C_R   0.190533 0.972003 0.462451 0.035122
C106  C     C_R   0.254505 0.472601 0.548826 0.051282
C107  C     C_R   0.690532 0.472004 0.462451 0.035128
C108  C     C_R   0.740964 0.004439 0.479524 -0.063255
C109  C     C_R   0.198380 0.983190 0.534461 -0.032130
C110  C     C_R   0.240955 0.504449 0.479527 -0.063255
C111  C     C_R   0.698380 0.483199 0.534460 -0.032142
C112  C     C_R   0.769388 0.799913 0.440226 0.047907
C113  C     C_R   0.314104 0.901184 0.527268 -0.007717
C114  C     C_R   0.269396 0.299925 0.440227 0.047905
C115  C     C_R   0.037352 0.897685 0.066521 -0.079346
C116  C     C_R   0.814098 0.401187 0.527269 -0.007697
C117  C     C_R   0.779814 0.766714 0.512507 -0.172680
C118  C     C_R   0.306909 0.903949 0.452787 -0.126962
C119  C     C_R   0.279820 0.266724 0.512506 -0.172692
C120  C     C_R   0.806906 0.403950 0.452788 -0.126925
C121  C     C_3   0.790832 0.088831 0.564473 -0.037162
C122  C     C_3   0.118920 0.924398 0.470241 -0.047871
C123  C     C_3   0.290828 0.588851 0.564474 -0.037183
C124  C     C_3   0.618919 0.424403 0.470242 -0.047868
C125  C     C_R   0.738964 0.970590 0.147367 0.562655
C126  C     C_R   0.971656 0.000182 0.978371 -0.076486
C127  C     C_R   0.259485 0.966762 0.851021 0.548371
C128  C     C_R   0.238964 0.470590 0.147367 0.562659
C129  C     C_R   0.759485 0.466762 0.851021 0.548380
C130  C     C_3   0.770456 0.128338 0.489537 -0.286706
C131  C     C_3   0.126928 0.946510 0.549442 -0.226468
C132  C     C_3   0.270437 0.628362 0.489545 -0.286714
C133  C     C_3   0.626928 0.446527 0.549441 -0.226463
C134  C     C_R   0.751069 0.922040 0.424183 0.013874
C135  C     C_R   0.257314 0.942941 0.569140 0.010953
C136  C     C_R   0.251069 0.422050 0.424187 0.013874
Cr1   Cr    Cr6+3 0.772010 0.169670 0.250090 1.077696
Cr2   Cr    Cr6+3 0.383290 0.010760 0.749160 1.080003
Cr3   Cr    Cr6+3 0.116710 0.510760 0.250840 1.113003
Cr4   Cr    Cr6+3 0.883290 0.510760 0.749160 1.079997
Cr5   Cr    Cr6+3 0.227990 0.169670 0.749910 1.104260
Cr6   Cr    Cr6+3 0.272010 0.669670 0.250090 1.077702
Cr7   Cr    Cr6+3 0.727990 0.669670 0.749910 1.104260
Cr8   Cr    Cr6+3 0.615000 0.323260 0.249260 1.072503
Cr9   Cr    Cr6+3 0.385000 0.323260 0.750740 1.061592
Cr10  Cr    Cr6+3 0.115000 0.823260 0.249260 1.072501
Cr11  Cr    Cr6+3 0.885000 0.823260 0.750740 1.061590
Cr12  Cr    Cr6+3 0.616710 0.010760 0.250840 1.113011
H1    H     H_    0.561401 0.973418 0.046719 0.161439
H2    H     H_    0.113151 0.536068 0.480759 0.129412
H3    H     H_    0.517909 0.873715 0.566429 0.186985
H4    H     H_    0.613149 0.036068 0.480758 0.129425
H5    H     H_    0.796454 0.675182 0.525957 0.112234
H6    H     H_    0.347494 0.871863 0.418955 0.212654
H7    H     H_    0.296467 0.175191 0.525957 0.112217
H8    H     H_    0.847491 0.371860 0.418959 0.212649
H9    H     H_    0.846622 0.074205 0.570670 0.153290
H10   H     H_    0.115152 0.825546 0.456496 0.086092
H11   H     H_    0.346623 0.574232 0.570659 0.153295
H12   H     H_    0.524439 0.977944 0.925375 0.186816
H13   H     H_    0.615149 0.325550 0.456503 0.086102
H14   H     H_    0.729688 0.198689 0.486490 0.147587
H15   H     H_    0.097566 0.025387 0.570831 0.194882
H16   H     H_    0.229661 0.698704 0.486511 0.147577
H17   H     H_    0.597569 0.525407 0.570824 0.194872
H18   H     H_    0.814700 0.144328 0.454671 0.176938
H19   H     H_    0.122012 0.861910 0.581258 0.199071
H20   H     H_    0.314675 0.644377 0.454674 0.176956
H21   H     H_    0.622011 0.361939 0.581261 0.199073
H22   H     H_    0.429602 0.396840 0.898889 0.183741
H23   H     H_    0.061401 0.473418 0.046719 0.161440
H24   H     H_    0.565881 0.414476 0.113616 0.185331
H25   H     H_    0.929602 0.896840 0.898889 0.183740
H26   H     H_    0.065881 0.914476 0.113616 0.185331
H27   H     H_    0.950416 0.083399 0.956493 0.151687
H28   H     H_    0.021408 0.092366 0.064025 0.146786
H29   H     H_    0.450415 0.583399 0.956493 0.151688
H30   H     H_    0.521408 0.592366 0.064026 0.146786
H31   H     H_    0.848989 0.995270 0.949362 0.123601
H32   H     H_    0.145725 0.987498 0.044884 0.130525
H33   H     H_    0.348989 0.495270 0.949362 0.123601
H34   H     H_    0.024440 0.477944 0.925374 0.186817
H35   H     H_    0.645725 0.487499 0.044884 0.130526
H36   H     H_    0.191531 0.181815 0.940194 0.144593
H37   H     H_    0.883989 0.227136 0.054927 0.129967
H38   H     H_    0.691531 0.681815 0.940193 0.144593
H39   H     H_    0.383989 0.727136 0.054927 0.129966
H40   H     H_    0.599140 0.773291 0.058766 0.169804
H41   H     H_    0.392470 0.940379 0.948465 0.183953
H42   H     H_    0.099141 0.273291 0.058767 0.169805
H43   H     H_    0.892470 0.440379 0.948465 0.183953
H44   H     H_    0.682358 0.693798 0.066247 0.141707
H45   H     H_    0.454385 0.340565 0.416036 0.168181
H46   H     H_    0.397548 0.771812 0.930697 0.149734
H47   H     H_    0.182359 0.193798 0.066248 0.141707
H48   H     H_    0.897547 0.271812 0.930697 0.149733
H49   H     H_    0.758619 0.644007 0.285993 0.349985
H50   H     H_    0.453300 0.721112 0.527768 0.359808
H51   H     H_    0.258644 0.144012 0.285997 0.349992
H52   H     H_    0.953293 0.221114 0.527782 0.359798
H53   H     H_    0.768486 0.206107 0.729273 0.343919
H54   H     H_    0.968443 0.068350 0.444705 0.351655
H55   H     H_    0.268538 0.706198 0.729276 0.343914
H56   H     H_    0.420374 0.343142 0.543052 0.150055
H57   H     H_    0.468442 0.568346 0.444698 0.351669
H58   H     H_    0.546470 0.790468 0.820180 0.341967
H59   H     H_    0.399410 0.095799 0.115076 0.370965
H60   H     H_    0.046470 0.290460 0.820181 0.341964
H61   H     H_    0.899410 0.595799 0.115075 0.370965
H62   H     H_    0.954388 0.840567 0.416038 0.168173
H63   H     H_    0.920377 0.843142 0.543054 0.150050
H64   H     H_    0.017909 0.373708 0.566429 0.186984
I1    I     I_    0.604100 0.015517 0.642229 -0.213082
I2    I     I_    0.570947 0.812146 0.424489 -0.211865
I3    I     I_    0.104102 0.515497 0.642238 -0.213060
I4    I     I_    0.070949 0.312143 0.424489 -0.211864
I5    I     I_    0.885021 0.863551 0.111220 -0.341510
I6    I     I_    0.098800 0.926892 0.878874 -0.317991
I7    I     I_    0.385021 0.363551 0.111220 -0.341501
I8    I     I_    0.598799 0.426894 0.878875 -0.317998
O1    O     O_R   0.787520 0.042810 0.170440 -0.478156
O2    O     O_R   0.454050 0.051210 0.669140 -0.454941
O3    O     O_R   0.045950 0.551210 0.330860 -0.468522
O4    O     O_R   0.954050 0.551210 0.669140 -0.454969
O5    O     O_R   0.681390 0.959480 0.325510 -0.454718
O6    O     O_R   0.318610 0.959480 0.674490 -0.470681
O7    O     O_R   0.181390 0.459480 0.325510 -0.454729
O8    O     O_R   0.818610 0.459480 0.674490 -0.470676
O9    O     O_3   0.667900 0.167900 0.250060 -0.325842
O10   O     O_3   0.332100 0.167900 0.749940 -0.341704
O11   O     O_3   0.167900 0.667900 0.250060 -0.325842
O12   O     O_R   0.212480 0.042810 0.829560 -0.473187
O13   O     O_3   0.832100 0.667900 0.749940 -0.341706
O14   O     O_R   0.765640 0.292100 0.175020 -0.480458
O15   O     O_R   0.234360 0.292100 0.824980 -0.448389
O16   O     O_R   0.265640 0.792100 0.175020 -0.480459
O17   O     O_R   0.734360 0.792100 0.824980 -0.448389
O18   O     O_R   0.670190 0.408840 0.168540 -0.554234
O19   O     O_R   0.329810 0.408840 0.831460 -0.533379
O20   O     O_R   0.170190 0.908840 0.168540 -0.554233
O21   O     O_R   0.829810 0.908840 0.831460 -0.533374
O22   O     O_R   0.556620 0.251410 0.175160 -0.508183
O23   O     O_R   0.287520 0.542810 0.170440 -0.478154
O24   O     O_R   0.443380 0.251410 0.824840 -0.505498
O25   O     O_R   0.056620 0.751410 0.175160 -0.508183
O26   O     O_R   0.943380 0.751410 0.824840 -0.505497
O27   O     O_R   0.545960 0.049620 0.170320 -0.459067
O28   O     O_R   0.454040 0.049620 0.829680 -0.514381
O29   O     O_R   0.045960 0.549620 0.170320 -0.459067
O30   O     O_R   0.954040 0.549620 0.829680 -0.514382
O31   O     O_R   0.681390 0.958010 0.176690 -0.517755
O32   O     O_R   0.318610 0.958010 0.823310 -0.513166
O33   O     O_R   0.181390 0.458010 0.176690 -0.517757
O34   O     O_R   0.712480 0.542810 0.829560 -0.473190
O35   O     O_R   0.818610 0.458010 0.823310 -0.513154
O36   O     O_R   0.787510 0.044390 0.330970 -0.514745
O37   O     O_R   0.212490 0.044390 0.669030 -0.505965
O38   O     O_R   0.287510 0.544390 0.330970 -0.514734
O39   O     O_R   0.712490 0.544390 0.669030 -0.505976
O40   O     O_R   0.765630 0.293570 0.323840 -0.505298
O41   O     O_R   0.234370 0.293570 0.676160 -0.448673
O42   O     O_R   0.265630 0.793570 0.323840 -0.505297
O43   O     O_R   0.734370 0.793570 0.676160 -0.448670
O44   O     O_R   0.670190 0.410420 0.329080 -0.459750
O45   O     O_R   0.556610 0.252880 0.323980 -0.491843
O46   O     O_R   0.329810 0.410420 0.670920 -0.480546
O47   O     O_R   0.170190 0.910420 0.329080 -0.459748
O48   O     O_R   0.829810 0.910420 0.670920 -0.480525
O49   O     O_2   0.833149 0.643058 0.388109 -0.538748
O50   O     O_R   0.742949 0.707821 0.321542 -0.653422
O51   O     O_2   0.386675 0.811226 0.616537 -0.464830
O52   O     O_R   0.419084 0.777947 0.504269 -0.738493
O53   O     O_2   0.333163 0.143101 0.388091 -0.538753
O54   O     O_R   0.242977 0.207828 0.321547 -0.653434
O55   O     O_2   0.886637 0.311182 0.616539 -0.464877
O56   O     O_R   0.443390 0.252880 0.676020 -0.490067
O57   O     O_R   0.919089 0.277973 0.504283 -0.738485
O58   O     O_2   0.707724 0.215522 0.618118 -0.550295
O59   O     O_R   0.793388 0.156292 0.692092 -0.615822
O60   O     O_2   0.065199 0.026455 0.373274 -0.434927
O61   O     O_R   0.005632 0.030804 0.475577 -0.744374
O62   O     O_2   0.207718 0.715515 0.618143 -0.550271
O63   O     O_R   0.293431 0.656376 0.692090 -0.615827
O64   O     O_2   0.565202 0.526458 0.373273 -0.434917
O65   O     O_R   0.505630 0.530799 0.475571 -0.744378
O66   O     O_2   0.537514 0.749724 0.945021 -0.594817
O67   O     O_R   0.056610 0.752880 0.323980 -0.491841
O68   O     O_R   0.593546 0.787498 0.842700 -0.638379
O69   O     O_2   0.430882 0.888809 0.139069 -0.477432
O70   O     O_R   0.377489 0.041155 0.077880 -0.694418
O71   O     O_2   0.037514 0.249726 0.945022 -0.594819
O72   O     O_R   0.093547 0.287490 0.842700 -0.638378
O73   O     O_2   0.930882 0.388809 0.139068 -0.477432
O74   O     O_R   0.877490 0.541156 0.077880 -0.694419
O75   O     O_R   0.943390 0.752880 0.676020 -0.490067
O76   O     O_R   0.545950 0.051210 0.330860 -0.468521

loop_
_geom_bond_atom_site_label_1
_geom_bond_atom_site_label_2
_ccdc_geom_bond_type
C99   C103  A    
Cr9   O10   S    
C65   H39   S    
C10   C85   S    
C12   O36   A    
C97   H64   S    
C55   C59   A    
C9    O56   A    
Cr8   O45   S    
C56   I6    S    
C70   H42   S    
Cr7   O43   S    
C7    C99   S    
C124  C133  S    
C115  H26   S    
C96   I2    S    
C75   C128  S    
Cr6   O38   S    
Cr2   O6    S    
C70   H47   S    
Cr7   O34   S    
Cr8   O22   S    
Cr9   O46   S    
C60   O20   A    
C72   H43   S    
C81   C86   A    
C34   O58   D    
C35   C71   S    
C4    O40   A    
C21   C22   A    
C5    O41   A    
C53   C75   A    
C30   O49   D    
C107  C124  S    
C41   O71   D    
C5    C101  S    
C63   H35   S    
Cr8   O9    S    
C20   C28   A    
Cr5   O10   S    
C13   C82   A    
C17   C21   A    
C15   O7    A    
C77   O27   A    
C19   C23   A    
C125  O31   A    
C92   C94   A    
C122  H10   S    
Cr8   O18   S    
C40   O69   D    
Cr10  O20   S    
C67   H37   S    
C40   C65   S    
C117  H5    S    
Cr4   O13   S    
C103  C121  S    
C43   C61   A    
C124  H13   S    
C98   H2    S    
Cr3   O3    S    
C16   O8    A    
C33   C116  S    
Cr5   O41   S    
C26   H1    S    
C84   C88   A    
C112  C134  A    
C8    O45   A    
C14   O37   A    
C72   H48   S    
C47   C52   A    
C11   C84   S    
C62   H33   S    
C66   C70   S    
C90   H45   S    
C123  H11   S    
C45   C50   A    
C17   C78   S    
C19   C80   S    
C86   C95   S    
C88   C89   A    
C113  C135  A    
C31   O52   S    
C114  C136  A    
Cr3   O11   S    
C43   C47   A    
C64   H38   S    
C44   C48   A    
C93   H24   S    
C123  C132  S    
C109  C135  A    
C8    C83   S    
Cr7   O17   S    
C110  C136  A    
C121  C130  S    
C49   O19   A    
C97   C98   S    
Cr6   O11   S    
C58   C76   A    
Cr5   O12   S    
C11   O75   A    
Cr10  O25   S    
C64   C68   S    
Cr3   O7    S    
C36   O61   S    
Cr2   O32   S    
C3    C116  A    
C13   H29   S    
C14   C135  S    
Cr11  O21   S    
C96   H4    S    
C67   C72   S    
Cr10  O67   S    
C37   C123  S    
C91   H56   S    
C58   I8    S    
C9    O2    A    
H60   O72   S    
C42   O74   S    
C78   O28   A    
C7    O43   A    
C32   O53   D    
C50   C67   S    
H50   O52   S    
C114  C119  A    
Cr5   O15   S    
C130  H14   S    
C131  H19   S    
C80   O30   A    
Cr10  O47   S    
C85   C92   A    
Cr10  O11   S    
C48   C53   A    
Cr4   O8    S    
C29   H34   S    
C17   C27   A    
Cr2   O10   S    
Cr4   O30   S    
Cr4   O4    S    
C15   C136  S    
C54   C72   S    
C46   C51   A    
Cr12  O27   S    
C116  C120  A    
C30   C112  S    
C6    C100  S    
C99   C117  A    
C74   C127  S    
C4    O44   A    
C102  C107  A    
C6    O42   A    
Cr4   O35   S    
C40   O70   S    
C42   C67   S    
C80   O26   A    
C2    C126  A    
C122  C131  S    
C101  C106  A    
C105  C109  A    
C18   C22   A    
C107  C111  A    
C88   C97   S    
Cr11  O48   S    
C41   C66   S    
C125  O1    A    
C89   C98   S    
C57   C75   A    
C24   C93   A    
C1    C45   S    
C73   C125  S    
C127  O12   A    
C105  C122  S    
C118  H6    S    
C55   C73   A    
H55   O63   S    
C21   C82   A    
C68   H40   S    
Cr5   O37   S    
C48   C66   S    
Cr1   O14   S    
C31   C113  S    
C38   C124  S    
C3    C16   S    
C83   C87   A    
C34   O59   S    
C30   O50   S    
C55   I5    S    
Cr3   O29   S    
C39   C64   S    
C26   C27   A    
C50   C54   A    
C79   O25   A    
C28   C29   A    
C14   O6    A    
C112  C117  A    
C20   C25   A    
Cr1   O1    S    
C120  H8    S    
C35   C59   A    
C127  O32   A    
C133  H21   S    
C36   O60   D    
C98   I4    S    
C52   C69   S    
C92   H62   S    
C129  O35   A    
Cr11  O26   S    
C3    C111  A    
C109  C131  S    
H61   O74   S    
C110  C132  S    
C37   O63   S    
C38   O64   D    
C5    O46   A    
C53   C70   S    
C56   C74   A    
C51   C73   A    
Cr9   O56   S    
Cr1   O9    S    
C85   C89   A    
C86   C87   A    
C8    O76   A    
C78   O24   A    
Cr9   O24   S    
H57   O65   S    
C132  H16   S    
C108  C134  A    
C133  H17   S    
C2    C115  A    
C130  H18   S    
C23   C104  A    
C131  H15   S    
C1    O14   A    
C84   C94   A    
C15   O38   A    
C10   O3    A    
C31   O51   D    
C100  C118  A    
H59   O70   S    
Cr8   O44   S    
C102  C120  A    
C41   O72   S    
Cr12  O31   S    
C20   C79   S    
C18   C26   A    
Cr12  O5    S    
C11   O4    A    
C104  H25   S    
C39   O68   S    
C33   O55   D    
C52   C74   A    
C59   H31   S    
H53   O59   S    
C90   C91   A    
Cr11  O75   S    
C18   C77   S    
C65   C69   S    
C69   H46   S    
Cr1   O36   S    
C81   C91   A    
C61   H32   S    
C97   I3    S    
C6    O47   A    
C128  O23   A    
Cr2   O2    S    
C56   C61   A    
Cr6   O42   S    
H49   O50   S    
C35   C46   A    
H54   O61   S    
C44   C49   S    
C82   H22   S    
Cr7   O39   S    
C95   C96   S    
C60   O16   A    
C57   C62   A    
C33   O57   S    
C100  C105  A    
C71   O17   A    
H58   O68   S    
Cr3   O33   S    
C25   C115  A    
C68   H44   S    
Cr6   O23   S    
C2    H28   S    
C106  C123  S    
C103  C108  A    
Cr6   O16   S    
C94   H63   S    
C121  H9    S    
C4    C102  S    
C79   O29   A    
C39   O66   D    
Cr12  O76   S    
C77   O22   A    
C101  C119  A    
C32   O54   S    
C71   O21   A    
C69   H41   S    
C16   O39   A    
C111  C133  S    
C57   I7    S    
C44   C62   A    
C27   H12   S    
C45   C63   A    
C13   C24   A    
C46   C64   S    
C36   C122  S    
C76   C129  S    
C28   H23   S    
C42   O73   D    
C87   C96   S    
C128  O33   A    
C104  C126  A    
C43   C60   S    
C54   C76   A    
Cr11  O13   S    
C34   C121  S    
C95   I1    S    
C22   C93   A    
C106  C110  A    
Cr1   O40   S    
C58   C63   A    
C83   C90   A    
C66   H36   S    
C119  H7    S    
C108  C130  S    
C10   O67   A    
C132  H20   S    
C1    O18   A    
Cr7   O13   S    
C49   O15   A    
C24   H30   S    
C12   O5    A    
Cr9   O19   S    
C51   C68   S    
C23   C25   A    
C7    O48   A    
Cr2   O28   S    
C126  H27   S    
C113  C118  A    
H51   O54   S    
C95   H3    S    
C129  O34   A    
H52   O57   S    
C12   C134  S    
Cr12  O9    S    
C32   C114  S    
C37   O62   D    
C47   C65   S    
C38   O65   S    
C9    C81   S    
C19   C29   A    
