data_mof_unit_1072.cif
_audit_creation_date              2012-12-10T17:29:17-0500
_audit_creation_method            fapswitch 2.2
_symmetry_space_group_name_H-M    P1
_symmetry_Int_Tables_number       1
_space_group_crystal_system       triclinic
_cell_length_a                    11.982223
_cell_length_b                    12.902948
_cell_length_c                    13.040735
_cell_angle_alpha                 87.347112
_cell_angle_beta                  112.796058
_cell_angle_gamma                 92.994046
_cell_volume                      1855.41174577

loop_
_atom_site_label
_atom_site_type_symbol
_atom_type_description
_atom_site_fract_x
_atom_site_fract_y
_atom_site_fract_z
_atom_type_partial_charge
Br1   Br    Br    0.177784 0.970865 0.437111 -0.573274
Br2   Br    Br    0.823544 0.325793 0.694163 -0.541101
C1    C     C_R   0.477540 0.299505 0.498023 0.957450
C2    C     C_R   0.609132 0.551223 0.821650 -0.210053
C3    C     C_R   0.534056 0.811666 0.499561 -0.061174
C4    C     C_R   0.567052 0.516567 0.705306 0.907202
C5    C     C_R   0.462991 0.188479 0.494099 -0.127510
C6    C     C_R   0.336697 0.032398 0.467007 0.255582
C7    C     C_R   0.349668 0.139498 0.472951 -0.227879
C8    C     C_R   0.564059 0.131410 0.509560 -0.241981
C9    C     C_R   0.553368 0.025123 0.504780 0.136409
C10   C     C_R   0.439096 0.974634 0.483299 0.104020
C11   C     C_R   0.430867 0.867804 0.479862 -0.227460
C12   C     C_R   0.551896 0.561115 0.980406 0.045851
C13   C     C_R   0.646530 0.861799 0.519847 -0.223523
C14   C     C_R   0.656061 0.968877 0.521975 -0.177765
C15   C     C_R   0.009095 0.601252 0.397560 -0.300604
C16   C     C_R   0.521866 0.700523 0.500493 0.845040
C17   C     C_R   0.129359 0.591125 0.407671 0.010830
C18   C     C_R   0.158614 0.457044 0.544833 -0.037369
C19   C     C_R   0.038431 0.464556 0.537397 0.037092
C20   C     C_R   0.962348 0.537230 0.462628 0.092829
C21   C     C_R   0.841824 0.544026 0.455743 -0.118260
C22   C     C_R   0.873675 0.411064 0.594733 0.405839
C23   C     C_R   0.521766 0.573637 0.865383 0.051648
C24   C     C_R   0.993341 0.401942 0.603848 -0.347227
C25   C     C_R   0.434841 0.510117 0.291677 0.866803
C26   C     C_R   0.245259 0.540390 0.986344 -0.200356
C27   C     C_R   0.397385 0.535481 0.173714 -0.092403
C28   C     C_R   0.733337 0.550502 0.894245 0.100093
C29   C     C_R   0.761285 0.527141 0.008594 0.153487
C30   C     C_R   0.668787 0.529482 0.049031 -0.259834
C31   C     C_3   0.578356 0.660379 0.201124 -0.419266
C32   C     C_3   0.558281 0.767269 0.141118 -0.354972
C33   C     C_3   0.646733 0.849716 0.212469 -0.847768
C34   C     C_R   0.459387 0.568089 0.021331 0.077961
C35   C     C_3   0.832137 0.586793 0.852648 -0.403568
C36   C     C_3   0.895299 0.688863 0.906593 -0.391304
C37   C     C_3   0.974199 0.738076 0.847955 -0.841058
C38   C     C_3   0.886444 0.496608 0.089197 -0.451031
C39   C     C_3   0.885329 0.383574 0.131570 -0.330996
C40   C     C_3   0.012309 0.350784 0.207013 -0.828132
C41   C     C_R   0.336754 0.565325 0.946590 0.141530
C42   C     C_R   0.309332 0.590463 0.834947 -0.243895
C43   C     C_R   0.402997 0.604251 0.797276 -0.165274
C44   C     C_R   0.483534 0.578963 0.134095 0.038685
C45   C     C_R   0.277007 0.518093 0.099531 -0.226633
H1    H     H_    0.207807 0.490457 0.129302 0.161588
H2    H     H_    0.216579 0.601070 0.777659 0.155860
H3    H     H_    0.217907 0.401391 0.602253 0.143828
H4    H     H_    0.151320 0.532479 0.929882 0.146957
H5    H     H_    0.688403 0.504503 0.134242 0.150366
H6    H     H_    0.379986 0.634760 0.713273 0.187310
H7    H     H_    0.344363 0.827640 0.463002 0.204468
H8    H     H_    0.632632 0.858208 0.290885 0.268170
H9    H     H_    0.741646 0.828155 0.232646 0.264687
H10   H     H_    0.631456 0.925549 0.166255 0.258591
H11   H     H_    0.571407 0.763887 0.061554 0.234476
H12   H     H_    0.726710 0.818498 0.534836 0.168068
H13   H     H_    0.464138 0.790609 0.122150 0.234462
H14   H     H_    0.572953 0.671097 0.282918 0.219667
H15   H     H_    0.671466 0.637537 0.218252 0.190611
H16   H     H_    0.042509 0.683237 0.848178 0.255175
H17   H     H_    0.917284 0.760281 0.760528 0.259780
H18   H     H_    0.022096 0.809033 0.891701 0.261193
H19   H     H_    0.825887 0.745053 0.901481 0.238228
H20   H     H_    0.953049 0.675478 0.995706 0.225327
H21   H     H_    0.898577 0.525405 0.867066 0.214414
H22   H     H_    0.793805 0.604698 0.762247 0.239301
H23   H     H_    0.743515 0.007572 0.538207 0.160535
H24   H     H_    0.072348 0.353668 0.159980 0.254580
H25   H     H_    0.051339 0.402442 0.279096 0.267699
H26   H     H_    0.007765 0.269977 0.238748 0.261583
H27   H     H_    0.826304 0.373820 0.179533 0.222597
H28   H     H_    0.849127 0.331314 0.059586 0.243533
H29   H     H_    0.954139 0.504256 0.050612 0.208283
H30   H     H_    0.917497 0.549481 0.160571 0.197358
H31   H     H_    0.271107 0.184251 0.460249 0.192416
H32   H     H_    0.651852 0.169430 0.525652 0.200717
H33   H     H_    0.783531 0.601116 0.400691 0.133014
H34   H     H_    0.953270 0.658343 0.339257 0.148345
H35   H     H_    0.050968 0.346622 0.663433 0.182183
H36   H     H_    0.164798 0.640361 0.357031 0.142764
N1    N     N_R   0.798200 0.480260 0.519790 -0.117357
N2    N     N_R   0.201820 0.519740 0.480210 -0.109735
O1    O     O_R   0.579910 0.341070 0.505280 -0.578774
O2    O     O_R   0.388440 0.353740 0.492580 -0.624472
O3    O     O_R   0.643280 0.490550 0.663120 -0.579776
O4    O     O_R   0.451810 0.503220 0.650420 -0.620048
O5    O     O_R   0.611560 0.646260 0.507420 -0.645464
O6    O     O_R   0.420090 0.658930 0.494720 -0.637008
O7    O     O_R   0.548190 0.496780 0.349580 -0.619580
O8    O     O_R   0.356720 0.509450 0.336880 -0.619122
Zn1   Zn    Zn3+2 0.627850 0.491540 0.508480 0.962399
Zn2   Zn    Zn3+2 0.372150 0.508460 0.491520 0.934122

loop_
_geom_bond_atom_site_label_1
_geom_bond_atom_site_label_2
_ccdc_geom_bond_type
C42   H2    S    
C5    C8    A    
C19   C24   A    
C26   C45   A    
C35   H22   S    
C25   C27   S    
Br1   C6    S    
C39   C40   S    
C2    C23   A    
C37   H17   S    
C27   C45   A    
C16   O6    A    
C22   C24   A    
C1    C5    S    
C12   C34   A    
C28   C29   A    
C26   H4    S    
C13   C14   A    
C35   H21   S    
C4    O3    A    
C29   C38   S    
C32   C33   S    
C30   H5    S    
C18   H3    S    
O1    Zn1   S    
C39   H27   S    
C29   C30   A    
C31   H15   S    
O2    Zn2   S    
C34   C44   A    
C21   H33   S    
C3    C11   A    
C43   H6    S    
O8    Zn2   S    
C19   C20   A    
C1    O1    A    
C32   H13   S    
C31   C44   S    
C37   H18   S    
C17   H36   S    
C40   H25   S    
O5    Zn1   S    
O3    Zn1   S    
C21   N1    A    
C1    O2    A    
C16   O5    A    
C36   H19   S    
C14   H23   S    
C36   H20   S    
C2    C4    S    
C6    C7    A    
C3    C16   S    
C33   H8    S    
C38   H29   S    
C28   C35   S    
O4    Zn2   S    
C41   C42   A    
C35   C36   S    
C39   H28   S    
C9    C14   A    
C45   H1    S    
C6    C10   A    
C18   N2    A    
O7    Zn1   S    
C31   C32   S    
C25   O7    A    
N1    Zn1   S    
C10   C11   A    
C31   H14   S    
C38   C39   S    
Br2   C22   S    
C25   O8    A    
C23   C43   A    
C42   C43   A    
C11   H7    S    
C5    C7    A    
C40   H26   S    
C33   H9    S    
C38   H30   S    
C13   H12   S    
C12   C30   A    
C17   N2    A    
C8    H32   S    
C4    O4    A    
C37   H16   S    
C26   C41   A    
C15   C20   A    
C27   C44   A    
C33   H10   S    
C22   N1    A    
N2    Zn2   S    
C36   C37   S    
C40   H24   S    
C15   C17   A    
C15   H34   S    
C7    H31   S    
C12   C23   A    
C3    C13   A    
C8    C9    A    
O6    Zn2   S    
C18   C19   A    
C24   H35   S    
C32   H11   S    
C20   C21   A    
C34   C41   A    
C2    C28   A    
C9    C10   A    
