data_mof_unit_4681.cif
_audit_creation_date              2012-12-11T17:08:32-0500
_audit_creation_method            fapswitch 2.2
_symmetry_space_group_name_H-M    P1
_symmetry_Int_Tables_number       1
_space_group_crystal_system       triclinic
_cell_length_a                    7.004432
_cell_length_b                    14.720369
_cell_length_c                    15.928734
_cell_angle_alpha                 89.796803
_cell_angle_beta                  89.785941
_cell_angle_gamma                 89.140499
_cell_volume                      1642.17083851

loop_
_atom_site_label
_atom_site_type_symbol
_atom_type_description
_atom_site_fract_x
_atom_site_fract_y
_atom_site_fract_z
_atom_type_partial_charge
O1    O     O_R   0.505700 0.583890 0.413310 -0.539644
O2    O     O_R   0.175960 0.594920 0.586080 -0.548391
O3    O     O_R   0.005660 0.416110 0.586690 -0.528848
C1    C     C_R   0.343424 0.614970 0.616300 0.675784
O4    O     O_R   0.175980 0.594920 0.413930 -0.547697
O5    O     O_R   0.005680 0.416110 0.413310 -0.507302
C2    C     C_R   0.343958 0.615168 0.384099 0.695580
O6    O     O_R   0.505680 0.583890 0.586690 -0.541392
O7    O     O_3   0.339200 0.441330 0.500000 -0.347457
V1    V     V_3+5 0.064350 0.510880 0.500000 1.432547
O8    O     O_R   0.675960 0.405080 0.413920 -0.545653
C3    C     C_R   0.846271 0.384023 0.384640 0.762286
O9    O     O_R   0.675940 0.405080 0.586070 -0.544506
C4    C     C_R   0.845174 0.384243 0.615553 0.712707
V2    V     V_3+5 0.564340 0.489120 0.500000 1.421159
O10   O     O_3   0.839360 0.558670 0.500000 -0.384993
C5    C     C_R   0.015745 0.259664 0.695268 0.133499
C6    C     C_R   0.855068 0.316012 0.684116 -0.119463
C7    C     C_R   0.700897 0.304264 0.740034 -0.196106
H1    H     H_    0.575395 0.347276 0.734680 0.135826
C8    C     C_R   0.712331 0.241075 0.806713 -0.181721
H2    H     H_    0.593940 0.235775 0.850034 0.135673
C9    C     C_R   0.879162 0.188484 0.819931 -0.116406
C10   C     C_R   0.028104 0.198221 0.761746 0.083598
C11   C     C_3   0.233651 0.216928 0.775400 -0.418896
C12   C     C_3   0.220528 0.283776 0.702603 -0.386736
H3    H     H_    0.325872 0.156629 0.761626 0.185260
H4    H     H_    0.258862 0.250075 0.836888 0.170350
H5    H     H_    0.305040 0.262006 0.646772 0.192972
H6    H     H_    0.239037 0.355684 0.721726 0.157288
C13   C     C_R   0.714648 0.232505 0.201732 0.065115
C14   C     C_R   0.879713 0.180789 0.187067 -0.158014
C15   C     C_R   0.029155 0.190086 0.244729 -0.214714
H7    H     H_    0.144454 0.140818 0.244226 0.149895
C16   C     C_R   0.016227 0.253589 0.310818 0.354691
C17   C     C_R   0.863062 0.317945 0.314256 -0.191165
C18   C     C_R   0.711875 0.306789 0.257266 -0.019993
C19   C     C_3   0.511946 0.287201 0.283533 -0.357875
C20   C     C_3   0.530574 0.197832 0.237371 -0.155424
H8    H     H_    0.408309 0.335387 0.253920 0.162624
H9    H     H_    0.494569 0.281521 0.352297 0.232546
H10   H     H_    0.423034 0.189096 0.187124 0.128211
C21   C     C_R   0.519438 0.691002 0.733694 0.073800
C22   C     C_R   0.349802 0.678193 0.688938 -0.110340
C23   C     C_R   0.194691 0.736828 0.707796 -0.211297
H11   H     H_    0.070750 0.737078 0.668125 0.147669
C24   C     C_R   0.208552 0.803774 0.770608 -0.180191
H12   H     H_    0.095549 0.852862 0.778910 0.125590
C25   C     C_R   0.377160 0.815312 0.816052 -0.106696
C26   C     C_R   0.534177 0.763158 0.790924 0.096576
C27   C     C_3   0.705992 0.798159 0.746407 -0.183066
C28   C     C_3   0.707300 0.711897 0.694737 -0.439770
H13   H     H_    0.822184 0.802354 0.792345 0.130791
H14   H     H_    0.815651 0.660689 0.715267 0.154969
H15   H     H_    0.704349 0.722599 0.625641 0.176160
C29   C     C_R   0.507792 0.685873 0.259562 0.078016
C30   C     C_R   0.350555 0.679941 0.313147 -0.106674
C31   C     C_R   0.196262 0.740036 0.295186 -0.191201
H16   H     H_    0.070682 0.740975 0.334891 0.129113
C32   C     C_R   0.206616 0.803125 0.227826 -0.204391
H17   H     H_    0.089541 0.850942 0.219157 0.134341
C33   C     C_R   0.373004 0.809394 0.177072 -0.131758
C34   C     C_R   0.518806 0.747535 0.195599 0.070880
C35   C     C_3   0.717591 0.719791 0.172887 -0.164686
C36   C     C_3   0.703195 0.648071 0.243831 -0.439273
H18   H     H_    0.818456 0.774670 0.187670 0.126485
H19   H     H_    0.799809 0.660496 0.297429 0.168319
H20   H     H_    0.700096 0.576319 0.222353 0.164480
O11   O     O_R   0.229000 0.916070 0.913330 -0.543559
O12   O     O_R   0.558770 0.905070 0.086080 -0.538055
O13   O     O_R   0.729000 0.083900 0.086690 -0.537856
C37   C     C_R   0.389280 0.880310 0.111863 0.695388
O14   O     O_R   0.558720 0.905070 0.913930 -0.536660
O15   O     O_R   0.728960 0.083900 0.913310 -0.537773
C38   C     C_R   0.390333 0.884368 0.884011 0.700638
O16   O     O_R   0.229050 0.916070 0.086710 -0.547081
O17   O     O_3   0.395460 0.058650 0.000020 -0.373439
V3    V     V_3+5 0.670340 0.989120 0.000000 1.407206
O18   O     O_R   0.058670 0.094960 0.913900 -0.538487
C39   C     C_R   0.889322 0.119043 0.887314 0.698378
O19   O     O_R   0.058720 0.094960 0.086050 -0.546125
C40   C     C_R   0.889602 0.114084 0.117009 0.709582
V4    V     V_3+5 0.170330 0.010930 0.999970 1.379561
O20   O     O_3   0.895340 0.941350 0.999980 -0.375314
C41   C     C_R   0.559786 0.115572 0.296359 0.163527
C42   C     C_R   0.672027 0.120034 0.370130 -0.058921
C43   C     C_R   0.715640 0.042526 0.417054 -0.106512
C44   C     C_R   0.637089 0.959933 0.395482 -0.123785
C45   C     C_R   0.515296 0.955279 0.326981 -0.141754
C46   C     C_R   0.479291 0.031734 0.276350 -0.112416
H21   H     H_    0.727533 0.182735 0.392919 0.126807
H22   H     H_    0.808114 0.047026 0.471113 0.141115
H23   H     H_    0.667184 0.899871 0.432860 0.115223
H24   H     H_    0.450355 0.891656 0.314185 0.139593
H25   H     H_    0.388998 0.025610 0.221852 0.092700
C47   C     C_R   0.662565 0.884418 0.694740 0.144163
C48   C     C_R   0.757213 0.965469 0.712313 -0.128227
C49   C     C_R   0.708264 0.045457 0.669074 -0.140705
C50   C     C_R   0.559877 0.047232 0.611255 -0.109154
C51   C     C_R   0.466763 0.967407 0.591973 -0.133223
C52   C     C_R   0.520699 0.886401 0.631438 -0.124389
H26   H     H_    0.867273 0.967319 0.759650 0.091084
H27   H     H_    0.784336 0.106709 0.679593 0.135410
H28   H     H_    0.520849 0.110030 0.579672 0.138420
H29   H     H_    0.354749 0.967882 0.545315 0.136675
H30   H     H_    0.448640 0.826031 0.612237 0.118746
C53   C     C_R   0.738814 0.682004 0.084962 0.142600
C54   C     C_R   0.607341 0.620334 0.051637 -0.136742
C55   C     C_R   0.630846 0.587221 0.970011 -0.133674
C56   C     C_R   0.785475 0.614878 0.921061 -0.100504
C57   C     C_R   0.916121 0.676306 0.953317 -0.134504
C58   C     C_R   0.893123 0.709725 0.034835 -0.099074
H31   H     H_    0.486721 0.598001 0.088626 0.114856
H32   H     H_    0.529291 0.539934 0.944735 0.110791
H33   H     H_    0.803944 0.588702 0.858128 0.105184
H34   H     H_    0.035561 0.697881 0.915238 0.119485
H35   H     H_    0.996188 0.757051 0.058883 0.116255
Cl1   Cl    Cl    0.155158 0.231163 0.400778 -0.728520

loop_
_geom_bond_atom_site_label_1
_geom_bond_atom_site_label_2
_ccdc_geom_bond_type
O18   V4    S    
C43   C44   A    
O12   V3    S    
C53   C58   A    
C4    C6    S    
C57   C58   A    
C1    O6    A    
C48   C49   A    
C46   H25   S    
C24   C25   A    
O17   V3    S    
C29   C30   A    
C11   H4    S    
C51   H29   S    
C18   C19   S    
C5    C12   S    
C17   C18   A    
C7    C8    A    
C42   H21   S    
O5    C3    A    
C58   H35   S    
C21   C28   S    
O17   V4    S    
C31   C32   A    
C29   C36   S    
C49   C50   A    
C54   C55   A    
C32   C33   A    
C6    C7    A    
C45   H24   S    
C56   C57   A    
O8    V2    S    
C24   H12   S    
C36   H19   S    
C53   C54   A    
C25   C38   S    
C57   H34   S    
O1    V2    S    
O9    C4    A    
C9    C39   S    
C3    C17   S    
O7    V1    S    
C48   H26   S    
C28   H15   S    
C37   O16   A    
C27   C47   S    
O13   C40   A    
C50   H28   S    
O15   C39   A    
C8    H2    S    
O14   C38   A    
O16   V4    S    
O19   V4    S    
C28   H14   S    
C15   H7    S    
C20   H10   S    
C23   C24   A    
C5    C10   A    
V2    O10   S    
C27   C28   S    
C10   C11   S    
C19   H9    S    
O4    C2    A    
C42   C43   A    
C1    C22   S    
C26   C27   S    
C11   C12   S    
C41   C42   A    
O19   C40   A    
C13   C18   A    
C32   H17   S    
C27   H13   S    
C16   C17   A    
C35   H18   S    
C54   H31   S    
O2    C1    A    
C21   C22   A    
C33   C34   A    
O11   V4    S    
V3    O20   S    
V4    O20   S    
O14   V3    S    
C36   H20   S    
C47   C48   A    
C5    C6    A    
C29   C34   A    
C33   C37   S    
O3    C4    A    
C55   H32   S    
C12   H6    S    
O6    V2    S    
C8    C9    A    
O18   C39   A    
C20   C41   S    
O2    V1    S    
C43   H22   S    
C22   C23   A    
C35   C53   S    
C52   H30   S    
C44   H23   S    
O1    C2    A    
C13   C14   A    
O5    V1    S    
C41   C46   A    
C21   C26   A    
C11   H3    S    
C14   C40   S    
C50   C51   A    
C14   C15   A    
C7    H1    S    
O9    V2    S    
C31   H16   S    
O4    V1    S    
O3    V1    S    
V1    O10   S    
C55   C56   A    
C35   C36   S    
C19   H8    S    
C30   C31   A    
C19   C20   S    
C51   C52   A    
C15   C16   A    
C13   C20   S    
O11   C38   A    
O7    V2    S    
C9    C10   A    
C34   C35   S    
C23   H11   S    
C44   C45   A    
C12   H5    S    
C25   C26   A    
O15   V3    S    
C16   Cl1   S    
O12   C37   A    
C45   C46   A    
C47   C52   A    
C56   H33   S    
C2    C30   S    
O13   V3    S    
C49   H27   S    
O8    C3    A    
