data_mof_unit_1893.cif
_audit_creation_date              2012-12-10T18:47:03-0500
_audit_creation_method            fapswitch 2.2
_symmetry_space_group_name_H-M    P1
_symmetry_Int_Tables_number       1
_space_group_crystal_system       triclinic
_cell_length_a                    10.717731
_cell_length_b                    9.842582
_cell_length_c                    14.918484
_cell_angle_alpha                 89.999988
_cell_angle_beta                  90.859248
_cell_angle_gamma                 90.000011
_cell_volume                      1573.57609239

loop_
_atom_site_label
_atom_site_type_symbol
_atom_type_description
_atom_site_fract_x
_atom_site_fract_y
_atom_site_fract_z
_atom_type_partial_charge
C1    C     C_R   0.259884 0.500037 0.500722 0.926045
C2    C     C_R   0.740116 0.500037 0.499278 0.926046
C3    C     C_R   0.270510 0.536313 0.036698 -0.106435
C4    C     C_R   0.729489 0.536316 0.963302 -0.106435
C5    C     C_R   0.063840 0.376188 0.500736 -0.183829
C6    C     C_R   0.936134 0.624033 0.499626 -0.137127
C7    C     C_R   0.936160 0.376189 0.499264 -0.183828
C8    C     C_R   0.063866 0.624033 0.500373 -0.137127
C9    C     C_R   0.872579 0.500092 0.499123 0.019610
C10   C     C_R   0.127421 0.500092 0.500876 0.019610
C11   C     C_R   0.591419 0.071836 0.544402 -0.055340
C12   C     C_R   0.408681 0.928013 0.455459 -0.067063
C13   C     C_R   0.408580 0.071836 0.455598 -0.055340
C14   C     C_R   0.591318 0.928013 0.544541 -0.067063
C15   C     C_R   0.492827 0.500029 0.327027 1.000403
C16   C     C_R   0.507173 0.500029 0.672973 1.000403
C17   C     C_R   0.624479 0.495198 0.817535 0.380360
C18   C     C_R   0.375521 0.495196 0.182464 0.380360
C19   C     C_R   0.510726 0.501372 0.768652 -0.180488
C20   C     C_R   0.489274 0.501372 0.231348 -0.180488
C21   C     C_R   0.396764 0.519877 0.810061 -0.308090
C22   C     C_R   0.603236 0.519879 0.189939 -0.308090
C23   C     C_R   0.391636 0.526561 0.902212 0.135579
C24   C     C_R   0.608364 0.526563 0.097788 0.135579
C25   C     C_R   0.503138 0.523299 0.953171 0.031360
C26   C     C_R   0.496861 0.523299 0.046828 0.031360
C27   C     C_R   0.620683 0.517797 0.910768 -0.022537
C28   C     C_R   0.379317 0.517796 0.089232 -0.022537
C29   C     C_R   0.276596 0.538981 0.943954 -0.191234
C30   C     C_R   0.723404 0.538984 0.056046 -0.191234
H1    H     H_    0.311447 0.525926 0.769994 0.161724
H2    H     H_    0.688552 0.525929 0.230006 0.161725
H3    H     H_    0.191012 0.549007 0.904834 0.173664
H4    H     H_    0.808987 0.549011 0.095166 0.173663
H5    H     H_    0.180276 0.552201 0.065884 0.213970
H6    H     H_    0.819723 0.552205 0.934116 0.213969
H7    H     H_    0.112257 0.279543 0.501284 0.151831
H8    H     H_    0.887675 0.720653 0.499525 0.151817
H9    H     H_    0.887743 0.279543 0.498717 0.151831
H10   H     H_    0.112325 0.720653 0.500474 0.151817
H11   H     H_    0.664700 0.126007 0.579753 0.160597
H12   H     H_    0.335689 0.873543 0.419778 0.146862
H13   H     H_    0.335300 0.126007 0.420247 0.160597
H14   H     H_    0.664311 0.873543 0.580222 0.146863
N1    N     N_R   0.500000 0.857200 0.500000 -0.087971
N2    N     N_R   0.500000 0.142800 0.500000 -0.087480
O1    O     O_R   0.316770 0.614620 0.499990 -0.637785
O2    O     O_R   0.683230 0.385380 0.500010 -0.621452
O3    O     O_R   0.683230 0.614620 0.500010 -0.637785
O4    O     O_R   0.316770 0.385380 0.499990 -0.621452
O5    O     O_R   0.499980 0.614680 0.367850 -0.624056
O6    O     O_R   0.500020 0.385320 0.632150 -0.575704
O7    O     O_R   0.500020 0.614680 0.632150 -0.624055
O8    O     O_R   0.499980 0.385320 0.367850 -0.575703
Zn1   Zn    Zn3+2 0.500000 0.653120 0.500000 0.983922
Zn2   Zn    Zn3+2 0.500000 0.346880 0.500000 1.012456
S1    S     S_3+6 0.766305 0.450542 0.762701 -0.008581
O9    O     O_2   0.822039 0.576104 0.722342 -0.326665
O10   O     O_2   0.859243 0.387107 0.826560 -0.317772
O11   O     O_3   0.737767 0.336561 0.681332 -0.571395
H15   H     H_    0.820015 0.296179 0.667871 0.371264
S2    S     S_3+6 0.233695 0.450540 0.237299 -0.008581
O12   O     O_2   0.177960 0.576102 0.277658 -0.326666
O13   O     O_2   0.140758 0.387103 0.173440 -0.317771
O14   O     O_3   0.262234 0.336559 0.318668 -0.571395
H16   H     H_    0.179986 0.296178 0.332130 0.371264

loop_
_geom_bond_atom_site_label_1
_geom_bond_atom_site_label_2
_ccdc_geom_bond_type
S2    O13   D    
C4    H6    S    
S2    O12   D    
C2    O3    A    
C5    H7    S    
C25   C27   A    
C5    C7    A    
C1    O4    A    
C18   C20   A    
C15   O5    A    
C3    H5    S    
C7    H9    S    
C11   N2    A    
C6    C9    A    
O7    Zn1   S    
C20   C22   A    
O1    Zn1   S    
C5    C10   A    
C26   C28   A    
C21   H1    S    
C3    C29   A    
S1    O9    D    
C15   C20   S    
C22   H2    S    
O11   H15   S    
C16   C19   S    
C23   C29   A    
C22   C24   A    
C8    C10   A    
C3    C28   A    
C17   C19   A    
C24   C26   A    
C11   H11   S    
C14   N1    A    
O5    Zn1   S    
C23   C25   A    
C21   C23   A    
C13   N2    A    
C11   C14   A    
O8    Zn2   S    
S1    O10   D    
C24   C30   A    
C30   H4    S    
C12   H12   S    
C17   C27   A    
C15   O8    A    
C7    C9    A    
C13   H13   S    
C4    C27   A    
C18   C28   A    
C12   C13   A    
N1    Zn1   S    
C14   H14   S    
O14   H16   S    
N2    Zn2   S    
C16   O6    A    
O2    Zn2   S    
C18   S2    S    
C16   O7    A    
C1    O1    A    
S1    O11   S    
C6    C8    A    
O4    Zn2   S    
C8    H10   S    
S2    O14   S    
C2    O2    A    
C25   C26   A    
O3    Zn1   S    
C2    C9    S    
C6    H8    S    
C4    C30   A    
C1    C10   S    
O6    Zn2   S    
C29   H3    S    
C17   S1    S    
C12   N1    A    
C19   C21   A    
