data_mof_unit_246.cif
_audit_creation_date              2012-12-11T17:23:12-0500
_audit_creation_method            fapswitch 2.2
_symmetry_space_group_name_H-M    P1
_symmetry_Int_Tables_number       1
_space_group_crystal_system       triclinic
_cell_length_a                    22.415735
_cell_length_b                    7.096776
_cell_length_c                    19.386438
_cell_angle_alpha                 89.99959
_cell_angle_beta                  99.574428
_cell_angle_gamma                 89.999718
_cell_volume                      3041.02514414

loop_
_atom_site_label
_atom_site_type_symbol
_atom_type_description
_atom_site_fract_x
_atom_site_fract_y
_atom_site_fract_z
_atom_type_partial_charge
O1    O     O_R   0.443980 0.494320 0.557430 -0.529422
O2    O     O_R   0.556020 0.994320 0.442570 -0.529422
O3    O     O_R   0.441210 0.822520 0.414610 -0.537453
O4    O     O_R   0.558790 0.322520 0.585390 -0.537452
C1    C     C_R   0.426696 0.655375 0.388735 0.693837
C2    C     C_R   0.573303 0.155373 0.611265 0.693837
O5    O     O_R   0.436920 0.823940 0.555180 -0.534425
O6    O     O_R   0.563080 0.323940 0.444820 -0.534424
O7    O     O_R   0.551700 0.995760 0.584140 -0.534647
O8    O     O_R   0.448300 0.495760 0.415860 -0.534646
C3    C     C_R   0.421646 0.655401 0.574918 0.707223
C4    C     C_R   0.578354 0.155401 0.425082 0.707222
O9    O     O_3   0.537660 0.661290 0.509340 -0.370461
O10   O     O_3   0.462340 0.161290 0.490660 -0.370461
V1    V     V_3+5 0.493010 0.935560 0.498270 1.467557
V2    V     V_3+5 0.506990 0.435560 0.501730 1.467558
C5    C     C_R   0.760010 0.936742 0.218418 -0.259783
C6    C     C_R   0.239988 0.436740 0.781580 -0.259793
H1    H     H_    0.767681 0.802385 0.194854 0.226172
H2    H     H_    0.232317 0.302382 0.805143 0.226177
C7    C     C_R   0.793009 0.096225 0.204150 -0.101405
C8    C     C_R   0.206991 0.596225 0.795850 -0.101407
C9    C     C_R   0.782162 0.268969 0.235413 0.675694
C10   C     C_R   0.217840 0.768971 0.764588 0.675701
C11   C     C_R   0.739022 0.281398 0.280254 -0.288190
C12   C     C_R   0.260979 0.781400 0.719747 -0.288192
H3    H     H_    0.731385 0.415732 0.303853 0.219038
H4    H     H_    0.268617 0.915735 0.696150 0.219042
C13   C     C_R   0.706082 0.121859 0.294606 -0.102917
C14   C     C_R   0.293918 0.621859 0.705394 -0.102918
C15   C     C_R   0.716870 0.949168 0.263260 0.657020
C16   C     C_R   0.283128 0.449166 0.736738 0.657021
C17   C     C_1   0.838048 0.082092 0.158026 0.163966
C18   C     C_1   0.161952 0.582092 0.841974 0.163964
C19   C     C_1   0.661344 0.135743 0.341132 0.116111
C20   C     C_1   0.338656 0.635743 0.658868 0.116111
C21   C     C_1   0.623768 0.145878 0.379657 -0.153691
C22   C     C_1   0.376232 0.645878 0.620343 -0.153691
C23   C     C_1   0.875947 0.071776 0.119929 -0.087282
C24   C     C_1   0.124053 0.571776 0.880071 -0.087282
C25   C     C_R   0.632055 0.169791 0.804573 -0.079159
C26   C     C_R   0.367941 0.669906 0.195429 -0.079162
H5    H     H_    0.545105 0.193394 0.739760 0.133291
H6    H     H_    0.454890 0.693514 0.260242 0.133291
H7    H     H_    0.612286 0.188888 0.851319 0.192648
H8    H     H_    0.387707 0.689057 0.148684 0.192647
C27   C     C_R   0.615499 0.147879 0.678384 -0.047296
C28   C     C_R   0.384501 0.647891 0.321616 -0.047299
C29   C     C_R   0.910027 0.047572 0.759904 0.623885
C30   C     C_R   0.089976 0.547496 0.240095 0.623888
C31   C     C_R   0.873060 0.049328 0.694810 -0.171733
C32   C     C_R   0.126944 0.549222 0.305188 -0.171734
C33   C     C_R   0.810745 0.073192 0.689149 -0.240359
C34   C     C_R   0.189258 0.573114 0.310850 -0.240359
C35   C     C_R   0.783212 0.096516 0.749213 0.085855
C36   C     C_R   0.216789 0.596500 0.250787 0.085856
C37   C     C_R   0.821553 0.095766 0.816094 -0.078325
C38   C     C_R   0.178446 0.595785 0.183906 -0.078324
C39   C     C_R   0.719071 0.120395 0.744979 0.051263
C40   C     C_R   0.280928 0.620405 0.255021 0.051263
C41   C     C_R   0.694864 0.144335 0.807952 0.030197
C42   C     C_R   0.305133 0.644414 0.192050 0.030199
C43   C     C_R   0.733699 0.142895 0.873156 0.377224
C44   C     C_R   0.266296 0.643008 0.126846 0.377222
C45   C     C_R   0.795740 0.118750 0.876672 -0.191285
C46   C     C_R   0.204257 0.618832 0.123330 -0.191287
C47   C     C_R   0.677910 0.121808 0.680373 -0.182746
C48   C     C_R   0.322091 0.621782 0.319626 -0.182748
C49   C     C_R   0.593104 0.172249 0.740648 -0.174521
C50   C     C_R   0.406892 0.672334 0.259354 -0.174517
C51   C     C_R   0.885215 0.070875 0.821007 -0.197337
C52   C     C_R   0.114785 0.570863 0.178993 -0.197337
H9    H     H_    0.692677 0.104485 0.630653 0.093722
H10   H     H_    0.307327 0.604406 0.369345 0.093725
H11   H     H_    0.785522 0.072624 0.636810 0.140982
H12   H     H_    0.214482 0.572519 0.363188 0.140982
H13   H     H_    0.892899 0.031483 0.647976 0.164832
H14   H     H_    0.107107 0.531329 0.352022 0.164832
H15   H     H_    0.823817 0.118393 0.927856 0.133037
H16   H     H_    0.176178 0.618502 0.072146 0.133045
O11   O     O_R   0.051730 0.724670 0.084120 -0.537084
O12   O     O_R   0.948270 0.224670 0.915880 -0.537079
O13   O     O_R   0.063080 0.393540 0.944820 -0.533806
O14   O     O_R   0.936920 0.893540 0.055180 -0.533811
C53   C     C_R   0.078280 0.562139 0.925005 0.703993
C54   C     C_R   0.921720 0.062139 0.074995 0.703994
O15   O     O_R   0.058800 0.395030 0.085390 -0.535287
O16   O     O_R   0.941200 0.895030 0.914610 -0.535294
O17   O     O_R   0.943980 0.223310 0.057440 -0.524914
O18   O     O_R   0.056020 0.723310 0.942560 -0.524918
C55   C     C_R   0.072934 0.563524 0.111289 0.763086
C56   C     C_R   0.927066 0.063526 0.888711 0.763087
O19   O     O_3   0.962360 0.556290 0.990650 -0.374282
O20   O     O_3   0.037640 0.056290 0.009350 -0.374279
V3    V     V_3+5 0.006980 0.281990 0.001730 1.552700
V4    V     V_3+5 0.993020 0.781990 0.998270 1.552679
F1    F     F_    0.685676 0.792587 0.276019 -0.671067
F2    F     F_    0.314321 0.292583 0.723978 -0.671069
F3    F     F_    0.813389 0.425515 0.222691 -0.653416
F4    F     F_    0.186613 0.925519 0.777312 -0.653414
Cl1   Cl    Cl    0.706910 0.170862 0.953180 -0.613772
Cl2   Cl    Cl    0.293083 0.671057 0.046823 -0.613769
F5    F     F_    0.970540 0.022835 0.763385 -0.667258
F6    F     F_    0.029465 0.522725 0.236613 -0.667259

loop_
_geom_bond_atom_site_label_1
_geom_bond_atom_site_label_2
_ccdc_geom_bond_type
C9    F3    S    
C43   C45   A    
O4    V2    S    
C45   H15   S    
O15   C55   A    
O1    C3    A    
C25   C41   A    
C43   Cl1   S    
O2    C4    A    
C2    O7    A    
O16   V4    S    
O5    C3    A    
C17   C23   T    
C18   C24   T    
C19   C21   T    
C10   C12   A    
C35   C39   A    
C26   H8    S    
C7    C17   S    
C48   H10   S    
C26   C50   A    
O12   C56   A    
C40   C42   A    
O14   V4    S    
C4    C21   S    
C41   C43   A    
C30   C52   A    
C27   C49   A    
C42   C44   A    
C39   C47   A    
C38   C46   A    
C51   C56   S    
O16   C56   A    
C16   F2    S    
C29   C31   A    
O15   V3    S    
C30   C32   A    
H6    C50   S    
C47   H9    S    
C26   C42   A    
O5    V1    S    
O6    V2    S    
C10   F4    S    
C33   H11   S    
C32   H14   S    
C27   C47   A    
C32   C34   A    
C33   C35   A    
C11   C13   A    
C8    C18   S    
C1    C28   S    
C34   C36   A    
C39   C41   A    
C2    C27   S    
O4    C2    A    
C37   C45   A    
C52   C55   S    
C28   C48   A    
C5    C7    A    
C36   C40   A    
C31   C33   A    
C44   C46   A    
C24   C53   S    
O17   V3    S    
C3    C22   S    
C44   Cl2   S    
C31   H13   S    
O6    C4    A    
O13   V3    S    
O1    V2    S    
C37   C51   A    
O20   V4    S    
O2    V1    S    
C34   H12   S    
O13   C53   A    
C12   C14   A    
O19   V4    S    
C35   C37   A    
C5    C15   A    
C8    C10   A    
C6    C16   A    
O3    V1    S    
C25   C49   A    
O11   V4    S    
O12   V3    S    
C6    C8    A    
C28   C50   A    
O3    C1    A    
C54   O17   A    
C29   F5    S    
C53   O18   A    
O18   V4    S    
C11   H3    S    
C46   H16   S    
C13   C19   S    
C12   H4    S    
C14   C20   S    
C7    C9    A    
O7    V1    S    
C1    O8    A    
C13   C15   A    
O8    V2    S    
C14   C16   A    
C38   C52   A    
C20   C22   T    
C5    H1    S    
C36   C38   A    
C6    H2    S    
C15   F1    S    
O20   V3    S    
O11   C55   A    
C9    C11   A    
C40   C48   A    
O19   V3    S    
C29   C51   A    
O9    V2    S    
C25   H7    S    
O10   V1    S    
O14   C54   A    
C23   C54   S    
H5    C49   S    
C30   F6    S    
