data_mof_unit_1553.cif
_audit_creation_date              2012-12-11T18:07:00-0500
_audit_creation_method            fapswitch 2.2
_symmetry_space_group_name_H-M    P1
_symmetry_Int_Tables_number       1
_space_group_crystal_system       triclinic
_cell_length_a                    8.222703
_cell_length_b                    12.700479
_cell_length_c                    26.962934
_cell_angle_alpha                 96.565889
_cell_angle_beta                  92.839285
_cell_angle_gamma                 81.322006
_cell_volume                      2763.81302342

loop_
_atom_site_label
_atom_site_type_symbol
_atom_type_description
_atom_site_fract_x
_atom_site_fract_y
_atom_site_fract_z
_atom_type_partial_charge
Ba1   Ba    Ba6+2 0.859560 0.448380 0.523550 1.642225
Ba2   Ba    Ba6+2 0.330270 0.551530 0.476440 1.655286
C1    C     C_3   0.635797 0.081251 0.663088 -0.383381
C2    C     C_3   0.655085 0.182633 0.640333 0.338513
C3    C     C_3   0.479225 0.722713 0.628731 0.279787
C4    C     C_3   0.466997 0.761340 0.684610 -0.107012
C5    C     C_3   0.955339 0.818383 0.341811 0.334024
C6    C     C_3   0.919471 0.882811 0.297277 -0.332129
C7    C     C_3   0.475821 0.820677 0.327360 0.474980
C8    C     C_3   0.380576 0.907142 0.297731 -0.359280
C9    C     C_R   0.008655 0.415068 0.176145 0.596151
C10   C     C_R   0.973371 0.606887 0.184216 0.620811
C11   C     C_2   0.765714 0.571255 0.270179 0.101190
C12   C     C_3   0.160228 0.211575 0.660547 0.283304
C13   C     C_3   0.737006 0.606751 0.325591 -0.102861
C14   C     C_1   0.986900 0.482187 0.343219 0.040073
C15   C     C_2   0.030877 0.471857 0.295796 -0.128401
C16   C     C_2   0.914950 0.517220 0.256228 0.248910
C17   C     C_R   0.047588 0.507643 0.103598 -0.080011
C18   C     C_R   0.051463 0.411519 0.125469 -0.036228
C19   C     C_R   0.095524 0.314029 0.095952 -0.058722
C20   C     C_R   0.008074 0.605862 0.133359 -0.033329
C21   C     C_2   0.851652 0.542758 0.360016 -0.285403
C22   C     C_2   0.351719 0.474985 0.641601 -0.276809
C23   C     C_3   0.123252 0.184492 0.711881 -0.323045
C24   C     C_R   0.178550 0.405617 0.972285 0.019270
C25   C     C_R   0.094428 0.601057 0.977711 0.019862
C26   C     C_R   0.153820 0.502620 0.949435 0.050736
C27   C     C_R   0.248619 0.311047 0.943380 -0.099095
C28   C     C_R   0.288832 0.311430 0.893714 -0.059351
C29   C     C_R   0.258797 0.405681 0.870160 -0.031849
C30   C     C_R   0.189386 0.501331 0.897830 -0.078204
C31   C     C_R   0.156567 0.595894 0.874015 -0.035678
C32   C     C_R   0.191124 0.593296 0.822881 0.591508
C33   C     C_R   0.298073 0.406363 0.819609 0.580884
C34   C     C_3   0.213594 0.224635 0.418811 0.298102
C35   C     C_2   0.459737 0.475928 0.729576 -0.073171
C36   C     C_3   0.500705 0.484016 0.675923 -0.062179
C37   C     C_1   0.207857 0.523565 0.657306 0.038967
C38   C     C_2   0.169130 0.526839 0.704947 -0.105821
C39   C     C_2   0.301385 0.498936 0.743986 0.211326
C40   C     C_R   0.134048 0.406501 0.023068 0.020228
C41   C     C_R   0.083889 0.505763 0.052019 0.052098
C42   C     C_R   0.069681 0.603357 0.029938 0.020166
C43   C     C_R   0.136827 0.311404 0.046123 -0.098541
C44   C     C_R   0.004154 0.701509 0.111778 -0.061930
C45   C     C_3   0.243246 0.104188 0.406051 -0.389219
C46   C     C_R   0.060255 0.694077 0.952434 -0.101027
C47   C     C_R   0.089925 0.691271 0.901816 -0.059830
C48   C     C_R   0.033024 0.700471 0.061267 -0.099588
C49   C     C_R   0.757377 0.820135 0.479297 -0.249982
C50   C     C_R   0.435329 0.189322 0.521149 -0.288432
C51   C     C_R   0.411806 0.010035 0.537420 -0.100921
C52   C     C_R   0.349538 0.118168 0.540715 -0.005258
C53   C     C_R   0.576949 0.152384 0.494167 0.064521
C54   C     C_R   0.639778 0.041176 0.488605 -0.057889
C55   C     C_R   0.556182 0.969677 0.511266 -0.059112
C56   C     C_3   0.980903 0.777113 0.580760 0.266913
C57   C     C_R   0.617249 0.859203 0.506205 0.064263
C58   C     C_R   0.845589 0.889489 0.459676 -0.009784
C59   C     C_R   0.784400 0.998862 0.462222 -0.090240
C60   C     C_3   0.977742 0.897357 0.591987 -0.350668
C61   C     C_3   0.696289 0.313517 0.375989 0.297209
C62   C     C_3   0.709703 0.285587 0.319828 -0.357026
H1    H     H_    0.759760 0.164284 0.614610 0.080547
H2    H     H_    0.338338 0.083331 0.377414 0.111927
H3    H     H_    0.286576 0.064384 0.439646 0.088723
H4    H     H_    0.127392 0.075284 0.391404 0.145129
H5    H     H_    0.855291 0.759617 0.571587 0.009051
H6    H     H_    0.060510 0.748771 0.548460 0.076220
H7    H     H_    0.909185 0.926899 0.626373 0.125577
H8    H     H_    0.917136 0.939354 0.560756 0.085603
H9    H     H_    0.105426 0.915855 0.597657 0.130837
H10   H     H_    0.813476 0.337746 0.391593 0.007224
H11   H     H_    0.595264 0.381187 0.383140 0.088632
H12   H     H_    0.612840 0.017301 0.633040 0.080771
H13   H     H_    0.815320 0.221281 0.311619 0.128345
H14   H     H_    0.728618 0.357082 0.302035 0.073805
H15   H     H_    0.594686 0.257681 0.303728 0.131965
H16   H     H_    0.539501 0.208203 0.619178 -0.043902
H17   H     H_    0.530609 0.096967 0.688479 0.136349
H18   H     H_    0.356036 0.707999 0.613502 0.025960
H19   H     H_    0.566852 0.646893 0.624088 0.013205
H20   H     H_    0.425274 0.698912 0.704430 0.071807
H21   H     H_    0.590676 0.774535 0.700391 0.120899
H22   H     H_    0.749322 0.053667 0.684843 0.131443
H23   H     H_    0.140509 0.252438 0.740286 0.128732
H24   H     H_    0.005278 0.734265 0.328423 0.076541
H25   H     H_    0.836593 0.819719 0.359961 -0.069286
H26   H     H_    0.030097 0.873852 0.274388 0.149464
H27   H     H_    0.818007 0.853917 0.273444 0.113999
H28   H     H_    0.882149 0.968852 0.310380 0.100014
H29   H     H_    0.597043 0.798624 0.310045 -0.038461
H30   H     H_    0.356606 0.872753 0.258770 0.112815
H31   H     H_    0.453652 0.973580 0.296645 0.074141
H32   H     H_    0.089363 0.290891 0.655035 0.098291
H33   H     H_    0.261597 0.939985 0.315021 0.144826
H34   H     H_    0.152483 0.431853 0.285389 0.119013
H35   H     H_    0.098492 0.238607 0.111367 0.119181
H36   H     H_    0.558754 0.459351 0.757024 0.098163
H37   H     H_    0.343285 0.236661 0.873610 0.123195
H38   H     H_    0.278224 0.235299 0.958509 0.070089
H39   H     H_    0.166403 0.232871 0.026171 0.068164
H40   H     H_    0.976668 0.778414 0.133900 0.117648
H41   H     H_    0.006056 0.770474 0.970516 0.069387
H42   H     H_    0.293468 0.216143 0.659222 -0.018308
H43   H     H_    0.061055 0.765061 0.884516 0.123624
H44   H     H_    0.042619 0.550360 0.715979 0.117490
H45   H     H_    0.029879 0.777757 0.048126 0.068733
H46   H     H_    0.835926 0.563584 0.399841 0.084121
H47   H     H_    0.361028 0.425618 0.605899 0.069193
H48   H     H_    0.342383 0.958554 0.554122 0.102274
H49   H     H_    0.853204 0.048984 0.444398 0.106608
H50   H     H_    0.804815 0.735493 0.476715 0.049811
H51   H     H_    0.385484 0.273579 0.524219 0.067947
H52   H     H_    0.993711 0.169790 0.712540 0.146468
H53   H     H_    0.206618 0.111692 0.721242 0.125451
H54   H     H_    0.331561 0.252758 0.430626 0.003789
H55   H     H_    0.126078 0.244187 0.449658 0.076376
N1    N     N_R   0.966984 0.512363 0.204739 -0.413381
N2    N     N_R   0.261551 0.499198 0.796192 -0.426163
O1    O     O_2   0.907040 0.557650 0.617910 -0.460619
O2    O     O_3   0.663842 0.223379 0.397047 -0.642801
O3    O     O_3   0.114138 0.131973 0.624447 -0.613810
O4    O     O_2   0.282660 0.442310 0.382060 -0.449501
O5    O     O_3   0.050670 0.442340 0.442260 -0.502385
O6    O     O_3   0.504750 0.639360 0.411530 -0.441291
O7    O     O_3   0.150240 0.270924 0.376080 -0.628033
O8    O     O_3   0.618400 0.630290 0.524520 -0.473724
O9    O     O_3   0.090070 0.694820 0.435810 -0.473000
O10   O     O_2   0.184691 0.884417 0.465887 -0.486121
O11   O     O_3   0.072705 0.863305 0.373897 -0.599139
O12   O     O_3   0.139040 0.557570 0.557730 -0.493301
O13   O     O_3   0.571310 0.369620 0.475470 -0.490594
O14   O     O_2   0.348200 0.764910 0.523260 -0.468593
O15   O     O_3   0.537400 0.800810 0.604606 -0.659308
O16   O     O_2   0.439159 0.524356 0.325312 -0.495629
O17   O     O_3   0.389660 0.731825 0.323811 -0.556216
O18   O     O_2   0.006847 0.331683 0.194523 -0.595748
O19   O     O_2   0.364727 0.324141 0.796449 -0.601519
O20   O     O_2   0.948770 0.692412 0.210383 -0.622903
O21   O     O_2   0.161029 0.675364 0.802362 -0.589092
O22   O     O_3   0.684960 0.360550 0.588460 -0.484315
O23   O     O_2   0.842257 0.421790 0.672790 -0.499588
O24   O     O_3   0.039191 0.729279 0.623563 -0.636893
O25   O     O_3   0.685841 0.262175 0.678736 -0.587833
O26   O     O_2   0.841490 0.235060 0.476710 -0.469325
O27   O     O_3   0.099640 0.305100 0.564190 -0.492047
O28   O     O_2   0.015007 0.115414 0.531349 -0.482367
P1    P     P_3+3 0.072810 0.589830 0.610360 0.989844
P2    P     P_3+3 0.661990 0.251250 0.462170 0.970042
P3    P     P_3+3 0.145187 0.166871 0.565120 0.932792
P4    P     P_3+3 0.116900 0.410080 0.389630 0.991561
P5    P     P_3+3 0.048143 0.833942 0.434577 0.964451
P6    P     P_3+3 0.678069 0.384217 0.653639 0.971435
P7    P     P_3+3 0.533196 0.764289 0.540085 0.939856
P8    P     P_3+3 0.519037 0.623491 0.346187 0.983722
N3    N     N_3   0.351687 0.860529 0.693874 -0.470236
H56   H     H_    0.389521 0.920224 0.675388 0.205697
H57   H     H_    0.235506 0.847562 0.679188 0.210579
N4    N     N_3   0.500590 0.862212 0.379668 -0.496591
H58   H     H_    0.559397 0.930031 0.381149 0.118584
H59   H     H_    0.386252 0.885485 0.395736 0.229061
N5    N     N_3   0.646785 0.606932 0.232586 -0.478230
H60   H     H_    0.538011 0.576726 0.237384 0.189111
H61   H     H_    0.622399 0.690396 0.237512 0.184045

loop_
_geom_bond_atom_site_label_1
_geom_bond_atom_site_label_2
_ccdc_geom_bond_type
C25   C46   A    
C56   C60   S    
C3    O15   S    
C53   C54   A    
C16   N1    S    
C27   H38   S    
C62   H13   S    
C17   C18   A    
Ba2   O8    S    
N4    H58   S    
C56   O24   S    
C5    C6    S    
C47   H43   S    
C51   C52   A    
C54   C55   A    
C37   P1    S    
Ba2   O13   S    
C4    H21   S    
C11   C16   D    
C13   P8    S    
C3    C4    S    
O1    P1    D    
N5    H60   S    
C35   C36   S    
C2    H16   S    
Ba1   O8    S    
C2    H1    S    
O15   P7    S    
C55   C57   A    
C8    H30   S    
C31   C47   A    
C5    H25   S    
C10   C20   A    
C23   H23   S    
C22   C37   D    
C10   O20   D    
C34   C45   S    
Ba1   Ba2   S    
C39   N2    S    
C34   H55   S    
C9    O18   D    
Ba1   O1    S    
C43   H39   S    
N4    H59   S    
C10   N1    Am   
O22   P6    S    
C25   C42   A    
C32   O21   D    
O25   P6    S    
C29   C30   A    
C17   C41   A    
C14   C15   D    
Ba2   P4    S    
C1    H17   S    
C22   C36   S    
C60   H9    S    
C6    H28   S    
C34   H54   S    
C7    C8    S    
O6    P8    S    
C45   H2    S    
O24   P1    S    
C50   C53   A    
C38   H44   S    
Ba2   O6    S    
C50   C52   A    
C13   C21   S    
O3    P3    S    
C1    H22   S    
N3    H57   S    
C34   O7    S    
C22   H47   S    
C36   P6    S    
Ba1   O12   S    
C9    N1    Am   
C12   H32   S    
C4    N3    S    
O4    P4    D    
C31   C32   A    
C19   C43   A    
O2    P2    S    
C9    C18   A    
C49   H50   S    
C4    H20   S    
Ba2   O12   S    
C33   N2    Am   
C17   C20   A    
C12   O3    S    
Ba1   O5    S    
O9    P5    S    
O28   P3    D    
C37   C38   D    
C19   H35   S    
C51   C55   A    
C56   H6    S    
C52   P3    S    
C44   H40   S    
C48   H45   S    
O14   P7    D    
C58   C59   A    
C40   C43   A    
C8    H33   S    
O26   P2    D    
C41   C42   A    
O5    P4    S    
C27   C28   A    
Ba1   O22   S    
C33   O19   D    
C7    O17   S    
O11   P5    S    
C46   H41   S    
C26   C30   A    
C2    O25   S    
C15   C16   S    
C60   H8    S    
Ba1   P1    S    
C45   H3    S    
C6    H27   S    
C7    N4    S    
C1    H12   S    
C5    O11   S    
O7    P4    S    
Ba2   O5    S    
C51   H48   S    
C38   C39   S    
C20   C44   A    
C32   N2    Am   
C11   C13   S    
C59   H49   S    
N3    H56   S    
C62   H15   S    
C29   C33   A    
C23   H52   S    
C49   C57   A    
C40   C41   A    
Ba1   O13   S    
C7    H29   S    
C45   H4    S    
C14   P4    S    
C24   C40   A    
C11   N5    S    
C15   H34   S    
C50   H51   S    
C42   C48   A    
C21   H46   S    
C46   C47   A    
C62   H14   S    
O10   P5    D    
O12   P1    S    
O27   P3    S    
C23   H53   S    
C5    H24   S    
O8    P7    S    
C61   O2    S    
C57   P7    S    
C56   H5    S    
C53   P2    S    
C61   H10   S    
C14   C21   D    
C44   C48   A    
C24   C26   A    
Ba2   O14   S    
O16   P8    D    
C30   C31   A    
O23   P6    D    
N5    H61   S    
C3    H18   S    
O17   P8    S    
C28   C29   A    
C61   H11   S    
C8    H31   S    
C3    H19   S    
O13   P2    S    
C28   H37   S    
Ba2   O9    S    
C60   H7    S    
Ba1   P2    S    
C12   C23   S    
C35   C39   D    
C58   P5    S    
Ba1   O26   S    
C61   C62   S    
Ba2   O4    S    
C12   H42   S    
C6    H26   S    
C18   C19   A    
C24   C27   A    
C25   C26   A    
C54   C59   A    
Ba1   O27   S    
C49   C58   A    
C35   H36   S    
C1    C2    S    
