data_mof_unit_3951.cif
_audit_creation_date              2012-12-10T17:50:41-0500
_audit_creation_method            fapswitch 2.2
_symmetry_space_group_name_H-M    P1
_symmetry_Int_Tables_number       1
_space_group_crystal_system       triclinic
_cell_length_a                    15.730588
_cell_length_b                    10.665012
_cell_length_c                    9.891383
_cell_angle_alpha                 89.360463
_cell_angle_beta                  89.976305
_cell_angle_gamma                 91.491428
_cell_volume                      1658.78083753

loop_
_atom_site_label
_atom_site_type_symbol
_atom_type_description
_atom_site_fract_x
_atom_site_fract_y
_atom_site_fract_z
_atom_type_partial_charge
C1    C     C_R   0.504166 0.259144 0.501571 0.862740
C2    C     C_R   0.491937 0.039767 0.875783 -0.196273
C3    C     C_R   0.440425 0.932262 0.868061 -0.162175
C4    C     C_R   0.337998 0.499205 0.499998 0.878151
C5    C     C_R   0.422092 0.879002 0.742249 0.208934
C6    C     C_R   0.459774 0.933214 0.623244 0.090043
C7    C     C_R   0.494020 0.055374 0.629222 0.055560
C8    C     C_R   0.502858 0.123889 0.505521 -0.112369
C9    C     C_R   0.495175 0.063007 0.381363 -0.218562
C10   C     C_R   0.482092 0.935814 0.378643 -0.218616
C11   C     C_R   0.469750 0.869572 0.499717 -0.133264
C12   C     C_3   0.083133 0.497791 0.498037 0.149498
C13   C     C_R   0.389894 0.333602 0.141942 -0.176170
C14   C     C_R   0.336489 0.249533 0.072738 0.209650
C15   C     C_R   0.336435 0.251105 0.932366 -0.197934
C16   C     C_R   0.488238 0.738060 0.499653 0.892842
C17   C     C_R   0.389739 0.334472 0.861540 -0.202286
C18   C     C_R   0.445718 0.418170 0.928555 0.148807
C19   C     C_R   0.445744 0.418033 0.073169 0.121487
C20   C     C_R   0.551504 0.578914 0.070575 -0.115125
C21   C     C_R   0.551484 0.578874 0.927320 -0.117809
C22   C     C_R   0.662027 0.500238 0.500004 0.915801
C23   C     C_3   0.973832 0.603941 0.558697 -0.212081
C24   C     C_3   0.969887 0.395926 0.568592 -0.261344
C25   C     C_3   0.026283 0.392140 0.439478 -0.201576
C26   C     C_1   0.249167 0.498539 0.499879 -0.181406
C27   C     C_1   0.750923 0.499516 0.500045 -0.192778
C28   C     C_3   0.027696 0.501660 0.623729 0.160408
C29   C     C_3   0.354597 0.776182 0.738208 -0.843332
C30   C     C_3   0.279416 0.157577 0.147768 -0.933284
C31   C     C_3   0.938539 0.489747 0.228454 -0.937913
C32   C     C_3   0.917043 0.498140 0.500022 0.165399
C33   C     C_3   0.030117 0.599670 0.429602 -0.199037
C34   C     C_3   0.971961 0.494123 0.372569 0.262837
C35   C     C_1   0.173926 0.498055 0.499202 -0.050916
C36   C     C_1   0.826183 0.498803 0.500155 -0.056035
C37   C     C_R   0.517667 0.102336 0.757665 -0.169802
H1    H     H_    0.049381 0.306767 0.389482 0.143763
H2    H     H_    0.056258 0.681707 0.371689 0.143636
H3    H     H_    0.951104 0.689106 0.609517 0.143312
H4    H     H_    0.501793 0.112789 0.285659 0.174033
H5    H     H_    0.558115 0.184855 0.769179 0.176400
H6    H     H_    0.508690 0.078079 0.973427 0.152053
H7    H     H_    0.336858 0.751258 0.633222 0.224287
H8    H     H_    0.376688 0.691931 0.793403 0.266916
H9    H     H_    0.296046 0.808551 0.788350 0.219924
H10   H     H_    0.286365 0.166470 0.259047 0.237691
H11   H     H_    0.212095 0.174073 0.120718 0.244248
H12   H     H_    0.414502 0.890615 0.960131 0.142718
H13   H     H_    0.295567 0.060510 0.119655 0.244125
H14   H     H_    0.992703 0.487395 0.156678 0.241771
H15   H     H_    0.897586 0.404446 0.215355 0.246231
H16   H     H_    0.900762 0.574164 0.207210 0.245444
H17   H     H_    0.008629 0.505044 0.826541 0.179708
H18   H     H_    0.093265 0.423795 0.778801 0.182971
H19   H     H_    0.485241 0.889129 0.282066 0.169697
H20   H     H_    0.593541 0.643340 0.123694 0.145122
H21   H     H_    0.385748 0.330423 0.249044 0.211969
H22   H     H_    0.295138 0.186908 0.877155 0.159901
H23   H     H_    0.385601 0.329574 0.754455 0.219561
H24   H     H_    0.593456 0.643341 0.872530 0.153006
H25   H     H_    0.944074 0.314217 0.627369 0.144958
N1    N     N_R   0.499210 0.498800 0.142780 -0.114204
N2    N     N_R   0.499180 0.498720 0.857170 -0.123359
N3    N     N_3   0.060812 0.506650 0.761072 -0.454706
O1    O     O_R   0.500000 0.316780 0.614690 -0.648627
O2    O     O_R   0.499990 0.316750 0.385360 -0.640249
O3    O     O_R   0.376780 0.500000 0.614650 -0.637963
O4    O     O_R   0.376770 0.499980 0.385310 -0.631231
O5    O     O_R   0.500010 0.683250 0.614640 -0.608723
O6    O     O_R   0.500000 0.683220 0.385310 -0.623122
O7    O     O_R   0.623230 0.500020 0.614690 -0.612324
O8    O     O_R   0.623220 0.500000 0.385350 -0.606964
Zn1   Zn    Zn3+2 0.500010 0.500020 0.653130 0.922477
Zn2   Zn    Zn3+2 0.499990 0.499980 0.346870 0.933481

loop_
_geom_bond_atom_site_label_1
_geom_bond_atom_site_label_2
_ccdc_geom_bond_type
C1    C8    S    
C31   H15   S    
C3    H12   S    
C7    C8    A    
H17   N3    S    
C33   H2    S    
C12   C28   S    
C32   C36   S    
C30   H11   S    
C5    C6    A    
O3    Zn1   S    
C23   H3    S    
O1    Zn1   S    
C18   C19   A    
C37   H5    S    
C21   N2    A    
C19   N1    A    
C8    C9    A    
C23   C33   S    
O5    Zn1   S    
O4    Zn2   S    
C10   H19   S    
C9    C10   A    
C21   H24   S    
C25   C34   S    
C30   H13   S    
C13   C14   A    
O8    Zn2   S    
C16   O6    A    
C14   C30   S    
C22   O7    A    
C4    O4    A    
H18   N3    S    
C1    O1    A    
C5    C29   S    
C13   C19   A    
C30   H10   S    
C16   O5    A    
C24   C25   S    
O7    Zn1   S    
C6    C11   A    
C4    O3    A    
C13   H21   S    
C29   H8    S    
C32   C34   S    
C24   C32   S    
C25   H1    S    
C11   C16   S    
C2    H6    S    
C17   C18   A    
C7    C37   A    
C31   C34   S    
C23   C28   S    
C31   H16   S    
C12   C35   S    
C22   C27   S    
C29   H7    S    
O2    Zn2   S    
C15   C17   A    
C24   H25   S    
C15   H22   S    
C24   C28   S    
C31   H14   S    
C3    C5    A    
C4    C26   S    
C6    C7    A    
C27   C36   T    
C12   C25   S    
C9    H4    S    
C29   H9    S    
C23   C32   S    
C20   N1    A    
C2    C3    A    
C12   C33   S    
O6    Zn2   S    
C2    C37   A    
C18   N2    A    
N1    Zn2   S    
C1    O2    A    
C33   C34   S    
C28   N3    S    
C10   C11   A    
C17   H23   S    
C26   C35   T    
C20   C21   A    
N2    Zn1   S    
C14   C15   A    
C22   O8    A    
C20   H20   S    
