data_mof_unit_4823.cif
_audit_creation_date              2012-12-11T15:27:21-0500
_audit_creation_method            fapswitch 2.2
_symmetry_space_group_name_H-M    P1
_symmetry_Int_Tables_number       1
_space_group_crystal_system       triclinic
_cell_length_a                    13.853871
_cell_length_b                    13.914335
_cell_length_c                    27.410668
_cell_angle_alpha                 90.07582
_cell_angle_beta                  90.071211
_cell_angle_gamma                 119.300362
_cell_volume                      4607.88103185

loop_
_atom_site_label
_atom_site_type_symbol
_atom_type_description
_atom_site_fract_x
_atom_site_fract_y
_atom_site_fract_z
_atom_type_partial_charge
C1    C     C_R   0.235370 0.786389 0.569131 0.535165
C2    C     C_1   0.694013 0.853871 0.861338 -0.085779
C3    C     C_1   0.144342 0.843656 0.860295 -0.084049
C4    C     C_1   0.117724 0.235861 0.851625 -0.085491
C5    C     C_1   0.602436 0.800576 0.662206 -0.053073
C6    C     C_1   0.190876 0.807736 0.660183 -0.054507
C7    C     C_1   0.189806 0.371410 0.657849 -0.051121
C8    C     C_1   0.583661 0.786829 0.619252 -0.022582
C9    C     C_1   0.207212 0.800543 0.617631 -0.026075
C10   C     C_1   0.199292 0.401847 0.616344 -0.021825
C11   C     C_R   0.070898 0.162488 0.941617 0.562980
C12   C     C_R   0.213881 0.448432 0.568969 0.539507
C13   C     C_R   0.778604 0.886597 0.949458 0.548477
C14   C     C_R   0.113818 0.892825 0.949323 0.543853
C15   C     C_R   0.617670 0.805979 0.386252 -0.003840
C16   C     C_R   0.199190 0.804563 0.383019 -0.008584
C17   C     C_R   0.185113 0.380945 0.385965 -0.001882
C18   C     C_R   0.635752 0.905313 0.365162 -0.138838
C19   C     C_R   0.100157 0.723063 0.362067 -0.146890
C20   C     C_R   0.245896 0.330758 0.370214 -0.144966
C21   C     C_R   0.673948 0.930635 0.317469 -0.162255
C22   C     C_R   0.079771 0.727310 0.312711 -0.163003
C23   C     C_R   0.548836 0.763154 0.569746 0.537131
C24   C     C_R   0.222060 0.276993 0.325101 -0.159138
C25   C     C_R   0.695346 0.857563 0.290527 0.050384
C26   C     C_R   0.157798 0.812956 0.284028 0.031781
C27   C     C_R   0.137541 0.273020 0.295178 0.052199
C28   C     C_R   0.234306 0.786773 0.430925 0.541323
C29   C     C_R   0.212397 0.446368 0.431036 0.544950
C30   C     C_R   0.554230 0.766179 0.431469 0.546128
C31   C     C_R   0.684256 0.760978 0.312617 0.145291
C32   C     C_R   0.256247 0.897234 0.304848 0.152884
C33   C     C_R   0.075305 0.322402 0.311403 0.144188
C34   C     C_3   0.658642 0.726461 0.790162 0.047447
C35   C     C_R   0.645549 0.736266 0.360316 -0.113110
C36   C     C_R   0.275151 0.892800 0.354406 -0.088529
C37   C     C_R   0.099891 0.375696 0.356382 -0.108008
C38   C     C_R   0.810738 0.869202 0.220066 -0.098970
C39   C     C_R   0.113402 0.906040 0.220026 -0.128036
C40   C     C_R   0.014897 0.161137 0.226768 -0.087830
C41   C     C_R   0.824101 0.866870 0.170337 -0.124460
C42   C     C_R   0.111084 0.929377 0.171357 -0.125630
C43   C     C_R   0.998269 0.141025 0.176990 -0.147237
C44   C     C_R   0.668988 0.898623 0.156224 -0.146753
C45   C     C_3   0.269570 0.934737 0.788600 0.046062
C46   C     C_R   0.135761 0.774142 0.148389 -0.142295
C47   C     C_R   0.196643 0.239132 0.164186 -0.121886
C48   C     C_R   0.651897 0.895316 0.206606 -0.123508
C49   C     C_R   0.141468 0.752314 0.197724 -0.122697
C50   C     C_R   0.213108 0.264246 0.213821 -0.134878
C51   C     C_R   0.721552 0.877919 0.238542 0.041883
C52   C     C_R   0.132408 0.820088 0.233294 0.020623
C53   C     C_R   0.121954 0.228221 0.245212 0.042150
C54   C     C_R   0.753170 0.880692 0.138151 0.027065
C55   C     C_R   0.123664 0.864897 0.135491 0.038617
C56   C     C_3   0.049412 0.307095 0.783130 0.045562
C57   C     C_R   0.088613 0.180367 0.145351 0.009298
C58   C     C_R   0.067265 0.153986 0.093449 0.561587
C59   C     C_R   0.778382 0.885318 0.086581 0.532071
C60   C     C_R   0.116420 0.892452 0.085361 0.530005
C61   C     C_3   0.525695 0.810235 0.743222 -0.282805
C62   C     C_3   0.183553 0.722099 0.740509 -0.281210
C63   C     C_3   0.270674 0.418263 0.741498 -0.284755
C64   C     C_3   0.728157 0.928372 0.725527 0.194957
C65   C     C_3   0.063472 0.807544 0.724793 0.190976
C66   C     C_3   0.165172 0.220944 0.714525 0.198646
C67   C     C_3   0.642785 0.719853 0.733787 -0.155827
C68   C     C_3   0.760135 0.934163 0.780088 -0.151923
C69   C     C_3   0.060351 0.833393 0.779701 -0.151264
C70   C     C_3   0.126017 0.177741 0.766983 -0.156764
C71   C     C_1   0.726899 0.869159 0.902753 -0.034348
C72   C     C_1   0.130682 0.860158 0.902121 -0.031743
C73   C     C_1   0.098555 0.203322 0.892972 -0.026642
C74   C     C_3   0.624575 0.814705 0.714761 0.061619
C75   C     C_3   0.177402 0.816314 0.712854 0.061729
C76   C     C_3   0.173491 0.336309 0.708899 0.059954
C77   C     C_3   0.555528 0.833243 0.798292 -0.268049
C78   C     C_3   0.272626 0.927619 0.731917 -0.158106
C79   C     C_3   0.161946 0.727602 0.795768 -0.268053
C80   C     C_3   0.253136 0.373720 0.794583 -0.264254
C81   C     C_3   0.667652 0.836948 0.808995 0.031777
C82   C     C_3   0.159062 0.835383 0.807626 0.032413
C83   C     C_3   0.135465 0.272140 0.800517 0.027087
C84   C     C_3   0.737815 0.603307 0.798743 -0.339214
C85   C     C_3   0.392653 0.135081 0.796335 -0.343672
C86   C     C_3   0.853222 0.258600 0.786573 -0.341630
C87   C     C_3   0.787077 0.663146 0.302221 -0.324067
C88   C     C_3   0.360561 0.091566 0.284187 -0.320186
C89   C     C_3   0.066468 0.333472 0.727630 -0.157417
C90   C     C_3   0.884005 0.275155 0.298505 -0.326181
C91   C     C_3   0.838350 0.023309 0.659130 -0.088566
C92   C     C_3   0.962266 0.825354 0.660933 -0.089765
C93   C     C_3   0.147945 0.121647 0.643350 -0.105273
Cr1   Cr    Cr6+3 0.164410 0.584450 0.499910 1.009226
Cr2   Cr    Cr6+3 0.415550 0.579960 0.499910 1.011298
Cr3   Cr    Cr6+3 0.420040 0.835590 0.499910 1.009037
Cr4   Cr    Cr6+3 0.156760 0.076070 0.017830 1.018489
Cr5   Cr    Cr6+3 0.923930 0.080690 0.017830 1.012870
Cr6   Cr    Cr6+3 0.919310 0.843240 0.017830 1.011202
H1    H     H_    0.561144 0.913217 0.808643 0.116399
H2    H     H_    0.614750 0.960529 0.384463 0.133927
H3    H     H_    0.040686 0.653639 0.383258 0.129421
H4    H     H_    0.312693 0.334749 0.392259 0.123566
H5    H     H_    0.868173 0.860849 0.244088 0.129796
H6    H     H_    0.104768 0.957581 0.247402 0.113116
H7    H     H_    0.943621 0.128566 0.250540 0.135921
H8    H     H_    0.891567 0.856288 0.156770 0.134192
H9    H     H_    0.098449 0.997377 0.161470 0.109942
H10   H     H_    0.914706 0.095224 0.163048 0.126555
H11   H     H_    0.682909 0.005220 0.300922 0.104794
H12   H     H_    0.081688 0.654864 0.805993 0.117386
H13   H     H_    0.003879 0.663284 0.296700 0.105872
H14   H     H_    0.271439 0.240822 0.313026 0.097411
H15   H     H_    0.582790 0.902878 0.220549 0.118422
H16   H     H_    0.156630 0.685797 0.208147 0.117237
H17   H     H_    0.296543 0.315847 0.227248 0.106646
H18   H     H_    0.615540 0.912029 0.131608 0.106423
H19   H     H_    0.143469 0.722836 0.120645 0.105846
H20   H     H_    0.267907 0.268862 0.140430 0.134224
H21   H     H_    0.504360 0.872078 0.728579 0.106508
H22   H     H_    0.121474 0.640392 0.725644 0.107820
H23   H     H_    0.316975 0.349936 0.803547 0.118574
H24   H     H_    0.350907 0.429818 0.727315 0.106912
H25   H     H_    0.630643 0.658611 0.375795 0.133444
H26   H     H_    0.353461 0.954572 0.369562 0.142623
H27   H     H_    0.054869 0.417719 0.367054 0.134335
H28   H     H_    0.704075 0.993688 0.720007 0.087270
H29   H     H_    0.997997 0.719606 0.719176 0.085698
H30   H     H_    0.250712 0.232184 0.711037 0.088755
H31   H     H_    0.773065 0.013155 0.795710 0.092246
H32   H     H_    0.980896 0.770142 0.795646 0.095850
H33   H     H_    0.177296 0.143430 0.781680 0.117499
H34   H     H_    0.451276 0.727606 0.738732 0.116321
H35   H     H_    0.839717 0.933302 0.783970 0.170648
H36   H     H_    0.062796 0.914111 0.784128 0.169414
H37   H     H_    0.038958 0.109143 0.766423 0.186242
H38   H     H_    0.570616 0.638647 0.724052 0.071164
H39   H     H_    0.354198 0.937432 0.720738 0.071193
H40   H     H_    0.070524 0.414370 0.721115 0.072155
H41   H     H_    0.716015 0.724257 0.715275 0.166141
H42   H     H_    0.264994 0.995960 0.714725 0.165575
H43   H     H_    0.995152 0.271235 0.706264 0.161889
H44   H     H_    0.583496 0.657672 0.807199 0.129546
H45   H     H_    0.266607 0.729538 0.735387 0.119302
H46   H     H_    0.339428 0.926227 0.804204 0.129791
H47   H     H_    0.066961 0.383606 0.803365 0.131132
H48   H     H_    0.794596 0.751621 0.834887 0.263569
H49   H     H_    0.816110 0.603013 0.806959 0.132524
H50   H     H_    0.711678 0.570891 0.761185 0.138266
H51   H     H_    0.673951 0.548123 0.825159 0.139018
H52   H     H_    0.251701 0.044360 0.836934 0.264211
H53   H     H_    0.391557 0.212264 0.805552 0.135158
H54   H     H_    0.419482 0.140825 0.757812 0.138479
H55   H     H_    0.453131 0.127826 0.820558 0.139086
H56   H     H_    0.275318 0.500451 0.741175 0.117988
H57   H     H_    0.922938 0.180960 0.824930 0.256788
H58   H     H_    0.769068 0.187633 0.792269 0.130907
H59   H     H_    0.856349 0.290618 0.749216 0.139318
H60   H     H_    0.867376 0.323654 0.813700 0.137497
H61   H     H_    0.626003 0.609817 0.279674 0.251276
H62   H     H_    0.801851 0.612857 0.274884 0.145196
H63   H     H_    0.764104 0.617858 0.337393 0.127388
H64   H     H_    0.865030 0.742424 0.307123 0.155086
H65   H     H_    0.340779 0.962431 0.239348 0.263574
H66   H     H_    0.433516 0.150752 0.262764 0.140315
H67   H     H_    0.488286 0.767929 0.820500 0.117379
H68   H     H_    0.377650 0.114253 0.323346 0.142849
H69   H     H_    0.287579 0.098307 0.272242 0.140295
H70   H     H_    0.021749 0.408683 0.268836 0.251453
H71   H     H_    0.827063 0.270268 0.268879 0.146787
H72   H     H_    0.875762 0.322270 0.329439 0.128144
H73   H     H_    0.859226 0.190090 0.310696 0.149108
H74   H     H_    0.871085 0.106333 0.675470 0.143609
H75   H     H_    0.762647 0.002996 0.637663 0.087696
H76   H     H_    0.900282 0.025197 0.633169 0.161059
H77   H     H_    0.881533 0.772369 0.678792 0.133927
H78   H     H_    0.227982 0.723618 0.817366 0.117907
H79   H     H_    0.983640 0.774832 0.636456 0.091517
H80   H     H_    0.953329 0.885714 0.637896 0.160865
H81   H     H_    0.187203 0.075308 0.658712 0.155071
H82   H     H_    0.211799 0.197942 0.625393 0.096779
H83   H     H_    0.088665 0.070102 0.614682 0.125617
H84   H     H_    0.264669 0.440407 0.820364 0.122171
N1    N     N_2   0.754674 0.714370 0.802890 -0.527522
N2    N     N_2   0.283103 0.041661 0.803238 -0.538912
N3    N     N_2   0.935009 0.223141 0.792659 -0.530788
N4    N     N_2   0.699039 0.682301 0.285124 -0.516576
N5    N     N_2   0.341245 0.980899 0.275810 -0.523277
N6    N     N_2   0.996474 0.329349 0.280363 -0.518880
O1    O     O_R   0.137310 0.468260 0.552980 -0.511334
O2    O     O_R   0.139940 0.470480 0.446230 -0.525530
O3    O     O_R   0.529520 0.669460 0.446230 -0.523892
O4    O     O_R   0.330540 0.860060 0.446230 -0.525106
O5    O     O_R   0.176560 0.690850 0.450770 -0.503006
O6    O     O_R   0.309150 0.485710 0.450770 -0.499461
O7    O     O_R   0.514290 0.823440 0.450770 -0.501382
O8    O     O_3   0.333333 0.666667 0.499990 -0.261963
O9    O     O_3   0.000000 0.000000 0.017910 -0.270706
O10   O     O_R   0.149710 0.171070 0.967700 -0.478164
O11   O     O_R   0.828930 0.978640 0.967700 -0.517435
O12   O     O_R   0.531740 0.669050 0.552980 -0.513941
O13   O     O_R   0.021360 0.850290 0.967700 -0.496318
O14   O     O_R   0.178510 0.985930 0.071830 -0.521884
O15   O     O_R   0.014070 0.192580 0.071830 -0.487904
O16   O     O_R   0.807420 0.821490 0.071830 -0.505137
O17   O     O_R   0.147830 0.173300 0.066650 -0.485962
O18   O     O_R   0.826700 0.974530 0.066650 -0.520227
O19   O     O_R   0.025470 0.852170 0.066650 -0.498030
O20   O     O_3   0.818809 0.944498 0.695784 -0.553537
O21   O     O_3   0.045751 0.882466 0.696101 -0.554409
O22   O     O_3   0.090296 0.144667 0.679977 -0.553394
O23   O     O_R   0.330950 0.862690 0.552980 -0.511923
O24   O     O_R   0.180530 0.983530 0.965090 -0.519215
O25   O     O_R   0.016470 0.197000 0.965090 -0.494200
O26   O     O_R   0.803000 0.819470 0.965090 -0.505423
O27   O     O_R   0.174120 0.688790 0.549730 -0.501718
O28   O     O_R   0.311210 0.485330 0.549730 -0.504340
O29   O     O_R   0.514670 0.825880 0.549730 -0.501976

loop_
_geom_bond_atom_site_label_1
_geom_bond_atom_site_label_2
_ccdc_geom_bond_type
H48   N1    S    
C25   C31   A    
C15   C18   A    
C87   H64   S    
C16   C28   S    
Cr3   O23   S    
C13   O11   A    
C7    C10   T    
C18   C21   A    
C17   C29   S    
Cr4   O10   S    
C92   O21   S    
C36   H26   S    
C24   C27   A    
H70   N6    S    
C91   O20   S    
C8    C23   S    
C6    C9    T    
C25   C51   S    
C21   H11   S    
C61   H34   S    
C6    C75   S    
C20   H4    S    
C80   H23   S    
C27   C33   A    
C26   C32   A    
C46   C49   A    
C91   H74   S    
Cr6   O16   S    
C45   H46   S    
C68   C81   S    
C64   C68   S    
Cr5   O15   S    
C35   H25   S    
C70   H33   S    
C19   H3    S    
Cr3   O29   S    
C45   C82   S    
C63   C76   S    
C58   O17   A    
C89   H43   S    
C17   C20   A    
C46   H19   S    
C77   H1    S    
C33   N6    S    
C80   H84   S    
C5    C74   S    
Cr1   O2    S    
C38   H5    S    
C69   C82   S    
C48   H15   S    
C93   H82   S    
C40   C43   A    
C30   O7    A    
C20   C24   A    
C61   C77   S    
C89   H40   S    
C46   C55   A    
C93   O22   S    
C28   O5    A    
C79   H78   S    
C34   N1    S    
C45   C78   S    
C34   C81   S    
C30   O3    A    
Cr4   O17   S    
C39   C42   A    
C86   H60   S    
C69   H32   S    
C76   C89   S    
C54   C59   S    
C66   H30   S    
C84   H50   S    
C88   H68   S    
C47   H20   S    
C39   C52   A    
Cr5   O25   S    
C23   O29   A    
C58   O15   A    
C24   H14   S    
C69   H36   S    
Cr4   O24   S    
C55   C60   S    
C1    O23   A    
C70   H37   S    
C88   N5    S    
Cr4   O14   S    
C80   C83   S    
C67   H38   S    
C78   H39   S    
C15   C35   A    
C75   C78   S    
C93   H81   S    
C47   C50   A    
C11   O10   A    
C63   C80   S    
C84   H49   S    
C85   N2    S    
Cr3   O8    S    
C34   H44   S    
C48   C51   A    
C50   C53   A    
Cr5   O9    S    
C56   C83   S    
C65   H29   S    
C62   C79   S    
C84   N1    S    
C19   C22   A    
C1    C9    S    
C38   C41   A    
C11   C73   S    
C78   H42   S    
C62   H45   S    
C32   N5    S    
C60   O19   A    
C87   N4    S    
C38   C51   A    
C13   C71   S    
C88   H69   S    
C77   H67   S    
C29   O6    A    
C79   H12   S    
C92   H77   S    
C14   O24   A    
C18   H2    S    
C90   H72   S    
Cr1   O1    S    
C70   C83   S    
C92   H80   S    
C26   C52   S    
C42   C55   A    
C47   C57   A    
C93   H83   S    
C60   O14   A    
C77   C81   S    
Cr2   O8    S    
C64   H28   S    
C66   C76   S    
C90   H71   S    
C3    C82   S    
C29   O2    A    
C28   O4    A    
C4    C73   T    
C91   H76   S    
C67   C74   S    
C85   H54   S    
C68   H31   S    
C67   H41   S    
C86   H59   S    
C65   O21   S    
C10   C12   S    
Cr2   O3    S    
C92   H79   S    
Cr3   O4    S    
C87   H62   S    
C23   O12   A    
C86   N3    S    
C22   H13   S    
Cr6   O13   S    
C31   C35   A    
C64   O20   S    
C5    C8    T    
C17   C37   A    
C90   H73   S    
C2    C71   T    
C32   C36   A    
C12   O28   A    
C15   C30   S    
C40   H7    S    
C37   H27   S    
C59   O18   A    
H52   N2    S    
C21   C25   A    
C56   C89   S    
Cr2   O6    S    
C41   H8    S    
C49   H16   S    
Cr1   O5    S    
C14   C72   S    
Cr4   O9    S    
C39   H6    S    
C49   C52   A    
C56   N3    S    
H65   N5    S    
C34   C67   S    
C79   C82   S    
C63   H24   S    
C27   C53   S    
C7    C76   S    
C1    O27   A    
H57   N3    S    
C61   C74   S    
Cr2   O12   S    
C12   O1    A    
Cr1   O27   S    
C65   C75   S    
Cr5   O11   S    
Cr6   O19   S    
Cr1   O8    S    
C13   O26   A    
C68   H35   S    
C3    C72   T    
C85   H53   S    
C63   H56   S    
C16   C36   A    
C45   N2    S    
C57   C58   S    
C66   C70   S    
C4    C83   S    
Cr6   O26   S    
C44   H18   S    
C16   C19   A    
C65   C69   S    
C14   O13   A    
Cr6   O9    S    
Cr2   O28   S    
C50   H17   S    
C85   H55   S    
C62   H22   S    
C56   H47   S    
Cr5   O18   S    
C86   H58   S    
C33   C37   A    
C41   C54   A    
C43   C57   A    
C11   O25   A    
C40   C53   A    
C44   C54   A    
Cr3   O7    S    
C87   H63   S    
C91   H75   S    
C88   H66   S    
C22   C26   A    
C31   N4    S    
C64   C74   S    
C2    C81   S    
C43   H10   S    
H61   N4    S    
C66   O22   S    
C42   H9    S    
C59   O16   A    
C62   C75   S    
C44   C48   A    
C61   H21   S    
C90   N6    S    
C84   H51   S    
