data_mof_unit_1411.cif
_audit_creation_date              2012-12-10T17:28:32-0500
_audit_creation_method            fapswitch 2.2
_symmetry_space_group_name_H-M    P1
_symmetry_Int_Tables_number       1
_space_group_crystal_system       triclinic
_cell_length_a                    10.619247
_cell_length_b                    11.934555
_cell_length_c                    12.904048
_cell_angle_alpha                 92.981966
_cell_angle_beta                  90.051717
_cell_angle_gamma                 85.933143
_cell_volume                      1629.07405766

loop_
_atom_site_label
_atom_site_type_symbol
_atom_type_description
_atom_site_fract_x
_atom_site_fract_y
_atom_site_fract_z
_atom_type_partial_charge
C1    C     C_R   0.498407 0.521802 0.700577 0.888374
C2    C     C_R   0.495659 0.562650 0.132168 -0.241620
C3    C     C_R   0.503812 0.446134 0.974410 0.171826
C4    C     C_R   0.496185 0.553865 0.025590 0.171825
C5    C     C_R   0.373218 0.957311 0.411178 -0.322308
C6    C     C_R   0.626782 0.042689 0.588822 -0.322279
C7    C     C_R   0.386742 0.840301 0.418364 0.749921
C8    C     C_R   0.613258 0.159699 0.581636 0.749917
C9    C     C_R   0.556341 0.856618 0.536874 -0.106920
C10   C     C_R   0.443659 0.143381 0.463126 -0.106928
C11   C     C_R   0.546520 0.974588 0.531828 0.026199
C12   C     C_R   0.501592 0.478198 0.299423 0.888370
C13   C     C_R   0.453480 0.025412 0.468172 0.026184
C14   C     C_R   0.739820 0.497822 0.484150 0.884424
C15   C     C_R   0.260179 0.502178 0.515848 0.884425
C16   C     C_R   0.906945 0.286632 0.456591 -0.178820
C17   C     C_R   0.093055 0.713370 0.543418 -0.178824
C18   C     C_R   0.971479 0.189446 0.490387 -0.191584
C19   C     C_R   0.028515 0.810559 0.509634 -0.191594
C20   C     C_R   0.078652 0.197906 0.551447 0.654423
C21   C     C_R   0.921335 0.802105 0.448582 0.654408
C22   C     C_R   0.126326 0.302656 0.571832 -0.226722
C23   C     C_R   0.502606 0.465429 0.188246 -0.061082
C24   C     C_R   0.873665 0.697355 0.428187 -0.226719
C25   C     C_R   0.067377 0.400775 0.530411 -0.004973
C26   C     C_R   0.932619 0.599231 0.469596 -0.004965
C27   C     C_R   0.949091 0.394293 0.483892 0.092606
C28   C     C_R   0.050908 0.605711 0.516112 0.092615
C29   C     C_R   0.124070 0.504525 0.532478 -0.194580
C30   C     C_R   0.875929 0.495478 0.467523 -0.194577
C31   C     C_R   0.497393 0.534571 0.811754 -0.061083
C32   C     C_R   0.489184 0.651207 0.969541 -0.196254
C33   C     C_R   0.510814 0.348793 0.030459 -0.196253
C34   C     C_R   0.489788 0.641573 0.862249 -0.198853
C35   C     C_R   0.510210 0.358427 0.137750 -0.198854
C36   C     C_R   0.504339 0.437350 0.867832 -0.241619
F1    F     F_    0.861459 0.895708 0.411288 -0.688977
F2    F     F_    0.138521 0.104308 0.588756 -0.688967
F3    F     F_    0.690737 0.225299 0.637192 -0.652628
F4    F     F_    0.309263 0.774701 0.362809 -0.652628
H1    H     H_    0.300795 0.994140 0.361628 0.176160
H2    H     H_    0.510227 0.354337 0.828902 0.183860
H3    H     H_    0.515575 0.282764 0.180891 0.168190
H4    H     H_    0.484423 0.717236 0.819109 0.168190
H5    H     H_    0.483316 0.734109 0.008505 0.151504
H6    H     H_    0.516682 0.265891 0.991495 0.151505
H7    H     H_    0.373194 0.184039 0.414257 0.158874
H8    H     H_    0.626806 0.815961 0.585743 0.158875
H9    H     H_    0.699205 0.005859 0.638372 0.176163
H10   H     H_    0.824840 0.276770 0.408118 0.174108
H11   H     H_    0.175165 0.723229 0.591885 0.174112
H12   H     H_    0.936681 0.107929 0.470969 0.207920
H13   H     H_    0.063313 0.892075 0.529058 0.207915
H14   H     H_    0.208826 0.306484 0.620859 0.178559
H15   H     H_    0.791164 0.693532 0.379160 0.178564
H16   H     H_    0.489771 0.645663 0.171098 0.183860
N1    N     N_R   0.523130 0.207800 0.519340 -0.161591
N2    N     N_R   0.476870 0.792200 0.480660 -0.161595
O1    O     O_R   0.506170 0.421700 0.658830 -0.587224
O2    O     O_R   0.493830 0.578300 0.341170 -0.587225
O3    O     O_R   0.491330 0.609310 0.646410 -0.643562
O4    O     O_R   0.508670 0.390690 0.353590 -0.643563
O5    O     O_R   0.690650 0.406190 0.506220 -0.565801
O6    O     O_R   0.309350 0.593810 0.493780 -0.565804
O7    O     O_R   0.675800 0.593810 0.493800 -0.633633
O8    O     O_R   0.324200 0.406190 0.506200 -0.633629
Zn1   Zn    Zn3+2 0.509910 0.374730 0.508290 0.990184
Zn2   Zn    Zn3+2 0.490090 0.625270 0.491710 0.990181

loop_
_geom_bond_atom_site_label_1
_geom_bond_atom_site_label_2
_ccdc_geom_bond_type
C20   F2    S    
C2    C4    A    
C15   O6    A    
C15   C29   S    
C19   C21   A    
C8    F3    S    
C8    N1    A    
C25   C27   A    
C12   O4    A    
C32   H5    S    
C7    N2    A    
C36   H2    S    
C12   C23   S    
C7    F4    S    
O7    Zn2   S    
O1    Zn1   S    
C35   H3    S    
C19   H13   S    
C16   C27   A    
O8    Zn1   S    
C31   C34   A    
C18   H12   S    
C22   H14   S    
C2    H16   S    
C26   C28   A    
C24   H15   S    
C33   H6    S    
C11   C13   A    
O3    Zn2   S    
C9    C11   A    
C4    C32   A    
C3    C36   A    
N1    Zn1   S    
C6    C11   A    
C14   O5    A    
O6    Zn2   S    
N2    Zn2   S    
C28   C29   A    
C17   C19   A    
C14   O7    A    
C16   H10   S    
C26   C30   A    
C18   C20   A    
C1    O1    A    
C6    H9    S    
C25   C29   A    
C23   C35   A    
O5    Zn1   S    
C10   H7    S    
O4    Zn1   S    
C3    C33   A    
C3    C4    A    
C12   O2    A    
C1    C31   S    
C10   N1    A    
C21   F1    S    
O2    Zn2   S    
C9    H8    S    
C16   C18   A    
C9    N2    A    
C21   C24   A    
C2    C23   A    
C5    C7    A    
C34   H4    S    
C5    H1    S    
C31   C36   A    
C6    C8    A    
C17   H11   S    
C33   C35   A    
C32   C34   A    
C14   C30   S    
C15   O8    A    
C5    C13   A    
C10   C13   A    
C24   C26   A    
C17   C28   A    
C20   C22   A    
C27   C30   A    
C22   C25   A    
C1    O3    A    
