data_mof_unit_267.cif
_audit_creation_date              2013-03-05T15:41:37-0500
_audit_creation_method            fapswitch 2.2
_symmetry_space_group_name_H-M    P1
_symmetry_Int_Tables_number       1
_space_group_crystal_system       triclinic
_cell_length_a                    7.862529
_cell_length_b                    8.581589
_cell_length_c                    15.734892
_cell_angle_alpha                 91.306744
_cell_angle_beta                  86.169658
_cell_angle_gamma                 93.140131
_cell_volume                      1057.5228684

loop_
_atom_site_label
_atom_site_type_symbol
_atom_site_description
_atom_site_fract_x
_atom_site_fract_y
_atom_site_fract_z
_atom_type_partial_charge
O1    O     O_R   0.389240 0.738570 0.505550 -0.551040
O2    O     O_R   0.678400 0.711630 0.491050 -0.557828
C1    C     C_R   0.544803 0.794171 0.500452 0.875220
O3    O     O_R   0.355360 0.513470 0.630110 -0.588594
O4    O     O_R   0.644510 0.486530 0.615610 -0.561736
C2    C     C_R   0.502622 0.500593 0.661150 0.840156
Zn1   Zn    Zn3+2 0.306930 0.517990 0.509680 1.253772
Zn2   Zn    Zn3+2 0.693070 0.482010 0.490320 1.240553
O5    O     O_R   0.321600 0.288370 0.508950 -0.536894
O6    O     O_R   0.610760 0.261430 0.494450 -0.616628
O7    O     O_R   0.355490 0.513470 0.384390 -0.569243
O8    O     O_R   0.644640 0.486530 0.369890 -0.574941
C3    C     C_R   0.455547 0.206469 0.504653 0.836584
C4    C     C_R   0.497490 0.499571 0.338852 0.847319
C5    C     C_3   0.406613 0.647574 0.953255 0.537149
C6    C     C_3   0.698665 0.527207 0.944678 1.036178
C7    C     C_3   0.697567 0.524928 0.047339 0.203259
C8    C     C_1   0.492120 0.500137 0.250433 0.063223
C9    C     C_3   0.511619 0.505985 0.916445 -0.601381
C10   C     C_3   0.401644 0.646057 0.054106 0.563501
C11   C     C_3   0.500403 0.502203 0.083026 -0.600290
C12   C     C_3   0.421299 0.338695 0.048583 0.583550
C13   C     C_3   0.434236 0.341349 0.948112 0.594347
C14   C     C_1   0.492841 0.500956 0.175135 0.356218
C15   C     C_1   0.513660 0.504840 0.824583 0.354156
C16   C     C_1   0.509617 0.502804 0.749526 0.046403
C17   C     C_2   0.565777 0.956320 0.516025 -0.062384
C18   C     C_2   0.433278 0.043698 0.501968 0.416051
N1    N     N_2   0.950340 0.457950 0.477370 0.278980
N2    N     N_2   0.049660 0.542050 0.522630 0.283112
F1    F     F_    0.482764 0.780941 0.085321 -0.533543
F2    F     F_    0.242924 0.629561 0.926153 -0.525688
N3    N     N_R   0.226247 0.646014 0.093350 0.277428
O9    O     O_R   0.103462 0.558810 0.063594 -0.265813
O10   O     O_R   0.190304 0.739236 0.157730 -0.188306
F3    F     F_    0.520731 0.221612 0.073743 -0.490237
N4    N     N_R   0.715350 0.015779 0.557320 0.220817
O11   O     O_R   0.866742 0.978342 0.528124 -0.196948
O12   O     O_R   0.698626 0.092671 0.629414 -0.304627
F4    F     F_    0.284459 0.984542 0.470965 -0.552552
F5    F     F_    0.028813 0.360086 0.422532 -0.483685
F6    F     F_    0.971131 0.639510 0.577672 -0.481087
N5    N     N_R   0.475179 0.797981 0.916343 0.300835
O13   O     O_R   0.421618 0.840906 0.844361 -0.218732
O14   O     O_R   0.588182 0.889665 0.952025 -0.097233
F7    F     F_    0.795582 0.413393 0.905060 -0.472607
F8    F     F_    0.772433 0.662415 0.909197 -0.531357
N6    N     N_R   0.777364 0.672992 0.083040 0.301826
O15   O     O_R   0.779172 0.694940 0.165145 -0.258589
O16   O     O_R   0.866029 0.775064 0.036073 -0.098858
N7    N     N_R   0.794422 0.394551 0.078008 0.301918
O17   O     O_R   0.837321 0.275749 0.029980 -0.079522
O18   O     O_R   0.826770 0.390143 0.157988 -0.240713
N8    N     N_R   0.273207 0.293863 0.908638 0.239661
O19   O     O_R   0.131369 0.360237 0.928721 -0.180821
O20   O     O_R   0.270826 0.179274 0.852973 -0.185579
F9    F     F_    0.549035 0.230151 0.920287 -0.468178
N9    N     N_R   0.248269 0.290385 0.084807 0.253873
O21   O     O_R   0.195807 0.337139 0.160856 -0.281387
O22   O     O_R   0.179373 0.158451 0.057868 -0.149067

loop_
_geom_bond_atom_site_label_1
_geom_bond_atom_site_label_2
_geom_bond_distance
_ccdc_geom_bond_type
C12   N9    1.480863 S    
O4    Zn2   1.982766 S    
C9    C13   1.584938 S    
N5    O13   1.302165 A    
C3    C18   1.398251 S    
N4    O11   1.301240 A    
N1    N2    1.275526 D    
C12   F3    1.386727 S    
C4    C8    1.394848 S    
C7    N6    1.500296 S    
Zn2   O8    1.959266 S    
C7    N7    1.493877 S    
C13   F9    1.392657 S    
C1    C17   1.410036 S    
O2    C1    1.297290 A    
N9    O21   1.301285 A    
C5    N5    1.486637 S    
C5    F2    1.382271 S    
N4    O12   1.301920 A    
Zn1   N2    2.040738 S    
O1    Zn1   1.967740 S    
C11   C12   1.601296 S    
C5    C9    1.583478 S    
O4    C2    1.294835 A    
N5    O14   1.301385 A    
C2    C16   1.394998 S    
C17   N4    1.444586 S    
O3    Zn1   1.959267 S    
C8    C14   1.184623 T    
Zn2   N1    2.040738 S    
C6    F8    1.380916 S    
N6    O16   1.301227 A    
N6    O15   1.302215 A    
N3    O10   1.302152 A    
O8    C4    1.296835 A    
Zn1   O7    1.982766 S    
C6    C9    1.564483 S    
C5    C10   1.585079 S    
C9    C15   1.444267 S    
O7    C4    1.295372 A    
N8    O20   1.302074 A    
C10   N3    1.472862 S    
N7    O18   1.302254 A    
N9    O22   1.302528 A    
N7    O17   1.301054 A    
N3    O9    1.294802 A    
C10   C11   1.584883 S    
C13   N8    1.480495 S    
O3    C2    1.297467 A    
C11   C14   1.446836 S    
C6    F7    1.383301 S    
C17   C18   1.349222 D    
Zn1   O5    1.979903 S    
O5    C3    1.295036 A    
N8    O19   1.297024 A    
N2    F6    1.335261 S    
N1    F5    1.335339 S    
C15   C16   1.183261 T    
C12   C13   1.577972 S    
O6    C3    1.285201 A    
Zn2   O6    1.967739 S    
O2    Zn2   1.979904 S    
C18   F4    1.365536 S    
C6    C7    1.615371 S    
O1    C1    1.286397 A    
C10   F1    1.386700 S    
C7    C11   1.616184 S    
