data_mof_unit_326.cif
_audit_creation_date              2012-12-10T17:49:34-0500
_audit_creation_method            fapswitch 2.2
_symmetry_space_group_name_H-M    P1
_symmetry_Int_Tables_number       1
_space_group_crystal_system       triclinic
_cell_length_a                    10.493748
_cell_length_b                    10.617128
_cell_length_c                    9.940363
_cell_angle_alpha                 89.941292
_cell_angle_beta                  90.196623
_cell_angle_gamma                 91.578181
_cell_volume                      1107.06319603

loop_
_atom_site_label
_atom_site_type_symbol
_atom_type_description
_atom_site_fract_x
_atom_site_fract_y
_atom_site_fract_z
_atom_type_partial_charge
C1    C     C_R   0.503253 0.260813 0.500157 0.871393
C2    C     C_3   0.959644 0.602100 0.439510 -0.205751
C3    C     C_3   0.041028 0.501273 0.371240 -0.205086
C4    C     C_3   0.122754 0.498457 0.498928 0.037145
C5    C     C_R   0.719450 0.136880 0.620144 -0.114579
C6    C     C_R   0.821885 0.073739 0.675752 -0.149352
C7    C     C_R   0.822732 0.942666 0.673775 -0.145769
C8    C     C_R   0.720998 0.874300 0.616473 -0.192932
C9    C     C_R   0.615916 0.936952 0.560449 0.087749
C10   C     C_R   0.615393 0.068965 0.561640 0.115445
C11   C     C_R   0.511689 0.128689 0.500234 -0.064019
C12   C     C_R   0.257660 0.499844 0.499677 0.847497
C13   C     C_R   0.413438 0.062060 0.435584 -0.225178
C14   C     C_R   0.413505 0.933388 0.435380 -0.200157
C15   C     C_R   0.512087 0.871888 0.499346 -0.092510
C16   C     C_R   0.331561 0.336516 0.139394 -0.155788
C17   C     C_R   0.247975 0.256503 0.069178 -0.200434
C18   C     C_R   0.248084 0.256279 0.929894 -0.188946
C19   C     C_R   0.331777 0.336086 0.859944 -0.145342
C20   C     C_R   0.417088 0.419349 0.927593 0.167533
C21   C     C_R   0.417038 0.419479 0.072033 0.175971
C22   C     C_R   0.579516 0.576913 0.071600 -0.096596
C23   C     C_R   0.503531 0.739331 0.499879 0.858749
C24   C     C_R   0.579471 0.576906 0.928667 -0.115527
C25   C     C_R   0.742320 0.498367 0.500264 0.878125
C26   C     C_3   0.041327 0.391639 0.560096 -0.274528
C27   C     C_3   0.957066 0.395891 0.433422 0.035658
C28   C     C_3   0.877287 0.495656 0.500549 0.016091
C29   C     C_3   0.959820 0.492692 0.628002 -0.153560
C30   C     C_3   0.044308 0.599335 0.566838 -0.152678
H1    H     H_    0.902871 0.893804 0.715801 0.132026
H2    H     H_    0.726645 0.772751 0.614607 0.138552
H3    H     H_    0.335306 0.881362 0.387607 0.149461
H4    H     H_    0.644574 0.639875 0.125236 0.145411
H5    H     H_    0.326505 0.330398 0.246082 0.192525
H6    H     H_    0.183019 0.193967 0.123383 0.139858
H7    H     H_    0.183178 0.193573 0.875490 0.140545
H8    H     H_    0.326936 0.329514 0.753247 0.199456
H9    H     H_    0.079044 0.306034 0.608697 0.122220
H10   H     H_    0.923262 0.489101 0.732668 0.150852
H11   H     H_    0.084802 0.682624 0.621159 0.130758
H12   H     H_    0.077640 0.504303 0.266544 0.151868
H13   H     H_    0.335294 0.109966 0.387734 0.130471
H14   H     H_    0.723985 0.238691 0.621304 0.154824
H15   H     H_    0.901375 0.126755 0.719295 0.128106
N1    N     N_R   0.498800 0.498800 0.142780 -0.118573
N2    N     N_R   0.498760 0.498720 0.857170 -0.121490
O1    O     O_R   0.500000 0.316780 0.614690 -0.654845
O2    O     O_R   0.499990 0.316750 0.385360 -0.596813
O3    O     O_R   0.313960 0.499980 0.614650 -0.633780
O4    O     O_R   0.313940 0.499960 0.385310 -0.652187
O5    O     O_R   0.500010 0.683250 0.614640 -0.615769
O6    O     O_R   0.500000 0.683220 0.385310 -0.615618
O7    O     O_R   0.686060 0.500040 0.614690 -0.649311
O8    O     O_R   0.686040 0.500020 0.385350 -0.579535
Zn1   Zn    Zn3+2 0.500010 0.500020 0.653130 0.926088
Zn2   Zn    Zn3+2 0.499990 0.499980 0.346870 0.962906
C31   C     C_2   0.913099 0.280884 0.357282 0.354520
H16   H     H_    0.983020 0.216790 0.319019 0.048220
O9    O     O_2   0.799991 0.258679 0.337416 -0.558775
H17   H     H_    0.644468 0.639892 0.875274 0.145147
H18   H     H_    0.922060 0.687740 0.390911 0.140260

loop_
_geom_bond_atom_site_label_1
_geom_bond_atom_site_label_2
_ccdc_geom_bond_type
C12   O3    A    
C1    O1    A    
C24   H17   S    
O4    Zn2   S    
C17   H6    S    
C4    C12   S    
C2    C28   S    
C9    C10   A    
C4    C26   S    
C19   C20   A    
C1    C11   S    
C13   H13   S    
C2    C30   S    
C14   H3    S    
C15   C23   S    
C17   C18   A    
C23   O5    A    
C4    C30   S    
C7    C8    A    
C3    H12   S    
C21   N1    A    
C13   C14   A    
C20   C21   A    
C25   C28   S    
C11   C13   A    
C26   C27   S    
C29   C30   S    
C1    O2    A    
C29   H10   S    
C3    C27   S    
C28   C29   S    
C22   N1    A    
C18   H7    S    
C23   O6    A    
C6    C7    A    
C22   C24   A    
O8    Zn2   S    
C16   H5    S    
C9    C15   A    
C5    C6    A    
C22   H4    S    
O7    Zn1   S    
C26   H9    S    
C30   H11   S    
C7    H1    S    
C10   C11   A    
C6    H15   S    
C31   O9    D    
C3    C4    S    
C20   N2    A    
O5    Zn1   S    
C5    C10   A    
C12   O4    A    
O2    Zn2   S    
C25   O7    A    
C26   C29   S    
C18   C19   A    
C27   C28   S    
O1    Zn1   S    
O6    Zn2   S    
C19   H8    S    
N2    Zn1   S    
C2    C3    S    
C31   H16   S    
C14   C15   A    
C24   N2    A    
C16   C21   A    
N1    Zn2   S    
C5    H14   S    
O3    Zn1   S    
C25   O8    A    
C16   C17   A    
C2    H18   S    
C8    C9    A    
C27   C31   S    
C8    H2    S    
