data_mof_unit_1458.cif
_audit_creation_date              2012-12-10T16:54:05-0500
_audit_creation_method            fapswitch 2.2
_symmetry_space_group_name_H-M    P1
_symmetry_Int_Tables_number       1
_space_group_crystal_system       triclinic
_cell_length_a                    9.768472
_cell_length_b                    10.878817
_cell_length_c                    13.376659
_cell_angle_alpha                 91.77588
_cell_angle_beta                  71.590697
_cell_angle_gamma                 92.700002
_cell_volume                      1347.09058571

loop_
_atom_site_label
_atom_site_type_symbol
_atom_type_description
_atom_site_fract_x
_atom_site_fract_y
_atom_site_fract_z
_atom_type_partial_charge
C1    C     C_R   0.501464 0.734283 0.503284 0.782327
C2    C     C_R   0.438489 0.496625 0.979680 0.098031
C3    C     C_R   0.458298 0.452904 0.875058 0.056274
C4    C     C_R   0.537585 0.463573 0.031690 0.080716
C5    C     C_R   0.641919 0.375556 0.984023 0.154034
C6    C     C_R   0.645394 0.320515 0.887661 -0.220760
C7    C     C_R   0.558255 0.361325 0.832184 -0.207129
C8    C     C_R   0.533160 0.512133 0.131149 -0.265983
C9    C     C_R   0.733656 0.389507 0.133644 -0.021049
C10   C     C_R   0.369034 0.493738 0.818686 -0.157779
C11   C     C_2   0.613375 0.068930 0.461763 -0.115287
C12   C     C_R   0.420519 0.494529 0.701013 0.830951
C13   C     C_2   0.495753 0.133705 0.478388 -0.221644
C14   C     C_2   0.603444 0.935288 0.452962 -0.326764
C15   C     C_2   0.501303 0.865342 0.521373 0.323580
C16   C     C_2   0.095036 0.589625 0.469444 -0.090925
C17   C     C_2   0.933849 0.598502 0.494903 0.049292
C18   C     C_R   0.499367 0.265602 0.494021 0.837097
C19   C     C_R   0.578465 0.495017 0.299577 0.774536
C20   C     C_R   0.740826 0.341966 0.033721 -0.222366
C21   C     C_R   0.623363 0.471021 0.184978 -0.098218
C22   C     C_R   0.235770 0.544707 0.876774 0.035236
C23   C     C_R   0.214329 0.585561 0.980233 -0.194799
C24   C     C_R   0.316950 0.567248 0.029479 -0.200579
Cu1   Cu    Cu3+1 0.361370 0.499980 0.499980 0.972402
Cu2   Cu    Cu3+1 0.638630 0.500020 0.500020 0.937914
H1    H     H_    0.394061 0.088437 0.478887 0.183610
H2    H     H_    0.684526 0.892244 0.387643 0.128396
H3    H     H_    0.164649 0.667618 0.434072 0.165620
H4    H     H_    0.084074 0.431925 0.541288 0.196504
H5    H     H_    0.895775 0.418637 0.480268 0.197894
H6    H     H_    0.719091 0.247965 0.853422 0.142662
H7    H     H_    0.822759 0.276869 0.995256 0.141579
H8    H     H_    0.457085 0.580104 0.170959 0.139609
H9    H     H_    0.290689 0.600343 0.109729 0.122830
H10   H     H_    0.114892 0.628227 0.024720 0.125894
H11   H     H_    0.566211 0.317369 0.756931 0.175262
H12   H     H_    0.718501 0.113930 0.450711 0.164888
N1    N     N_2   0.152660 0.501340 0.501130 -0.283700
N2    N     N_2   0.846520 0.501370 0.501160 -0.317286
O1    O     O_R   0.382960 0.678040 0.499980 -0.549212
O2    O     O_R   0.617100 0.678080 0.500020 -0.586505
O3    O     O_R   0.325800 0.499940 0.650950 -0.538176
O4    O     O_R   0.559930 0.499980 0.650990 -0.591646
O5    O     O_R   0.382900 0.321920 0.499980 -0.585142
O6    O     O_R   0.617040 0.321960 0.500020 -0.582720
O7    O     O_R   0.440070 0.500020 0.349010 -0.579087
O8    O     O_R   0.674200 0.500060 0.349050 -0.570344
C25   C     C_R   0.838711 0.347583 0.183043 0.129681
C26   C     C_R   0.944194 0.430472 0.200018 -0.076712
C27   C     C_R   0.046104 0.389943 0.243870 -0.131382
C28   C     C_R   0.043963 0.266437 0.270345 -0.124890
C29   C     C_R   0.940316 0.183194 0.252533 -0.152710
C30   C     C_R   0.837980 0.223422 0.208978 -0.158251
H13   H     H_    0.946699 0.526342 0.179886 0.106519
H14   H     H_    0.126667 0.454233 0.257386 0.129736
H15   H     H_    0.122786 0.235211 0.304404 0.127512
H16   H     H_    0.939229 0.087386 0.272318 0.121266
H17   H     H_    0.758153 0.158064 0.195633 0.123842
S1    S     S_3+6 0.381913 0.917948 0.643668 -0.021114
O9    O     O_2   0.447625 0.027012 0.686261 -0.326172
O10   O     O_2   0.242207 0.952335 0.629211 -0.309239
O11   O     O_3   0.347806 0.803155 0.730593 -0.561281
H18   H     H_    0.298085 0.841973 0.799733 0.361933
C31   C     C_R   0.882760 0.726051 0.520630 0.201091
C32   C     C_R   0.951893 0.823051 0.453369 -0.199488
C33   C     C_R   0.929754 0.945618 0.486979 -0.132574
C34   C     C_R   0.836208 0.973208 0.587172 -0.056508
C35   C     C_R   0.762523 0.878311 0.653024 -0.111744
C36   C     C_R   0.785945 0.755671 0.620263 -0.092987
H19   H     H_    0.026741 0.803901 0.375975 0.105360
H20   H     H_    0.986055 0.019279 0.435636 0.119079
H21   H     H_    0.819070 0.068127 0.613091 0.126158
H22   H     H_    0.688021 0.899655 0.729993 0.159531
H23   H     H_    0.727565 0.684721 0.672837 0.138966
C37   C     C_R   0.110427 0.539434 0.837466 0.136970
C38   C     C_R   0.069805 0.427140 0.797906 -0.098972
C39   C     C_R   0.955374 0.421000 0.756983 -0.154596
C40   C     C_R   0.874492 0.524318 0.761687 -0.112823
C41   C     C_R   0.908566 0.634654 0.806448 -0.120186
C42   C     C_R   0.027304 0.642812 0.843394 -0.090811
H24   H     H_    0.129842 0.345325 0.795775 0.130549
H25   H     H_    0.928585 0.335731 0.722329 0.117818
H26   H     H_    0.783894 0.516918 0.732186 0.157255
H27   H     H_    0.843596 0.713965 0.812371 0.126271
H28   H     H_    0.054340 0.729256 0.876279 0.122870

loop_
_geom_bond_atom_site_label_1
_geom_bond_atom_site_label_2
_ccdc_geom_bond_type
C6    H6    S    
C15   S1    S    
C22   C37   S    
C4    C8    A    
C9    C21   A    
Cu1   O3    S    
Cu2   O4    S    
C5    C20   A    
C29   C30   A    
C10   C22   A    
C13   C18   S    
S1    O11   S    
C19   C21   S    
C33   H20   S    
C12   O3    A    
C3    C7    A    
C5    C6    A    
C11   C14   S    
C19   O7    A    
C16   C17   S    
C31   C36   A    
H5    N2    S    
S1    O10   D    
C27   H14   S    
C39   H25   S    
C34   C35   A    
C23   C24   A    
C1    C15   S    
Cu1   O7    S    
C42   H28   S    
Cu2   O8    S    
C32   C33   A    
C18   O6    A    
C8    C21   A    
C30   H17   S    
C24   H9    S    
C27   C28   A    
C9    C25   S    
C37   C38   A    
Cu1   O1    S    
C19   O8    A    
C4    C5    A    
Cu1   Cu2   S    
C38   C39   A    
C33   C34   A    
S1    O9    D    
C17   N2    D    
C11   H12   S    
C2    C4    A    
C41   H27   S    
C9    C20   A    
C32   H19   S    
C14   C15   D    
C26   C27   A    
C7    H11   S    
C35   H22   S    
C8    H8    S    
C10   C12   S    
C20   H7    S    
C1    O1    A    
C25   C26   A    
C2    C24   A    
C40   C41   A    
C18   O5    A    
Cu1   O5    S    
C28   C29   A    
Cu2   O2    S    
C39   C40   A    
C41   C42   A    
C37   C42   A    
C29   H16   S    
C6    C7    A    
C17   C31   S    
C26   H13   S    
C2    C3    A    
C34   H21   S    
C12   O4    A    
C3    C10   A    
Cu1   N1    S    
C11   C13   D    
Cu2   N2    S    
C40   H26   S    
C38   H24   S    
H4    N1    S    
C31   C32   A    
C35   C36   A    
C28   H15   S    
Cu2   O6    S    
C16   N1    D    
O11   H18   S    
C1    O2    A    
C16   H3    S    
C23   H10   S    
C36   H23   S    
C22   C23   A    
C13   H1    S    
C14   H2    S    
C25   C30   A    
