data_mof_unit_1471.cif
_audit_creation_date              2012-12-10T18:43:41-0500
_audit_creation_method            fapswitch 2.2
_symmetry_space_group_name_H-M    P1
_symmetry_Int_Tables_number       1
_space_group_crystal_system       triclinic
_cell_length_a                    10.464893
_cell_length_b                    10.686984
_cell_length_c                    9.897901
_cell_angle_alpha                 91.286559
_cell_angle_beta                  101.368492
_cell_angle_gamma                 90.685543
_cell_volume                      1084.81865503

loop_
_atom_site_label
_atom_site_type_symbol
_atom_type_description
_atom_site_fract_x
_atom_site_fract_y
_atom_site_fract_z
_atom_type_partial_charge
C1    C     C_R   0.499258 0.260624 0.498604 0.895364
C2    C     C_R   0.498483 0.739699 0.501125 0.864859
C3    C     C_R   0.258035 0.508971 0.446330 0.922496
C4    C     C_R   0.742371 0.505675 0.554983 0.910499
C5    C     C_R   0.594382 0.563526 0.093624 0.099688
C6    C     C_R   0.406033 0.435246 0.905909 0.087447
C7    C     C_R   0.595076 0.563039 0.949323 0.096933
C8    C     C_R   0.405894 0.435323 0.050605 0.104370
C9    C     C_2   0.120680 0.540271 0.428478 -0.408681
C10   C     C_2   0.882430 0.524496 0.579466 -0.367850
C11   C     C_2   0.076902 0.612356 0.524209 0.203333
C12   C     C_2   0.937518 0.617046 0.518726 0.212631
C13   C     C_R   0.392740 0.062361 0.418386 0.050597
C14   C     C_R   0.596495 0.939673 0.591554 0.042942
C15   C     C_R   0.393554 0.932515 0.414912 0.174565
C16   C     C_R   0.603742 0.068434 0.581842 0.180802
C17   C     C_R   0.495543 0.872556 0.503187 -0.162184
C18   C     C_R   0.500002 0.128265 0.497178 -0.158897
H1    H     H_    0.942682 0.454374 0.638101 0.116416
H2    H     H_    0.052861 0.499645 0.340565 0.129392
N1    N     N_R   0.499970 0.499970 0.857200 -0.082424
N2    N     N_R   0.500030 0.500030 0.142800 -0.080402
O1    O     O_R   0.499990 0.316750 0.614620 -0.596590
O2    O     O_R   0.500010 0.683250 0.385380 -0.603153
O3    O     O_R   0.499990 0.316780 0.385290 -0.608176
O4    O     O_R   0.500010 0.683220 0.614710 -0.616980
O5    O     O_R   0.317810 0.500000 0.571850 -0.579442
O6    O     O_R   0.682190 0.500000 0.428150 -0.577761
O7    O     O_R   0.317810 0.500030 0.342520 -0.593234
O8    O     O_R   0.682190 0.499970 0.657480 -0.589525
Zn1   Zn    Zn3+2 0.500000 0.499980 0.653120 0.957192
Zn2   Zn    Zn3+2 0.500000 0.500020 0.346880 0.964686
C19   C     C_3   0.868252 0.731052 0.455682 -0.875394
H3    H     H_    0.903881 0.814851 0.521149 0.232079
H4    H     H_    0.892020 0.745793 0.352808 0.233402
H5    H     H_    0.761305 0.724895 0.445061 0.251139
C20   C     C_3   0.163021 0.684088 0.642536 -0.813188
H6    H     H_    0.105661 0.753792 0.689269 0.217385
H7    H     H_    0.205257 0.619616 0.725205 0.247098
H8    H     H_    0.241799 0.735936 0.606578 0.234876
N3    N     N_3   0.692486 0.630445 0.189199 -0.399292
H9    H     H_    0.783535 0.597196 0.178348 0.164966
H10   H     H_    0.687089 0.725346 0.165854 0.164104
N4    N     N_3   0.309546 0.365827 0.809671 -0.396941
H11   H     H_    0.217232 0.396476 0.819274 0.153264
H12   H     H_    0.316950 0.271097 0.833435 0.167354
N5    N     N_3   0.697335 0.625905 0.899599 -0.401835
H13   H     H_    0.705785 0.717606 0.939084 0.147026
H14   H     H_    0.784712 0.581041 0.938059 0.168016
N6    N     N_3   0.307390 0.367359 0.100998 -0.407762
H15   H     H_    0.307552 0.274507 0.065825 0.150167
H16   H     H_    0.216952 0.405202 0.059315 0.162607
N7    N     N_3   0.281244 0.126541 0.345489 -0.464729
H17   H     H_    0.245871 0.185792 0.414718 0.176766
H18   H     H_    0.310328 0.180150 0.270127 0.213187
N8    N     N_3   0.687417 0.879527 0.696837 -0.461616
H19   H     H_    0.728682 0.803129 0.655274 0.194945
H20   H     H_    0.635238 0.848243 0.769383 0.213420
C21   C     C_3   0.285261 0.858475 0.320589 -0.840434
H21   H     H_    0.240435 0.790065 0.380331 0.220520
H22   H     H_    0.205682 0.917658 0.267071 0.250588
H23   H     H_    0.325227 0.807851 0.239457 0.248432
C22   C     C_3   0.720025 0.142072 0.662915 -0.848421
H24   H     H_    0.757416 0.208306 0.594390 0.209624
H25   H     H_    0.691146 0.195183 0.749457 0.251113
H26   H     H_    0.802577 0.081516 0.706499 0.248619

loop_
_geom_bond_atom_site_label_1
_geom_bond_atom_site_label_2
_ccdc_geom_bond_type
C14   N8    S    
C11   C12   S    
C22   H25   S    
C1    O1    A    
C20   H6    S    
C3    C9    S    
C16   C22   S    
N5    H14   S    
N1    Zn1   S    
N3    H9    S    
N3    H10   S    
C9    H2    S    
N6    H16   S    
N5    H13   S    
C15   C21   S    
C10   H1    S    
O3    Zn2   S    
C3    O5    A    
N6    H15   S    
C22   H26   S    
C21   H21   S    
C2    O4    A    
C6    N4    S    
N7    H17   S    
N8    H19   S    
C2    C17   S    
C1    O3    A    
C9    C11   D    
C14   C17   A    
C3    O7    A    
C1    C18   S    
N2    Zn2   S    
C13   C18   A    
C10   C12   D    
C16   C18   A    
C19   H4    S    
N8    H20   S    
C19   H3    S    
C20   H8    S    
C13   N7    S    
C13   C15   A    
C2    O2    A    
O8    Zn1   S    
C20   H7    S    
C14   C16   A    
C21   H22   S    
O7    Zn2   S    
N7    H18   S    
O5    Zn1   S    
C22   H24   S    
C8    N6    S    
O6    Zn2   S    
C19   H5    S    
N4    H11   S    
C5    C7    A    
C7    N1    A    
O2    Zn2   S    
C11   C20   S    
C5    N3    S    
C21   H23   S    
C6    C8    A    
C4    O6    A    
C12   C19   S    
C15   C17   A    
C6    N1    A    
O4    Zn1   S    
C8    N2    A    
C4    O8    A    
C5    N2    A    
C4    C10   S    
N4    H12   S    
O1    Zn1   S    
C7    N5    S    
