data_mof_unit_2229.cif
_audit_creation_date              2012-12-11T16:34:12-0500
_audit_creation_method            fapswitch 2.2
_symmetry_space_group_name_H-M    P1
_symmetry_Int_Tables_number       1
_space_group_crystal_system       triclinic
_cell_length_a                    8.298683
_cell_length_b                    17.500343
_cell_length_c                    27.041265
_cell_angle_alpha                 95.794678
_cell_angle_beta                  92.11717
_cell_angle_gamma                 83.702899
_cell_volume                      3882.2271658

loop_
_atom_site_label
_atom_site_type_symbol
_atom_type_description
_atom_site_fract_x
_atom_site_fract_y
_atom_site_fract_z
_atom_type_partial_charge
Ba1   Ba    Ba6+2 0.856110 0.463800 0.523550 1.718943
Ba2   Ba    Ba6+2 0.333710 0.536130 0.476450 1.751435
C1    C     C_3   0.641240 0.191584 0.656195 -0.361905
C2    C     C_3   0.648446 0.269319 0.636331 0.335120
C3    C     C_3   0.500741 0.671293 0.631656 0.649786
C4    C     C_3   0.368068 0.717892 0.662893 -0.274046
C5    C     C_3   0.983201 0.731084 0.343535 0.343317
C6    C     C_3   0.995397 0.757215 0.291893 0.250042
C7    C     C_3   0.516731 0.733942 0.365720 0.357081
C8    C     C_3   0.506643 0.813838 0.347606 -0.325012
C9    C     C_R   0.024555 0.444755 0.178451 0.599071
C10   C     C_R   0.912650 0.577210 0.180260 0.684444
C11   C     C_2   0.742569 0.527356 0.269016 -0.102059
C12   C     C_3   0.152064 0.290446 0.658785 0.289575
C13   C     C_3   0.693973 0.518138 0.321568 -0.072601
C14   C     C_1   0.981962 0.484879 0.341911 0.016509
C15   C     C_2   0.023690 0.484106 0.294721 -0.113492
C16   C     C_2   0.899563 0.508373 0.255404 0.205942
C17   C     C_R   0.038208 0.513192 0.104176 -0.129873
C18   C     C_R   0.070209 0.445234 0.128580 -0.015282
C19   C     C_R   0.147600 0.378629 0.102678 -0.047875
C20   C     C_R   0.959481 0.580484 0.130272 -0.087137
C21   C     C_2   0.840370 0.519232 0.356646 0.064983
C22   C     C_2   0.342470 0.479587 0.643631 -0.365045
C23   C     C_3   0.111439 0.271986 0.710306 -0.344201
C24   C     C_R   0.190912 0.443196 0.975520 0.018972
C25   C     C_R   0.111763 0.583408 0.979814 0.035886
C26   C     C_R   0.171903 0.513175 0.952399 0.057317
C27   C     C_R   0.243188 0.374213 0.945876 -0.102124
C28   C     C_R   0.278879 0.374248 0.895919 -0.057757
C29   C     C_R   0.264897 0.443020 0.873011 -0.031584
C30   C     C_R   0.212975 0.512849 0.901296 -0.083592
C31   C     C_R   0.202682 0.582315 0.878533 -0.059479
C32   C     C_R   0.241625 0.580815 0.827732 0.612775
C33   C     C_R   0.299551 0.443093 0.822149 0.564612
C34   C     C_3   0.199338 0.301702 0.418591 0.298309
C35   C     C_2   0.461141 0.488549 0.729263 -0.092047
C36   C     C_3   0.495131 0.489128 0.674673 0.051207
C37   C     C_1   0.206275 0.518421 0.659651 0.010831
C38   C     C_2   0.171748 0.526976 0.708293 0.337245
C39   C     C_2   0.309145 0.509111 0.746213 0.157554
C40   C     C_R   0.155384 0.444138 0.027012 0.035632
C41   C     C_R   0.084492 0.513364 0.053493 0.052868
C42   C     C_R   0.059147 0.582520 0.029654 -0.036442
C43   C     C_R   0.188898 0.377924 0.053214 -0.097928
C44   C     C_R   0.929718 0.648295 0.105146 0.439881
C45   C     C_3   0.207307 0.214534 0.406678 -0.381796
C46   C     C_R   0.107480 0.652378 0.956232 -0.087479
C47   C     C_R   0.152349 0.651714 0.906925 -0.051481
C48   C     C_R   0.979009 0.648517 0.056300 -0.108810
C49   C     C_R   0.412406 0.279478 0.521525 -0.288755
C50   C     C_R   0.553206 0.255150 0.495422 0.063891
C51   C     C_R   0.608205 0.175946 0.488526 -0.116265
C52   C     C_R   0.520781 0.121192 0.507389 -0.004677
C53   C     C_R   0.375866 0.146631 0.532571 -0.131736
C54   C     C_R   0.320854 0.225893 0.538838 0.006245
C55   C     C_R   0.581147 0.835400 0.503722 -0.116299
C56   C     C_3   0.978035 0.697986 0.582810 0.318379
C57   C     C_R   0.639180 0.756708 0.501839 0.027686
C58   C     C_R   0.880139 0.781206 0.460749 0.014788
C59   C     C_R   0.823323 0.860240 0.462047 -0.139200
C60   C     C_R   0.673899 0.888000 0.484463 0.003894
C61   C     C_1   0.620758 0.970444 0.491415 0.000527
C62   C     C_1   0.575328 0.039061 0.498531 0.000197
C63   C     C_R   0.788487 0.731599 0.481496 -0.240236
C64   C     C_3   0.932189 0.783343 0.599037 -0.356173
C65   C     C_3   0.699006 0.357826 0.373507 0.330075
C66   C     C_3   0.702844 0.330725 0.317980 0.258669
H1    H     H_    0.756755 0.264931 0.612737 0.096466
H2    H     H_    0.286303 0.195658 0.374517 0.112335
H3    H     H_    0.257126 0.184721 0.438924 0.068344
H4    H     H_    0.083732 0.197611 0.397499 0.121874
H5    H     H_    0.867159 0.670975 0.571124 0.032581
H6    H     H_    0.063015 0.692348 0.551592 0.025584
H7    H     H_    0.846615 0.789797 0.630157 0.178900
H8    H     H_    0.874048 0.813370 0.567955 0.049268
H9    H     H_    0.041247 0.812061 0.611442 0.102177
H10   H     H_    0.823827 0.365687 0.387126 -0.049919
H11   H     H_    0.619467 0.413066 0.379804 0.041185
H12   H     H_    0.752864 0.176349 0.678641 0.133415
H13   H     H_    0.767097 0.270946 0.312360 0.019906
H14   H     H_    0.777594 0.367223 0.299196 -0.004516
H15   H     H_    0.536450 0.282425 0.613785 -0.041235
H16   H     H_    0.631807 0.146277 0.624661 0.077510
H17   H     H_    0.451727 0.619911 0.610981 -0.054773
H18   H     H_    0.276870 0.747405 0.638266 0.084033
H19   H     H_    0.308685 0.679324 0.685119 0.108994
H20   H     H_    0.420382 0.763234 0.688637 0.144132
H21   H     H_    0.533716 0.193854 0.679805 0.127098
H22   H     H_    0.150963 0.316834 0.738599 0.131291
H23   H     H_    0.992897 0.666681 0.340849 0.068128
H24   H     H_    0.862481 0.755516 0.357689 -0.131051
H25   H     H_    0.884543 0.744979 0.269533 0.109966
H26   H     H_    0.003648 0.820599 0.294654 0.058520
H27   H     H_    0.629874 0.724215 0.388351 -0.006576
H28   H     H_    0.411272 0.732231 0.389389 0.103379
H29   H     H_    0.512333 0.858051 0.379938 0.057661
H30   H     H_    0.390441 0.825952 0.326628 0.176768
H31   H     H_    0.097655 0.350252 0.654278 0.070534
H32   H     H_    0.609085 0.817446 0.322928 0.116818
H33   H     H_    0.148221 0.466460 0.284305 0.146777
H34   H     H_    0.176366 0.325936 0.120637 0.122170
H35   H     H_    0.561058 0.476341 0.755341 0.085932
H36   H     H_    0.316942 0.319503 0.875070 0.123562
H37   H     H_    0.253662 0.318374 0.959790 0.073986
H38   H     H_    0.250501 0.324456 0.036811 0.072089
H39   H     H_    0.649101 0.542408 0.241459 0.129242
H40   H     H_    0.073203 0.708574 0.975268 0.085130
H41   H     H_    0.285896 0.287110 0.656046 -0.015945
H42   H     H_    0.145684 0.706278 0.890880 0.131118
H43   H     H_    0.947927 0.701638 0.039488 0.116434
H44   H     H_    0.341892 0.437201 0.611378 0.061535
H45   H     H_    0.469403 0.856104 0.522521 0.084541
H46   H     H_    0.303836 0.105157 0.545700 0.081489
H47   H     H_    0.896535 0.899744 0.447270 0.074658
H48   H     H_    0.715667 0.156938 0.467164 0.082185
H49   H     H_    0.368117 0.340221 0.525477 0.060436
H50   H     H_    0.978377 0.271184 0.712928 0.142741
H51   H     H_    0.841233 0.674044 0.486420 0.110156
H52   H     H_    0.173787 0.214768 0.717957 0.123058
H53   H     H_    0.322850 0.318037 0.426983 0.007883
H54   H     H_    0.121704 0.318612 0.451300 0.063063
N1    N     N_R   0.946656 0.510243 0.203862 -0.428150
N2    N     N_R   0.281750 0.511222 0.799483 -0.430984
O1    O     O_2   0.910880 0.540430 0.617910 -0.381941
O2    O     O_3   0.638993 0.301068 0.397911 -0.660486
O3    O     O_3   0.088084 0.236869 0.623309 -0.597741
O4    O     O_2   0.278810 0.459550 0.382060 -0.455435
O5    O     O_3   0.046820 0.459570 0.442260 -0.431359
O6    O     O_3   0.514050 0.597710 0.411540 -0.434421
O7    O     O_3   0.135432 0.336361 0.376814 -0.644452
O8    O     O_3   0.627090 0.591350 0.524530 -0.431678
O9    O     O_3   0.103080 0.636600 0.435820 -0.412200
O10   O     O_2   0.217749 0.771969 0.465685 -0.506440
O11   O     O_3   0.107561 0.759230 0.374565 -0.601556
O12   O     O_3   0.142880 0.540370 0.557740 -0.497442
O13   O     O_3   0.562610 0.408580 0.475460 -0.474458
O14   O     O_2   0.365880 0.685750 0.523280 -0.474340
O15   O     O_3   0.562234 0.721055 0.601205 -0.652289
O16   O     O_2   0.351536 0.560619 0.326974 -0.440883
O17   O     O_3   0.515727 0.678088 0.324642 -0.549083
O18   O     O_2   0.051933 0.385371 0.199001 -0.599478
O19   O     O_2   0.345388 0.382300 0.797976 -0.606318
O20   O     O_2   0.842149 0.634042 0.203026 -0.515218
O21   O     O_2   0.236762 0.641275 0.808434 -0.553581
O22   O     O_3   0.675650 0.402220 0.588450 -0.485233
O23   O     O_2   0.832724 0.438955 0.671477 -0.483058
O24   O     O_3   0.051507 0.663460 0.623261 -0.599867
O25   O     O_3   0.658436 0.326476 0.676327 -0.605406
O26   O     O_2   0.823810 0.314230 0.476690 -0.462761
O27   O     O_3   0.086630 0.363340 0.564170 -0.498753
O28   O     O_2   0.986436 0.227087 0.531170 -0.483108
P1    P     P_3+3 0.078810 0.562990 0.610370 1.089012
P2    P     P_3+3 0.645380 0.325580 0.462150 0.994436
P3    P     P_3+3 0.121118 0.262540 0.563973 0.933861
P4    P     P_3+3 0.110900 0.436950 0.389630 1.051375
P5    P     P_3+3 0.076706 0.738070 0.435104 0.981557
P6    P     P_3+3 0.665030 0.415983 0.652948 0.991428
P7    P     P_3+3 0.549601 0.688943 0.537717 0.968969
P8    P     P_3+3 0.516983 0.586633 0.345934 1.094719
O29   O     O_3   0.543436 0.338854 0.296873 -0.637619
C67   C     C_3   0.487365 0.265743 0.284877 0.233717
H55   H     H_    0.492131 0.232207 0.317822 0.038453
H56   H     H_    0.558837 0.232455 0.254220 0.030620
H57   H     H_    0.358572 0.274351 0.271883 0.089209
Cl1   Cl    Cl    0.660563 0.640803 0.673422 -0.687039
Cl2   Cl    Cl    0.169109 0.707604 0.261149 -0.577461
Cl3   Cl    Cl    0.830748 0.736639 0.132051 -0.566608
O30   O     O_3   0.025224 0.568359 0.722707 -0.578854
C68   C     C_3   0.945998 0.530548 0.757147 0.370099
H58   H     H_    0.953899 0.561321 0.794820 0.009646
H59   H     H_    0.989498 0.468024 0.758013 -0.040537
H60   H     H_    0.814779 0.535009 0.747244 0.094842
Cl4   Cl    Cl    0.828691 0.572959 0.413972 -0.718051

loop_
_geom_bond_atom_site_label_1
_geom_bond_atom_site_label_2
_ccdc_geom_bond_type
C25   C46   A    
C12   H41   S    
C53   C54   A    
C38   C39   S    
O11   P5    S    
O30   C68   S    
C17   C18   A    
C22   H44   S    
C11   H39   S    
Ba1   O8    S    
C23   H50   S    
C22   C37   D    
O29   C67   S    
C12   H31   S    
C21   Cl4   S    
C46   H40   S    
C66   O29   S    
C43   H38   S    
C5    O11   S    
C2    O25   S    
C2    H15   S    
C24   C40   A    
C23   H22   S    
C35   C36   S    
C44   Cl3   S    
C11   C16   D    
C37   P1    S    
C66   H13   S    
C39   N2    S    
C33   N2    Am   
Ba1   O1    S    
Ba1   Ba2   S    
Ba1   O5    S    
C28   C29   A    
C32   O21   D    
C56   O24   S    
C55   C57   A    
C68   H58   S    
C5    H24   S    
C31   C47   A    
C10   C20   A    
Ba2   O5    S    
C4    H20   S    
C34   C45   S    
O6    P8    S    
C49   C54   A    
C8    H30   S    
C15   H33   S    
C2    H1    S    
C49   H49   S    
C57   P7    S    
C25   C42   A    
C56   C64   S    
C17   C41   A    
C14   C15   D    
O4    P4    D    
C14   P4    S    
C22   C36   S    
O27   P3    S    
Ba1   O12   S    
C7    C8    S    
C7    H27   S    
C19   C43   A    
C51   H48   S    
C16   N1    S    
C3    H17   S    
C13   C21   S    
O15   P7    S    
C27   H37   S    
Ba1   O22   S    
C59   C60   A    
C65   H10   S    
C54   P3    S    
C1    H12   S    
O14   P7    D    
C38   O30   S    
O1    P1    D    
C3    O15   S    
C67   H56   S    
C9    C18   A    
Ba2   O9    S    
C49   C50   A    
O8    P7    S    
C55   C60   A    
C17   C20   A    
C65   H11   S    
C58   P5    S    
C36   P6    S    
C65   O2    S    
O3    P3    S    
C37   C38   D    
C35   H35   S    
C7    O17   S    
C55   H45   S    
C51   C52   A    
Ba2   O12   S    
C4    H19   S    
C65   C66   S    
C58   C59   A    
C40   C43   A    
Ba2   O14   S    
C8    H29   S    
C34   H54   S    
C41   C42   A    
C45   H2    S    
C59   H47   S    
C60   C61   S    
C6    Cl2   S    
C67   H57   S    
O17   P8    S    
Ba2   O8    S    
C29   C30   A    
O28   P3    D    
C26   C30   A    
C64   H8    S    
C15   C16   S    
C63   H51   S    
C6    H26   S    
Ba1   O26   S    
C3    Cl1   S    
C8    H32   S    
C7    H28   S    
C45   H3    S    
C19   H34   S    
O2    P2    S    
C46   C47   A    
C20   C44   A    
C58   C63   A    
C14   C21   D    
C11   C13   S    
O26   P2    D    
C29   C33   A    
C34   O7    S    
C40   C41   A    
C1    C2    S    
C23   H52   S    
C5    H23   S    
C1    H16   S    
Ba1   O13   S    
C50   C51   A    
C56   H6    S    
C67   H55   S    
O25   P6    S    
C42   C48   A    
C64   H9    S    
C52   C53   A    
O7    P4    S    
C32   N2    Am   
Ba2   O13   S    
C9    N1    Am   
C6    H25   S    
O5    P4    S    
O22   P6    S    
C53   H46   S    
C44   C48   A    
C24   C26   A    
C4    H18   S    
C1    H21   S    
C66   H14   S    
C30   C31   A    
C34   H53   S    
C13   P8    S    
C57   C63   A    
O12   P1    S    
C3    C4    S    
C10   N1    Am   
C52   C62   S    
C64   H7    S    
C48   H43   S    
Ba2   O6    S    
C31   C32   A    
O13   P2    S    
Ba1   O27   S    
O9    P5    S    
C12   C23   S    
C35   C39   D    
Ba1   P2    S    
C9    O18   D    
C45   H4    S    
Ba1   P1    S    
C5    C6    S    
C12   O3    S    
C27   C28   A    
C61   C62   T    
C10   O20   D    
O10   P5    D    
C18   C19   A    
C24   C27   A    
O24   P1    S    
C28   H36   S    
C25   C26   A    
C68   H59   S    
O23   P6    D    
C50   P2    S    
O16   P8    D    
Ba2   P4    S    
C56   H5    S    
C33   O19   D    
C47   H42   S    
C68   H60   S    
Ba2   O4    S    
