data_mof_unit_2389.cif
_audit_creation_date              2012-12-10T17:07:51-0500
_audit_creation_method            fapswitch 2.2
_symmetry_space_group_name_H-M    P1
_symmetry_Int_Tables_number       1
_space_group_crystal_system       triclinic
_cell_length_a                    10.67198
_cell_length_b                    10.780817
_cell_length_c                    10.00113
_cell_angle_alpha                 90.573996
_cell_angle_beta                  90.293329
_cell_angle_gamma                 90.910028
_cell_volume                      1150.43774133

loop_
_atom_site_label
_atom_site_type_symbol
_atom_type_description
_atom_site_fract_x
_atom_site_fract_y
_atom_site_fract_z
_atom_type_partial_charge
C1    C     C_R   0.499527 0.262833 0.498749 0.960072
C2    C     C_2   0.582839 0.560628 0.076301 0.700983
C3    C     C_R   0.257941 0.493582 0.499157 0.951988
C4    C     C_R   0.495088 0.737236 0.500171 0.958928
C5    C     C_R   0.742385 0.498451 0.500192 1.011559
C6    C     C_3   0.069597 0.385483 0.586750 -0.388488
C7    C     C_3   0.925554 0.379798 0.574476 0.428618
C8    C     C_3   0.077136 0.618902 0.550795 0.359911
C9    C     C_3   0.069399 0.471452 0.350791 0.131947
C10   C     C_3   0.121741 0.490644 0.496861 -0.233507
C11   C     C_3   0.879025 0.497393 0.500052 -0.231769
C12   C     C_3   0.935195 0.613951 0.574204 0.098358
C13   C     C_3   0.927812 0.491796 0.352914 -0.546651
C14   C     C_2   0.470248 0.934860 0.391984 0.182176
C15   C     C_2   0.504007 0.868863 0.499434 0.354101
C16   C     C_2   0.510244 0.062507 0.389289 0.451128
C17   C     C_2   0.476438 0.133191 0.493556 -0.347583
C18   C     C_2   0.587213 0.553530 0.925968 -0.147167
F1    F     F_    0.564304 0.923878 0.605467 -0.597461
F2    F     F_    0.671235 0.632003 0.139585 -0.590804
F3    F     F_    0.874590 0.370726 0.701473 -0.627789
F4    F     F_    0.136467 0.653026 0.669807 -0.614503
H1    H     H_    0.097081 0.404028 0.692693 0.258215
H2    H     H_    0.920191 0.600367 0.683224 0.199901
H3    H     H_    0.110817 0.543975 0.285058 0.168419
H4    H     H_    0.877863 0.417408 0.295015 0.262678
H5    H     H_    0.809482 0.801860 0.742734 0.377133
H6    H     H_    0.246951 0.966880 0.117535 0.407714
H7    H     H_    0.734978 0.013577 0.120419 0.404863
H8    H     H_    0.015820 0.363202 0.083345 0.372271
H9    H     H_    0.907089 0.579786 0.300919 0.262071
H10   H     H_    0.101293 0.690324 0.475370 0.170453
H11   H     H_    0.419737 0.095082 0.573968 0.173137
H12   H     H_    0.666598 0.597304 0.876955 0.207376
H13   H     H_    0.422257 0.466593 0.897114 0.182151
H14   H     H_    0.109379 0.294267 0.558547 0.208310
H15   H     H_    0.439191 0.441544 0.101049 0.154403
H16   H     H_    0.895957 0.295027 0.517850 0.192272
N1    N     N_2   0.501360 0.501330 0.852150 -0.203920
N2    N     N_2   0.501390 0.501360 0.147810 -0.207159
O1    O     O_R   0.499980 0.319060 0.613040 -0.605632
O2    O     O_2   0.797667 0.759694 0.406106 -0.220938
O3    O     O_3   0.758801 0.787254 0.660670 -0.473351
O4    O     O_2   0.448035 0.817528 0.154662 -0.212103
O5    O     O_2   0.273500 0.791976 0.311534 -0.349523
O6    O     O_3   0.299465 0.002875 0.190544 -0.445005
O7    O     O_2   0.544254 0.176448 0.154633 -0.243925
O8    O     O_2   0.717493 0.190914 0.316918 -0.304819
O9    O     O_3   0.679426 0.981453 0.191610 -0.436030
O10   O     O_2   0.231453 0.277105 0.312611 -0.232958
O11   O     O_2   0.008858 0.224956 0.308158 -0.239871
O12   O     O_R   0.500020 0.319100 0.386900 -0.555685
O13   O     O_3   0.103062 0.340645 0.105493 -0.481875
O14   O     O_R   0.314770 0.499960 0.613070 -0.579747
O15   O     O_R   0.314820 0.500000 0.386930 -0.601093
O16   O     O_R   0.499980 0.680900 0.613100 -0.554489
O17   O     O_R   0.500020 0.680940 0.386960 -0.562155
O18   O     O_R   0.685180 0.500000 0.613070 -0.577392
O19   O     O_R   0.685230 0.500040 0.386930 -0.577008
O20   O     O_2   0.959316 0.864681 0.541572 -0.210606
S1    S     S_3+6 0.863430 0.760914 0.539295 0.076427
S2    S     S_3+6 0.371009 0.881050 0.259559 0.091661
S3    S     S_3+6 0.615102 0.108191 0.260516 0.134865
S4    S     S_3+6 0.104637 0.322624 0.272283 0.071023
Zn1   Zn    Zn3+2 0.499970 0.499970 0.650990 1.086576
Zn2   Zn    Zn3+2 0.500030 0.500030 0.349010 1.149320

loop_
_geom_bond_atom_site_label_1
_geom_bond_atom_site_label_2
_ccdc_geom_bond_type
C4    O17   A    
C6    C10   S    
H13   N1    S    
C11   C12   S    
C5    C11   S    
C6    C7    S    
O9    S3    S    
C16   S3    S    
C2    N2    D    
C2    C18   S    
C9    S4    S    
O10   S4    D    
C9    C10   S    
C12   H2    S    
O18   Zn1   S    
C1    C17   S    
O1    Zn1   S    
C8    C12   S    
O17   Zn2   S    
C18   N1    D    
C4    C15   S    
C9    H3    S    
O14   Zn1   S    
N2    Zn2   S    
H8    O13   S    
C4    O16   A    
C15   F1    S    
C12   S1    S    
N1    Zn1   S    
O2    S1    D    
H6    O6    S    
C17   H11   S    
C5    O18   A    
O6    S2    S    
C6    H1    S    
C1    O1    A    
C1    O12   A    
C7    H16   S    
C6    H14   S    
C7    C11   S    
H15   N2    S    
C18   H12   S    
O19   Zn2   S    
O7    S3    D    
O13   S4    S    
C14   C16   S    
C13   H4    S    
C5    O19   A    
C2    F2    S    
O16   Zn1   S    
C8    H10   S    
H5    O3    S    
O5    S2    D    
C11   C13   S    
O15   Zn2   S    
O12   Zn2   S    
O3    S1    S    
C8    C10   S    
C3    C10   S    
C9    C13   S    
C14   C15   D    
O20   S1    D    
O8    S3    D    
H7    O9    S    
O4    S2    D    
C7    F3    S    
C3    O15   A    
C8    F4    S    
C13   H9    S    
O11   S4    D    
C3    O14   A    
C16   C17   D    
C14   S2    S    
