data_mof_unit_3810.cif
_audit_creation_date              2012-12-10T17:48:44-0500
_audit_creation_method            fapswitch 2.2
_symmetry_space_group_name_H-M    P1
_symmetry_Int_Tables_number       1
_space_group_crystal_system       triclinic
_cell_length_a                    15.691155
_cell_length_b                    10.685654
_cell_length_c                    9.991771
_cell_angle_alpha                 88.116995
_cell_angle_beta                  87.253476
_cell_angle_gamma                 91.371724
_cell_volume                      1671.94842821

loop_
_atom_site_label
_atom_site_type_symbol
_atom_type_description
_atom_site_fract_x
_atom_site_fract_y
_atom_site_fract_z
_atom_type_partial_charge
C1    C     C_R   0.510520 0.261296 0.502508 0.923981
C2    C     C_3   0.947942 0.403835 0.582757 0.169481
C3    C     C_3   0.917256 0.517698 0.497581 -0.075397
C4    C     C_3   0.946931 0.645344 0.555423 0.068194
C5    C     C_3   0.046561 0.649872 0.563675 0.268364
C6    C     C_1   0.825813 0.511662 0.491567 0.105473
C7    C     C_1   0.174880 0.521675 0.509146 0.103049
C8    C     C_1   0.250022 0.513186 0.507985 -0.082889
C9    C     C_R   0.514709 0.099047 0.762798 0.247218
C10   C     C_R   0.469845 0.037349 0.870880 -0.237836
C11   C     C_R   0.417775 0.932913 0.850014 0.465916
C12   C     C_R   0.338657 0.503103 0.502739 0.923127
C13   C     C_R   0.419885 0.880877 0.723471 -0.231739
C14   C     C_R   0.470787 0.936959 0.616350 -0.004446
C15   C     C_R   0.504738 0.057410 0.630737 0.031168
C16   C     C_R   0.526842 0.128383 0.511428 -0.073621
C17   C     C_R   0.546375 0.068090 0.392558 -0.178066
C18   C     C_R   0.531556 0.940919 0.386442 -0.154454
C19   C     C_R   0.492847 0.874910 0.497237 -0.063963
C20   C     C_R   0.350843 0.415717 0.141435 0.463018
C21   C     C_R   0.273142 0.452712 0.091817 -0.196024
C22   C     C_R   0.271683 0.515831 0.968379 -0.091761
C23   C     C_R   0.494880 0.740071 0.498653 0.860560
C24   C     C_R   0.346922 0.532590 0.889177 -0.058404
C25   C     C_R   0.424930 0.492791 0.936280 0.098089
C26   C     C_R   0.427388 0.464078 0.076199 0.048983
C27   C     C_R   0.571642 0.531734 0.061391 0.408185
C28   C     C_R   0.572560 0.517401 0.920634 -0.098121
C29   C     C_R   0.661421 0.500674 0.497167 0.899655
C30   C     C_3   0.045638 0.411155 0.590713 -0.438509
C31   C     C_3   0.057115 0.512557 0.359163 -0.046991
C32   C     C_3   0.958603 0.511934 0.352870 0.008102
C33   C     C_1   0.750418 0.505999 0.491454 -0.007609
C34   C     C_3   0.083281 0.525835 0.507102 -0.038492
H1    H     H_    0.931086 0.316155 0.532064 0.174259
H2    H     H_    0.064353 0.415082 0.696117 0.276727
H3    H     H_    0.931124 0.720532 0.481465 0.117226
H4    H     H_    0.571170 0.119965 0.303591 0.204993
H5    H     H_    0.478114 0.067958 0.971365 0.227775
H6    H     H_    0.382756 0.796186 0.709451 0.185476
H7    H     H_    0.550030 0.894727 0.295061 0.215872
H8    H     H_    0.072821 0.323395 0.551512 0.189613
H9    H     H_    0.213341 0.421790 0.142220 0.204495
H10   H     H_    0.211774 0.546665 0.931642 0.239107
H11   H     H_    0.344770 0.593018 0.802066 0.203275
H12   H     H_    0.631158 0.533118 0.860647 0.219547
H13   H     H_    0.081777 0.422694 0.321752 0.208083
H14   H     H_    0.939005 0.595344 0.293358 0.215828
H15   H     H_    0.071201 0.728354 0.495719 0.133926
N1    N     N_R   0.499210 0.498800 0.142780 -0.152105
N2    N     N_R   0.499180 0.498720 0.857170 -0.131086
O1    O     O_R   0.500000 0.316780 0.614690 -0.590962
O2    O     O_R   0.499990 0.316750 0.385360 -0.551403
O3    O     O_R   0.377150 0.500020 0.614720 -0.650326
O4    O     O_R   0.377140 0.499990 0.385380 -0.603411
O5    O     O_R   0.500010 0.683250 0.614640 -0.633397
O6    O     O_R   0.500000 0.683220 0.385310 -0.574701
O7    O     O_R   0.622860 0.500010 0.614620 -0.608885
O8    O     O_R   0.622850 0.499980 0.385280 -0.549021
Zn1   Zn    Zn3+2 0.500010 0.500020 0.653130 1.003501
Zn2   Zn    Zn3+2 0.499990 0.499980 0.346870 1.102436
Br1   Br    Br    0.892040 0.380331 0.761301 -0.254584
Br2   Br    Br    0.607822 0.208612 0.806487 -0.408662
S1    S     S_3+6 0.359458 0.856947 0.985210 0.034468
O9    O     O_2   0.279334 0.798117 0.936489 -0.235383
O10   O     O_2   0.413798 0.757946 0.045010 -0.368177
O11   O     O_3   0.332957 0.958112 0.103730 -0.490924
H16   H     H_    0.308111 0.905533 0.180052 0.403507
S2    S     S_3+6 0.664905 0.605175 0.118150 0.088032
O12   O     O_2   0.644402 0.695311 0.226427 -0.303998
O13   O     O_2   0.723814 0.507080 0.167944 -0.208955
O14   O     O_3   0.716640 0.685941 0.990206 -0.476907
H17   H     H_    0.677975 0.754231 0.966196 0.357876
S3    S     S_3+6 0.347336 0.262276 0.212459 0.051652
O15   O     O_2   0.329631 0.260585 0.361491 -0.314998
O16   O     O_2   0.276646 0.189665 0.151374 -0.232152
O17   O     O_3   0.440308 0.194432 0.175305 -0.571524
H18   H     H_    0.431329 0.106564 0.207795 0.395695
Br3   Br    Br    0.108788 0.643430 0.236891 -0.482501
Br4   Br    Br    0.918834 0.368152 0.253836 -0.339832
S4    S     S_3+6 0.084679 0.691418 0.725399 0.085689
O18   O     O_2   0.180478 0.692217 0.721509 -0.323072
O19   O     O_2   0.056178 0.821265 0.755656 -0.191367
O20   O     O_3   0.046165 0.590994 0.847985 -0.490603
H19   H     H_    0.056782 0.633303 0.932510 0.421161
Br5   Br    Br    0.878978 0.694441 0.715107 -0.235521

loop_
_geom_bond_atom_site_label_1
_geom_bond_atom_site_label_2
_ccdc_geom_bond_type
C2    H1    S    
C3    C6    S    
S4    O18   D    
C7    C8    T    
O3    Zn1   S    
O17   H18   S    
C28   H12   S    
S3    O16   D    
C24   H11   S    
C26   N1    A    
C28   N2    A    
C4    Br5   S    
O7    Zn1   S    
C15   C16   A    
C29   C33   S    
C18   C19   A    
S2    O13   D    
C1    O2    A    
C13   H6    S    
O1    Zn1   S    
C21   H9    S    
O2    Zn2   S    
O20   H19   S    
C22   H10   S    
C29   O8    A    
C16   C17   A    
S3    O17   S    
C9    C10   A    
C27   S2    S    
C27   N1    A    
C31   H13   S    
C13   C14   A    
C32   H14   S    
C5    H15   S    
C3    C32   S    
S4    O19   D    
O8    Zn2   S    
S3    O15   D    
C30   C34   S    
O11   H16   S    
S1    O11   S    
C23   O5    A    
C24   C25   A    
C11   S1    S    
C18   H7    S    
C4    C5    S    
C25   C26   A    
O5    Zn1   S    
C10   H5    S    
S1    O10   D    
S2    O14   S    
C19   C23   S    
C25   N2    A    
C32   Br4   S    
C5    S4    S    
C31   C32   S    
C8    C12   S    
C5    C34   S    
C20   C21   A    
C17   C18   A    
C31   C34   S    
C20   S3    S    
C1    C16   S    
C4    H3    S    
O6    Zn2   S    
C7    C34   S    
C22   C24   A    
C3    C4    S    
S4    O20   S    
C23   O6    A    
C9    Br2   S    
C14   C19   A    
O14   H17   S    
C31   Br3   S    
C6    C33   T    
C30   H2    S    
C2    C30   S    
S1    O9    D    
C2    C3    S    
C9    C15   A    
C11   C13   A    
C20   C26   A    
O4    Zn2   S    
C17   H4    S    
S2    O12   D    
C1    O1    A    
C12   O4    A    
C10   C11   A    
C29   O7    A    
C27   C28   A    
N1    Zn2   S    
C14   C15   A    
C30   H8    S    
N2    Zn1   S    
C21   C22   A    
C12   O3    A    
C2    Br1   S    
