data_mof_unit_1639.cif
_audit_creation_date              2012-12-10T16:57:02-0500
_audit_creation_method            fapswitch 2.2
_symmetry_space_group_name_H-M    P1
_symmetry_Int_Tables_number       1
_space_group_crystal_system       triclinic
_cell_length_a                    7.850712
_cell_length_b                    8.572338
_cell_length_c                    16.671901
_cell_angle_alpha                 93.015789
_cell_angle_beta                  80.383626
_cell_angle_gamma                 92.914745
_cell_volume                      1103.69501003

loop_
_atom_site_label
_atom_site_type_symbol
_atom_type_description
_atom_site_fract_x
_atom_site_fract_y
_atom_site_fract_z
_atom_type_partial_charge
C1    C     C_R   0.544781 0.794148 0.498991 0.936636
C2    C     C_R   0.397094 0.351620 0.238315 -0.254911
C3    C     C_R   0.606995 0.424116 0.854958 -0.240178
C4    C     C_R   0.409095 0.280734 0.161470 -0.283667
C5    C     C_R   0.450855 0.426598 0.908721 0.045863
C6    C     C_R   0.559660 0.302375 0.105031 0.056517
C7    C     C_R   0.297594 0.457596 0.881046 0.458455
C8    C     C_R   0.705451 0.382799 0.127916 0.500296
C9    C     C_R   0.296819 0.461956 0.796895 0.074302
C10   C     C_R   0.689375 0.467048 0.203444 0.023718
C11   C     C_2   0.447840 0.400288 0.994547 -0.196634
C12   C     C_R   0.454630 0.205698 0.502287 0.938968
C13   C     C_2   0.544307 0.293863 0.019235 -0.177624
C14   C     C_3   0.826747 0.591932 0.218481 -0.371296
C15   C     C_3   0.987655 0.524467 0.241473 -0.770206
C16   C     C_3   0.123708 0.444617 0.767663 -0.377875
C17   C     C_3   0.099139 0.284629 0.724795 -0.834312
C18   C     C_3   0.128360 0.628530 0.965852 0.119027
C19   C     C_3   0.963765 0.691940 0.945316 -0.845310
C20   C     C_3   0.964223 0.273154 0.081325 0.159941
C21   C     C_3   0.950033 0.140938 0.017859 -0.874376
C22   C     C_3   0.954098 0.219989 0.417401 0.178643
C23   C     C_2   0.567362 0.957089 0.501036 -0.390031
C24   C     C_3   0.064582 0.099931 0.364953 -0.934106
C25   C     C_3   0.939748 0.714676 0.620345 0.229113
C26   C     C_3   0.062932 0.833794 0.654250 -0.922865
C27   C     C_2   0.430040 0.042524 0.503044 -0.395845
C28   C     C_R   0.475207 0.494976 0.654747 0.846026
C29   C     C_R   0.523254 0.494409 0.345564 0.863042
C30   C     C_R   0.458618 0.471770 0.743003 -0.122060
C31   C     C_R   0.534054 0.446543 0.259779 -0.134167
C32   C     C_R   0.611459 0.451526 0.773821 -0.271393
H1    H     H_    0.735705 0.451559 0.734805 0.169857
H2    H     H_    0.954086 0.417932 0.276665 0.269234
H3    H     H_    0.081877 0.495591 0.186136 0.224916
H4    H     H_    0.864882 0.661039 0.163233 0.206405
H5    H     H_    0.773144 0.677776 0.267257 0.195083
H6    H     H_    0.979735 0.281288 0.697191 0.232880
H7    H     H_    0.209506 0.258082 0.676086 0.271056
H8    H     H_    0.086161 0.191744 0.769721 0.249749
H9    H     H_    0.014061 0.453836 0.818433 0.237387
H10   H     H_    0.109245 0.542215 0.729627 0.208520
H11   H     H_    0.239702 0.710039 0.943164 0.100253
H12   H     H_    0.279221 0.333987 0.281018 0.221620
H13   H     H_    0.117059 0.630655 0.033188 0.169780
H14   H     H_    0.851943 0.609395 0.962983 0.293792
H15   H     H_    0.936820 0.805133 0.979070 0.209913
H16   H     H_    0.978966 0.710920 0.879117 0.224930
H17   H     H_    0.942138 0.225454 0.143508 0.094735
H18   H     H_    0.099264 0.320636 0.070805 0.186075
H19   H     H_    0.057241 0.060860 0.016892 0.209194
H20   H     H_    0.825455 0.073604 0.033476 0.222386
H21   H     H_    0.959279 0.188168 0.956437 0.290430
H22   H     H_    0.842682 0.238504 0.386506 0.178183
H23   H     H_    0.627672 0.220714 0.976108 0.171042
H24   H     H_    0.915147 0.172037 0.478632 0.150843
H25   H     H_    0.193614 0.097480 0.383555 0.276859
H26   H     H_    0.999732 0.982029 0.371830 0.239198
H27   H     H_    0.080396 0.127784 0.299799 0.228147
H28   H     H_    0.926800 0.606368 0.654631 0.091004
H29   H     H_    0.809687 0.764529 0.630966 0.145415
H30   H     H_    0.067284 0.945115 0.622643 0.256888
H31   H     H_    0.017153 0.857241 0.720281 0.203266
H32   H     H_    0.194787 0.788921 0.646317 0.278843
H33   H     H_    0.368488 0.474286 0.039257 0.153384
H34   H     H_    0.297208 0.217166 0.144160 0.152742
H35   H     H_    0.726577 0.404428 0.876217 0.180276
H36   H     H_    0.696774 0.005743 0.501408 0.168119
H37   H     H_    0.299563 0.992899 0.503833 0.200878
H38   H     H_    0.051827 0.612582 0.279043 0.257925
N1    N     N_2   0.953500 0.457650 0.478520 0.149552
N2    N     N_2   0.046500 0.542350 0.521480 0.181537
O1    O     O_R   0.388470 0.738640 0.505270 -0.589070
O2    O     O_3   0.856057 0.396173 0.072091 -0.615152
O3    O     O_3   0.050084 0.360271 0.425161 -0.534355
O4    O     O_3   0.990709 0.688875 0.535735 -0.514735
O5    O     O_R   0.611530 0.261360 0.494730 -0.665029
O6    O     O_R   0.679650 0.711510 0.491500 -0.592487
O7    O     O_R   0.320350 0.288490 0.508500 -0.595762
O8    O     O_R   0.337210 0.515200 0.623500 -0.626365
O9    O     O_R   0.662790 0.484800 0.376500 -0.620671
O10   O     O_R   0.628380 0.488060 0.609730 -0.649932
O11   O     O_R   0.371620 0.511940 0.390270 -0.563658
O12   O     O_3   0.145366 0.471123 0.935840 -0.623340
Zn1   Zn    Zn3+2 0.305580 0.518120 0.509190 1.029888
Zn2   Zn    Zn3+2 0.694420 0.481880 0.490810 0.974683

loop_
_geom_bond_atom_site_label_1
_geom_bond_atom_site_label_2
_ccdc_geom_bond_type
C21   H21   S    
C21   H19   S    
N2    O4    S    
N2    Zn1   S    
C19   H14   S    
C22   H22   S    
C6    C13   S    
C20   H17   S    
C9    C16   S    
C29   O11   A    
C14   H4    S    
C19   H15   S    
C12   O7    A    
C18   C19   S    
C17   H7    S    
C26   H32   S    
C20   H18   S    
C10   C31   A    
C2    H12   S    
C24   H25   S    
C18   O12   S    
C25   H28   S    
C23   C27   D    
C15   H2    S    
O9    Zn2   S    
C27   H37   S    
O6    Zn2   S    
C7    O12   S    
C1    O6    A    
C22   O3    S    
C15   H3    S    
N1    O3    S    
C12   C27   S    
C28   O10   A    
C4    C6    A    
C10   C14   S    
C5    C7    A    
C19   H16   S    
C16   C17   S    
C22   H24   S    
C25   C26   S    
O10   Zn2   S    
C2    C31   A    
C17   H8    S    
C23   H36   S    
C2    C4    A    
C26   H31   S    
C29   O9    A    
O8    Zn1   S    
N1    Zn2   S    
C12   O5    A    
C8    O2    S    
C20   O2    S    
C25   H29   S    
O1    Zn1   S    
C9    C30   A    
C24   H26   S    
O11   Zn1   S    
O5    Zn2   S    
C1    C23   S    
C22   C24   S    
C18   H13   S    
C16   H10   S    
O7    Zn1   S    
C7    C9    A    
C15   H38   S    
C3    H35   S    
C3    C5    A    
C6    C8    A    
C5    C11   S    
C25   O4    S    
C1    O1    A    
C32   H1    S    
C28   C30   S    
C26   H30   S    
N1    N2    D    
C29   C31   S    
C18   H11   S    
C14   H5    S    
C30   C32   A    
C11   C13   D    
C24   H27   S    
C17   H6    S    
C3    C32   A    
C28   O8    A    
C20   C21   S    
C4    H34   S    
C8    C10   A    
C14   C15   S    
C16   H9    S    
C21   H20   S    
C11   H33   S    
C13   H23   S    
