data_mof_unit_4340.cif
_audit_creation_date              2013-03-05T15:49:31-0500
_audit_creation_method            fapswitch 2.2
_symmetry_space_group_name_H-M    P1
_symmetry_Int_Tables_number       1
_space_group_crystal_system       triclinic
_cell_length_a                    10.502358
_cell_length_b                    12.180288
_cell_length_c                    12.901326
_cell_angle_alpha                 95.784984
_cell_angle_beta                  92.551137
_cell_angle_gamma                 88.010992
_cell_volume                      1639.56932026

loop_
_atom_site_label
_atom_site_type_symbol
_atom_site_description
_atom_site_fract_x
_atom_site_fract_y
_atom_site_fract_z
_atom_type_partial_charge
O1    O     O_R   0.506170 0.421700 0.658830 -0.612053
O2    O     O_R   0.493830 0.578300 0.341170 -0.612054
O3    O     O_R   0.491330 0.609310 0.646410 -0.538650
O4    O     O_R   0.508670 0.390690 0.353590 -0.538649
C1    C     C_R   0.497890 0.524231 0.700629 0.924859
C2    C     C_R   0.502110 0.475769 0.299371 0.924862
O5    O     O_R   0.690650 0.406190 0.506220 -0.565220
O6    O     O_R   0.309350 0.593810 0.493780 -0.565211
O7    O     O_R   0.675800 0.593810 0.493800 -0.601156
O8    O     O_R   0.324200 0.406190 0.506200 -0.601157
C3    C     C_R   0.738858 0.498676 0.484519 0.904087
C4    C     C_R   0.261142 0.501324 0.515480 0.904091
Zn1   Zn    Zn3+2 0.509910 0.374730 0.508290 1.091773
Zn2   Zn    Zn3+2 0.490090 0.625270 0.491710 1.091775
H1    H     H_    0.914800 0.862093 0.414981 0.249851
H2    H     H_    0.085202 0.137905 0.585013 0.249851
C5    C     C_R   0.900023 0.293326 0.428876 0.327936
C6    C     C_R   0.099976 0.706674 0.571121 0.327941
C7    C     C_R   0.949518 0.198106 0.471239 0.359301
C8    C     C_R   0.050484 0.801893 0.528756 0.359296
C9    C     C_R   0.050676 0.207801 0.545887 -0.105164
C10   C     C_R   0.949325 0.792198 0.454109 -0.105174
C11   C     C_R   0.111863 0.307412 0.567811 -0.140582
C12   C     C_R   0.888137 0.692587 0.432187 -0.140584
C13   C     C_R   0.062564 0.402391 0.525129 0.039821
C14   C     C_R   0.937435 0.597608 0.474869 0.039822
C15   C     C_R   0.945407 0.397623 0.469369 -0.034386
C16   C     C_R   0.054593 0.602376 0.530630 -0.034385
C17   C     C_R   0.125331 0.502941 0.538440 -0.129927
C18   C     C_R   0.874668 0.497059 0.461558 -0.129926
H3    H     H_    0.194143 0.311084 0.621616 0.184714
H4    H     H_    0.805856 0.688914 0.378382 0.184713
C19   C     C_R   0.505035 0.458055 0.186280 -0.226857
C20   C     C_R   0.494964 0.541945 0.813720 -0.226856
C21   C     C_R   0.550572 0.642024 0.980811 0.367990
C22   C     C_R   0.449426 0.357976 0.019189 0.367990
C23   C     C_R   0.537541 0.638840 0.872316 0.229318
C24   C     C_R   0.462458 0.361160 0.127684 0.229318
C25   C     C_R   0.457970 0.453036 0.863882 -0.132640
C26   C     C_R   0.542028 0.546965 0.136118 -0.132643
C27   C     C_R   0.476106 0.452473 0.970567 -0.029953
C28   C     C_R   0.523892 0.547528 0.029433 -0.029953
H5    H     H_    0.582022 0.617689 0.182076 0.224744
H6    H     H_    0.417975 0.382312 0.817924 0.224745
N1    N     N_R   0.523130 0.207800 0.519340 -0.207267
N2    N     N_R   0.476870 0.792200 0.480660 -0.207264
C29   C     C_R   0.396237 0.943900 0.387543 0.237132
C30   C     C_R   0.603765 0.056101 0.612456 0.237135
C31   C     C_R   0.400675 0.830951 0.402819 0.276369
C32   C     C_R   0.599327 0.169049 0.597179 0.276375
C33   C     C_R   0.552200 0.862563 0.543557 0.507834
C34   C     C_R   0.447799 0.137437 0.456444 0.507833
C35   C     C_R   0.539577 0.979322 0.539954 -0.216107
C36   C     C_R   0.460423 0.020678 0.460046 -0.216107
N3    N     N_R   0.337175 0.976472 0.292608 0.282178
O9    O     O_R   0.216321 0.961278 0.271864 -0.200244
O10   O     O_R   0.408784 0.999492 0.218538 -0.187885
N4    N     N_R   0.662829 0.023529 0.707390 0.282176
O11   O     O_R   0.783683 0.038722 0.728133 -0.200242
O12   O     O_R   0.591221 0.000511 0.781462 -0.187887
Cl1   Cl    Cl    0.787142 0.282671 0.322726 -0.451503
Cl2   Cl    Cl    0.212857 0.717330 0.677272 -0.451502
N5    N     N_R   0.890515 0.094068 0.446837 0.218849
O13   O     O_R   0.864813 0.035687 0.521725 -0.386634
O14   O     O_R   0.863444 0.056438 0.350699 -0.265112
N6    N     N_R   0.109487 0.905931 0.553156 0.218846
O15   O     O_R   0.135186 0.964312 0.478268 -0.386637
O16   O     O_R   0.136561 0.943562 0.649294 -0.265116
N7    N     N_R   0.431231 0.266260 0.176785 0.264541
O17   O     O_R   0.317433 0.227150 0.161541 -0.219315
O18   O     O_R   0.523034 0.204461 0.212682 -0.219419
N8    N     N_R   0.568769 0.733740 0.823215 0.264541
O19   O     O_R   0.682567 0.772850 0.838459 -0.219315
O20   O     O_R   0.476967 0.795540 0.787318 -0.219420
Cl3   Cl    Cl    0.596398 0.766641 0.054184 -0.364255
Cl4   Cl    Cl    0.403600 0.233359 0.945816 -0.364256
Cl5   Cl    Cl    0.321006 0.196829 0.386210 -0.441666
Cl6   Cl    Cl    0.678994 0.803171 0.613790 -0.441664
N9    N     N_R   0.665814 0.244559 0.670890 0.254975
O21   O     O_R   0.778277 0.275505 0.650321 -0.359493
O22   O     O_R   0.631586 0.256960 0.767133 -0.310789
N10   N     N_R   0.334191 0.755441 0.329105 0.254974
O23   O     O_R   0.221740 0.724475 0.349678 -0.359494
O24   O     O_R   0.368412 0.743051 0.232861 -0.310781

loop_
_geom_bond_atom_site_label_1
_geom_bond_atom_site_label_2
_geom_bond_distance
_ccdc_geom_bond_type
N6    O16   1.300901 A    
N3    O9    1.301134 A    
N5    O14   1.300901 A    
H2    C9    1.077033 S    
C4    C17   1.468692 S    
C20   C23   1.411033 A    
C27   C28   1.413602 A    
C32   N9    1.430728 S    
C29   C31   1.408215 A    
C35   C36   1.416672 A    
O5    C3    1.311306 A    
N2    C31   1.367287 A    
C21   Cl3   1.775424 S    
O1    C1    1.311060 A    
C8    N6    1.430257 S    
C16   C17   1.408709 A    
C21   C23   1.397075 A    
C12   C14   1.403955 A    
N4    O12   1.300007 A    
O4    Zn1   2.024116 S    
N7    O18   1.300317 A    
C21   C28   1.407264 A    
C22   Cl4   1.775424 S    
C5    Cl1   1.768640 S    
H1    C10   1.077033 S    
C3    C18   1.468692 S    
C7    N5    1.430256 S    
C26   C28   1.381743 A    
N6    O15   1.298845 A    
C24   N7    1.427372 S    
C15   C18   1.408708 A    
C22   C27   1.407265 A    
O2    C2    1.311058 A    
C34   C36   1.428967 A    
C26   H5    1.081682 S    
C13   C17   1.402688 A    
C30   C35   1.419582 A    
C19   C26   1.391186 A    
C20   C25   1.391185 A    
C5    C15   1.414214 A    
C6    C16   1.414215 A    
N8    O20   1.300316 A    
N9    O22   1.300730 A    
C6    Cl2   1.768641 S    
N1    C34   1.366970 A    
N4    O11   1.301132 A    
N2    C33   1.366971 A    
N9    O21   1.298661 A    
Zn2   N2    2.052024 S    
C11   H3    1.083335 S    
C31   N10   1.430731 S    
O7    Zn2   1.974112 S    
C12   H4    1.083335 S    
O6    C4    1.311305 A    
C1    C20   1.454756 S    
O7    C3    1.312044 A    
O3    Zn2   2.024116 S    
O8    C4    1.312044 A    
C29   C36   1.419578 A    
O4    C2    1.305685 A    
C8    C10   1.401715 A    
C14   C18   1.402687 A    
N10   O24   1.300727 A    
N3    O10   1.300006 A    
C10   C12   1.390611 A    
O1    Zn1   1.970304 S    
C22   C24   1.397076 A    
C29   N3    1.433708 S    
O6    Zn2   1.951350 S    
C7    C9    1.401715 A    
N8    O19   1.301418 A    
O3    C1    1.305685 A    
O8    Zn1   1.974111 S    
C30   N4    1.433707 S    
C25   H6    1.081683 S    
C13   C15   1.397352 A    
C14   C16   1.397352 A    
C19   C24   1.411032 A    
C2    C19   1.454757 S    
C9    C11   1.390611 A    
C33   Cl6   1.753695 S    
Zn1   N1    2.052023 S    
N1    C32   1.367282 A    
C30   C32   1.408214 A    
C5    C7    1.405248 A    
C6    C8    1.405249 A    
C11   C13   1.403956 A    
N7    O17   1.301418 A    
O2    Zn2   1.970303 S    
N5    O13   1.298845 A    
O5    Zn1   1.951350 S    
C25   C27   1.381742 A    
N10   O23   1.298648 A    
C23   N8    1.427372 S    
C33   C35   1.428967 A    
C34   Cl5   1.753694 S    
