data_mof_unit_4927.cif
_audit_creation_date              2012-12-11T16:22:43-0500
_audit_creation_method            fapswitch 2.2
_symmetry_space_group_name_H-M    P1
_symmetry_Int_Tables_number       1
_space_group_crystal_system       triclinic
_cell_length_a                    17.16312
_cell_length_b                    16.820857
_cell_length_c                    19.398772
_cell_angle_alpha                 117.858422
_cell_angle_beta                  62.221124
_cell_angle_gamma                 100.435943
_cell_volume                      4375.89819914

loop_
_atom_site_label
_atom_site_type_symbol
_atom_type_description
_atom_site_fract_x
_atom_site_fract_y
_atom_site_fract_z
_atom_type_partial_charge
C1    C     C_R   0.025458 0.760120 0.025659 -0.162941
C2    C     C_R   0.226410 0.590158 0.841715 -0.051970
C3    C     C_R   0.193718 0.442997 0.044192 -0.249208
C4    C     C_R   0.750090 0.462684 0.171722 -0.240658
C5    C     C_R   0.022233 0.326645 0.749615 0.577639
C6    C     C_R   0.274667 0.455542 0.985935 -0.108345
C7    C     C_R   0.009486 0.240217 0.742563 -0.045217
C8    C     C_R   0.221962 0.575501 0.767840 0.025185
C9    C     C_R   0.995665 0.230824 0.036844 0.021347
C10   C     C_R   0.060311 0.861981 0.462241 0.458898
C11   C     C_R   0.029714 0.812244 0.399490 0.085625
C12   C     C_R   0.740681 0.522899 0.253396 -0.121015
C13   C     C_R   0.085482 0.793691 0.311560 -0.204776
C14   C     C_R   0.170323 0.829302 0.289437 0.574852
C15   C     C_R   0.191757 0.893359 0.355633 -0.393134
C16   C     C_R   0.816673 0.515028 0.915868 -0.167336
C17   C     C_R   0.135164 0.912511 0.441998 -0.148541
C18   C     C_R   0.148244 0.026989 0.575435 -0.157500
C19   C     C_R   0.110372 0.105069 0.652384 -0.242643
C20   C     C_R   0.047417 0.157973 0.662960 0.001626
C21   C     C_R   0.023808 0.133623 0.595793 0.619017
C22   C     C_R   0.068405 0.061464 0.516527 -0.290469
C23   C     C_R   0.743426 0.466783 0.939118 0.111635
C24   C     C_R   0.126345 0.004826 0.507767 0.189003
C25   C     C_R   0.523309 0.506986 0.424441 0.218136
C26   C     C_R   0.602092 0.484316 0.349316 -0.222406
C27   C     C_R   0.656376 0.551411 0.331050 0.133509
C28   C     C_R   0.014726 0.655109 0.238213 0.677025
C29   C     C_R   0.629746 0.642332 0.387625 -0.106980
C30   C     C_R   0.548582 0.665529 0.459899 -0.189621
C31   C     C_R   0.496086 0.598550 0.480093 0.099125
C32   C     C_R   0.420322 0.668207 0.641936 0.118055
C33   C     C_R   0.346431 0.670912 0.716497 0.481192
C34   C     C_R   0.056269 0.734796 0.244066 -0.064904
C35   C     C_R   0.275881 0.615239 0.707013 -0.079517
C36   C     C_R   0.267213 0.585102 0.630200 -0.177023
C37   C     C_R   0.336239 0.592368 0.558661 -0.173815
C38   C     C_R   0.416124 0.624223 0.561718 -0.024810
C39   C     C_R   0.674834 0.450634 0.911464 0.085959
C40   C     C_R   0.750130 0.434215 0.989696 -0.134221
C41   C     C_R   0.361856 0.430550 0.966504 0.110522
C42   C     C_R   0.463866 0.337857 0.954347 -0.183140
C43   C     C_R   0.378424 0.356302 0.972746 -0.167037
C44   C     C_R   0.430440 0.484133 0.940112 -0.229749
C45   C     C_R   0.259097 0.510523 0.957843 0.509138
C46   C     C_R   0.515789 0.462794 0.915111 0.008503
C47   C     C_R   0.532177 0.392550 0.927833 0.146443
C48   C     C_R   0.613709 0.385255 0.923287 -0.296604
C49   C     C_R   0.662565 0.510997 0.886189 -0.336957
C50   C     C_R   0.583692 0.515642 0.884532 0.511479
C51   C     C_R   0.810121 0.184624 0.178817 0.056948
C52   C     C_R   0.075700 0.737865 0.167013 -0.236479
C53   C     C_R   0.935066 0.864395 0.022701 0.118907
C54   C     C_R   0.861464 0.953662 0.998987 -0.194192
C55   C     C_R   0.899649 0.872007 0.973540 -0.181456
C56   C     C_R   0.964338 0.247806 0.826135 -0.272793
C57   C     C_R   0.933482 0.941096 0.097097 -0.235983
C58   C     C_R   0.894397 0.023268 0.123625 0.149736
C59   C     C_R   0.857396 0.029239 0.074455 0.191804
C60   C     C_R   0.815256 0.110149 0.102699 -0.376559
C61   C     C_R   0.848546 0.180660 0.226812 0.573674
C62   C     C_R   0.889489 0.098990 0.199784 -0.420004
C63   C     C_R   0.824491 0.552513 0.246443 0.615210
C64   C     C_R   0.946963 0.691334 0.949484 -0.135503
C65   C     C_R   0.969198 0.775716 0.998983 0.049126
C66   C     C_3   0.000259 0.414828 0.696475 0.144932
C67   C     C_R   0.153366 0.518975 0.764157 -0.069653
C68   C     C_3   0.924170 0.373511 0.672339 -0.225826
C69   C     C_3   0.877016 0.441552 0.671355 -1.084366
C70   C     C_3   0.037573 0.835546 0.575562 0.202409
C71   C     C_3   0.000244 0.741742 0.558306 -0.261455
C72   C     C_3   0.029106 0.694362 0.593799 -1.048390
C73   C     C_3   0.278627 0.731541 0.163752 0.201053
C74   C     C_3   0.355041 0.747494 0.188444 -0.335798
C75   C     C_3   0.420403 0.666517 0.131297 -0.962432
C76   C     C_3   0.873670 0.140820 0.648611 0.128072
C77   C     C_3   0.847989 0.064309 0.580350 -0.295549
C78   C     C_R   0.031416 0.312491 0.071350 -0.117813
C79   C     C_3   0.757266 0.031231 0.622518 -0.903617
C80   C     C_3   0.284179 0.791709 0.849980 0.161639
C81   C     C_3   0.316221 0.872459 0.828983 -0.269029
C82   C     C_3   0.248254 0.951352 0.891045 -1.013322
C83   C     C_3   0.633472 0.581363 0.789444 0.195772
C84   C     C_3   0.679206 0.670981 0.808028 -0.278418
C85   C     C_3   0.752481 0.672587 0.724624 -0.963364
C86   C     C_3   0.083443 0.587996 0.276684 0.161585
C87   C     C_3   0.072351 0.508833 0.298023 -0.250970
C88   C     C_3   0.158714 0.482509 0.288351 -1.035823
C89   C     C_R   0.953850 0.244692 0.996592 -0.094904
C90   C     C_3   0.917727 0.284453 0.308370 0.176813
C91   C     C_3   0.916781 0.282837 0.386988 -0.253457
C92   C     C_3   0.998750 0.323644 0.399769 -1.014272
C93   C     C_3   0.821945 0.688584 0.246627 0.140994
C94   C     C_3   0.827293 0.790306 0.294939 -0.233953
C95   C     C_3   0.809893 0.840248 0.254643 -1.019383
C96   C     C_3   0.346029 0.446452 0.810700 0.167070
C97   C     C_3   0.421763 0.464878 0.737856 -0.252716
C98   C     C_3   0.449766 0.381289 0.650921 -0.944984
H1    H     H_    0.057424 0.809868 0.063161 0.105120
H2    H     H_    0.190741 0.982058 0.570202 0.118144
H3    H     H_    0.505794 0.396753 0.599978 0.293771
H4    H     H_    0.394210 0.359924 0.632717 0.287502
H5    H     H_    0.128022 0.122890 0.704515 0.151701
H6    H     H_    0.048725 0.042340 0.465379 0.142804
H7    H     H_    0.623019 0.413968 0.306884 0.161678
H8    H     H_    0.669968 0.696300 0.377567 0.146980
H9    H     H_    0.528203 0.735996 0.502210 0.150319
H10   H     H_    0.837907 0.541399 0.869220 0.091459
H11   H     H_    0.211323 0.548466 0.621667 0.142135
H12   H     H_    0.331500 0.561962 0.497727 0.155160
H13   H     H_    0.625382 0.335321 0.938240 0.128589
H14   H     H_    0.940533 0.193211 0.844104 0.140453
H15   H     H_    0.710024 0.560844 0.876126 0.134078
H16   H     H_    0.475974 0.283212 0.963440 0.126962
H17   H     H_    0.325681 0.314293 0.993245 0.125449
H18   H     H_    0.417335 0.546254 0.943063 0.214144
H19   H     H_    0.785469 0.115731 0.066611 0.153866
H20   H     H_    0.833873 0.957302 0.960339 0.126091
H21   H     H_    0.915835 0.094264 0.238832 0.151410
H22   H     H_    0.900947 0.814677 0.915381 0.117066
H23   H     H_    0.959855 0.936396 0.136138 0.126603
H24   H     H_    0.709644 0.385618 0.011162 0.091893
H25   H     H_    0.123776 0.507244 0.722993 0.102826
H26   H     H_    0.118832 0.783727 0.143011 0.183407
H27   H     H_    0.905359 0.677623 0.917575 0.094119
H28   H     H_    0.041198 0.447248 0.653217 0.133753
H29   H     H_    0.975415 0.469204 0.763878 0.073931
H30   H     H_    0.950923 0.317532 0.605936 0.256721
H31   H     H_    0.876156 0.348021 0.719411 0.194149
H32   H     H_    0.852050 0.501833 0.734764 0.266450
H33   H     H_    0.820360 0.409929 0.656990 0.280063
H34   H     H_    0.922649 0.463004 0.620257 0.277237
H35   H     H_    0.015313 0.875691 0.646606 0.129303
H36   H     H_    0.059811 0.328579 0.115359 0.083116
H37   H     H_    0.111122 0.830496 0.545603 0.067140
H38   H     H_    0.927037 0.748004 0.589544 0.238309
H39   H     H_    0.023437 0.699934 0.487348 0.201719
H40   H     H_    0.102137 0.685983 0.562442 0.270840
H41   H     H_    0.001088 0.626748 0.579990 0.278556
H42   H     H_    0.005018 0.733779 0.665138 0.268835
H43   H     H_    0.306359 0.707887 0.092546 0.148976
H44   H     H_    0.237990 0.676548 0.177687 0.056897
H45   H     H_    0.390229 0.807618 0.181531 0.224511
H46   H     H_    0.328668 0.760026 0.257118 0.190618
H47   H     H_    0.910625 0.198308 0.971638 0.090403
H48   H     H_    0.386067 0.604377 0.133298 0.266359
H49   H     H_    0.471127 0.677628 0.154819 0.269928
H50   H     H_    0.454054 0.657938 0.063446 0.282891
H51   H     H_    0.821627 0.195690 0.689252 0.131107
H52   H     H_    0.874729 0.117542 0.693502 0.101897
H53   H     H_    0.847387 0.088316 0.536056 0.206573
H54   H     H_    0.897009 0.006883 0.541395 0.227870
H55   H     H_    0.757043 0.005218 0.665751 0.276094
H56   H     H_    0.740748 0.975933 0.571400 0.279303
H57   H     H_    0.706220 0.086795 0.660833 0.248511
H58   H     H_    0.263036 0.639992 0.873000 0.186617
H59   H     H_    0.271618 0.813166 0.917971 0.136744
H60   H     H_    0.219645 0.770908 0.847567 0.086004
H61   H     H_    0.379210 0.893918 0.834177 0.231533
H62   H     H_    0.328196 0.852952 0.761524 0.189873
H63   H     H_    0.185072 0.931612 0.885953 0.269670
H64   H     H_    0.273037 0.008665 0.874221 0.272867
H65   H     H_    0.236356 0.973542 0.958962 0.269401
H66   H     H_    0.601334 0.575001 0.749072 0.141777
H67   H     H_    0.683138 0.523801 0.749258 0.085831
H68   H     H_    0.629843 0.726801 0.840301 0.226998
H69   H     H_    0.181196 0.405244 0.080190 0.140044
H70   H     H_    0.707935 0.682527 0.852540 0.186186
H71   H     H_    0.803732 0.618600 0.692248 0.266388
H72   H     H_    0.783829 0.738528 0.740185 0.268619
H73   H     H_    0.725166 0.662997 0.679525 0.294714
H74   H     H_    0.104234 0.646086 0.322518 0.098423
H75   H     H_    0.136424 0.569044 0.209655 0.081610
H76   H     H_    0.021139 0.527368 0.365754 0.211264
H77   H     H_    0.050235 0.450191 0.253670 0.182436
H78   H     H_    0.210775 0.463264 0.220894 0.269017
H79   H     H_    0.149012 0.424144 0.303070 0.278324
H80   H     H_    0.698509 0.430536 0.152182 0.146264
H81   H     H_    0.180630 0.539544 0.334105 0.273744
H82   H     H_    0.923793 0.355072 0.317046 0.129969
H83   H     H_    0.977452 0.245747 0.248548 0.071778
H84   H     H_    0.857364 0.321652 0.446353 0.217698
H85   H     H_    0.913521 0.212251 0.377962 0.191486
H86   H     H_    0.059264 0.286545 0.341015 0.270238
H87   H     H_    0.996932 0.319230 0.455843 0.281365
H88   H     H_    0.000900 0.395634 0.413208 0.269554
H89   H     H_    0.756740 0.675391 0.245184 0.093513
H90   H     H_    0.871138 0.665054 0.177705 0.112902
H91   H     H_    0.249240 0.932669 0.340085 0.188114
H92   H     H_    0.777919 0.814678 0.363966 0.216842
H93   H     H_    0.893738 0.805990 0.292753 0.220093
H94   H     H_    0.857887 0.816170 0.185315 0.277140
H95   H     H_    0.816974 0.913515 0.289292 0.274215
H96   H     H_    0.741999 0.829327 0.259722 0.272284
H97   H     H_    0.290492 0.419489 0.792893 0.119885
H98   H     H_    0.370061 0.393315 0.815857 0.105047
H99   H     H_    0.401875 0.520080 0.732322 0.232377
H100  H     H_    0.478777 0.486264 0.753615 0.208945
H101  H     H_    0.471170 0.325346 0.654448 0.256628
I1    I     I_    0.892871 0.783617 0.447764 -0.358143
I2    I     I_    0.454672 0.398916 0.452068 -0.435269
I3    I     I_    0.538970 0.720255 0.653589 -0.392315
N1    N     N_R   0.034930 0.670790 0.995440 -0.037971
N2    N     N_R   0.867000 0.509260 0.948460 -0.046709
N3    N     N_R   0.003780 0.616410 0.165900 -0.103187
N4    N     N_R   0.825670 0.461520 0.995440 -0.036465
N5    N     N_R   0.045120 0.664150 0.118920 -0.087744
N6    N     N_R   0.884940 0.497570 0.165910 -0.106826
N7    N     N_R   0.985840 0.628110 0.948460 -0.043933
N8    N     N_R   0.174330 0.538480 0.004560 -0.091526
N9    N     N_R   0.954880 0.335850 0.881080 -0.058228
N10   N     N_R   0.115060 0.502430 0.834090 -0.062489
N11   N     N_R   0.014160 0.371890 0.051540 -0.037652
N12   N     N_R   0.965070 0.329210 0.004560 -0.035043
N13   N     N_R   0.164150 0.545120 0.881070 -0.055518
N14   N     N_R   0.133000 0.490740 0.051540 -0.073619
N15   N     N_R   0.996220 0.383590 0.834100 -0.111714
N16   N     N_R   0.835850 0.454880 0.118930 -0.067332
Ni1   Ni    Ni4+2 0.103690 0.603690 0.000000 0.192166
Ni2   Ni    Ni4+2 0.896310 0.396310 0.000000 0.191506
Ni3   Ni    Ni4+2 0.991110 0.505800 0.892250 0.188078
Ni4   Ni    Ni4+2 0.008890 0.494200 0.107750 0.222097
O1    O     O_3   0.055476 0.348810 0.680746 -0.657379
O2    O     O_3   0.318339 0.527950 0.888556 -0.686149
O3    O     O_3   0.004528 0.880856 0.548078 -0.636589
O4    O     O_3   0.227997 0.812212 0.204597 -0.661632
O5    O     O_3   0.953931 0.176698 0.608217 -0.690169
O6    O     O_3   0.349469 0.720340 0.795602 -0.651757
O7    O     O_3   0.566670 0.581521 0.868292 -0.673747
O8    O     O_3   0.001983 0.609328 0.286140 -0.639260
O9    O     O_3   0.836464 0.254683 0.304645 -0.653747
O10   O     O_3   0.835678 0.643769 0.287479 -0.638603

loop_
_geom_bond_atom_site_label_1
_geom_bond_atom_site_label_2
_ccdc_geom_bond_type
C25   C31   A    
C66   C68   S    
C87   C88   S    
C58   C62   A    
C93   C94   S    
C81   H61   S    
C6    C45   A    
C91   H85   S    
C30   H9    S    
C27   C29   A    
C52   N5    A    
N7    Ni3   S    
C73   C74   S    
C54   C55   A    
C49   H15   S    
C35   C36   A    
C51   C61   A    
C70   O3    S    
C83   H66   S    
C33   O6    S    
C1    H1    S    
C97   C98   S    
C80   H59   S    
C3    H69   S    
C88   H79   S    
C71   H39   S    
C73   H43   S    
N11   N12   A    
C89   H47   S    
N9    Ni2   S    
C83   H67   S    
C16   N2    A    
C26   C27   A    
C85   H73   S    
C98   H101  S    
C83   C84   S    
C86   H74   S    
C7    C56   A    
C36   C37   A    
C80   O6    S    
C14   O4    S    
C25   I2    S    
C69   H34   S    
C30   C31   A    
N2    Ni3   S    
C92   H88   S    
C82   H65   S    
C10   C17   A    
N6    Ni4   S    
C23   C40   A    
N3    Ni4   S    
C22   H6    S    
C66   H29   S    
C26   H7    S    
C50   O7    S    
C18   C19   A    
C49   C50   A    
C94   H93   S    
C13   C34   S    
C43   H17   S    
C11   I1    S    
C19   H5    S    
C68   H31   S    
C42   H16   S    
C96   H97   S    
C5    N15   A    
C19   C20   A    
C68   C69   S    
C96   O2    S    
C6    C41   S    
C10   O3    S    
C1    C65   A    
N10   N13   A    
C70   C71   S    
C32   C38   A    
C4    C12   A    
C29   C30   A    
C53   C65   S    
C68   H30   S    
C54   C59   A    
C3    C6    A    
C72   H40   S    
C15   H91   S    
C28   C34   A    
C2    N13   A    
C95   H95   S    
C81   H62   S    
C21   C22   A    
C76   O5    S    
N15   Ni3   S    
C28   N3    A    
C41   C43   A    
N1    N7    A    
C77   H53   S    
C94   C95   S    
C18   H2    S    
N10   Ni3   S    
N9    N15   A    
C77   H54   S    
C25   C26   A    
C44   C46   A    
C81   C82   S    
C40   N4    A    
C55   H22   S    
C53   C55   A    
C75   H48   S    
N6    N16   A    
C21   O5    S    
C90   H82   S    
C17   C24   S    
C74   C75   S    
C12   C27   S    
C86   O8    S    
C97   H99   S    
C67   N10   A    
C84   C85   S    
C56   N9    A    
C92   H86   S    
C9    C89   A    
C91   C92   S    
C5    C7    A    
C12   C63   A    
C53   C57   A    
C92   H87   S    
C69   H32   S    
C82   H64   S    
N4    Ni2   S    
C3    N14   A    
C98   H4    S    
C73   H44   S    
C78   N11   A    
N8    Ni1   S    
C66   H28   S    
C8    C35   S    
C94   H92   S    
C59   C60   A    
C37   C38   A    
C84   H70   S    
N13   Ni1   S    
C79   H55   S    
N11   Ni4   S    
C80   H60   S    
C47   C48   A    
C90   H83   S    
C76   H52   S    
C69   H33   S    
C96   C97   S    
C62   H21   S    
C77   C79   S    
C60   H19   S    
C76   C77   S    
C78   H36   S    
C64   N7    A    
C44   H18   S    
C37   H12   S    
C95   H94   S    
C9    C78   A    
C93   H89   S    
C93   O10   S    
C5    O1    S    
N2    N4    A    
C7    C20   S    
C95   H96   S    
C4    N16   A    
C63   N6    A    
C54   H20   S    
C70   H37   S    
C41   C44   A    
C18   C24   A    
C29   H8    S    
C74   H45   S    
C42   C43   A    
C72   H42   S    
C1    N1    A    
C28   O8    S    
C71   H38   S    
C40   H24   S    
C88   H81   S    
C15   C17   A    
C87   H76   S    
C74   H46   S    
C46   C47   A    
C2    H58   S    
C39   C49   A    
C86   C87   S    
C45   O2    S    
C34   C52   A    
C97   H100  S    
C83   O7    S    
C2    C8    A    
C85   H72   S    
C4    H80   S    
C66   O1    S    
C57   H23   S    
C67   H25   S    
C82   H63   S    
C75   H50   S    
C16   C23   A    
C98   H3    S    
C87   H77   S    
C46   C50   A    
N5    Ni1   S    
C45   N8    A    
C88   H78   S    
C31   C38   S    
N1    Ni1   S    
N16   Ni2   S    
C63   O10   S    
C86   H75   S    
C75   H49   S    
C64   C65   A    
C58   C59   A    
C71   C72   S    
N12   Ni2   S    
C32   C33   A    
C79   H56   S    
C11   C13   A    
C33   C35   A    
C90   C91   S    
C73   O4    S    
C76   H51   S    
C70   H35   S    
N8    N14   A    
C52   H26   S    
C61   O9    S    
C56   H14   S    
C22   C24   A    
C42   C47   A    
C32   I3    S    
C61   C62   A    
C90   O9    S    
C85   H71   S    
C80   C81   S    
N14   Ni4   S    
C84   H68   S    
C10   C11   A    
C16   H10   S    
C79   H57   S    
C93   H90   S    
C96   H98   S    
C48   H13   S    
C20   C21   A    
C72   H41   S    
C8    C67   A    
C64   H27   S    
C91   H84   S    
C36   H11   S    
C14   C15   A    
C39   C48   A    
C51   C60   A    
C57   C58   A    
C13   C14   A    
N3    N5    A    
C23   C39   S    
C89   N12   A    
