data_mof_unit_2967.cif
_audit_creation_date              2012-12-10T17:07:11-0500
_audit_creation_method            fapswitch 2.2
_symmetry_space_group_name_H-M    P1
_symmetry_Int_Tables_number       1
_space_group_crystal_system       triclinic
_cell_length_a                    18.364613
_cell_length_b                    18.285267
_cell_length_c                    18.350207
_cell_angle_alpha                 119.808375
_cell_angle_beta                  119.931745
_cell_angle_gamma                 60.154616
_cell_volume                      4370.84232177

loop_
_atom_site_label
_atom_site_type_symbol
_atom_type_description
_atom_site_fract_x
_atom_site_fract_y
_atom_site_fract_z
_atom_type_partial_charge
C1    C     C_R   0.139363 0.864451 0.644220 0.810675
C2    C     C_R   0.753576 0.164566 0.842824 0.140720
C3    C     C_R   0.738570 0.210165 0.789762 -0.029543
C4    C     C_R   0.765864 0.158310 0.715018 -0.034075
C5    C     C_R   0.696216 0.303583 0.803542 -0.153558
C6    C     C_R   0.709990 0.340763 0.761052 0.018567
C7    C     C_R   0.784873 0.290789 0.733893 -0.000615
C8    C     C_R   0.803575 0.196398 0.696378 -0.158342
C9    C     C_R   0.657475 0.424792 0.747101 0.117860
C10   C     C_R   0.696730 0.467628 0.738486 -0.172655
C11   C     C_R   0.785760 0.428203 0.743287 0.103341
C12   C     C_R   0.861421 0.140101 0.360111 0.820632
C13   C     C_R   0.831843 0.338984 0.742193 0.116199
C14   C     C_R   0.916022 0.279386 0.386080 -0.216894
C15   C     C_R   0.940435 0.347619 0.400317 -0.143080
C16   C     C_R   0.887018 0.402373 0.347542 0.167851
C17   C     C_R   0.808530 0.387848 0.279353 -0.212090
C18   C     C_R   0.781232 0.320369 0.265093 0.072337
C19   C     C_R   0.835570 0.265462 0.319537 0.055283
C20   C     C_R   0.809324 0.196367 0.303903 -0.074962
C21   C     C_R   0.732506 0.179958 0.232867 0.087561
C22   C     C_R   0.680322 0.233493 0.179295 -0.264297
C23   C     C_R   0.139996 0.140462 0.642332 0.808559
C24   C     C_R   0.702587 0.304225 0.195923 -0.082532
C25   C     C_R   0.830840 0.758009 0.431465 0.135960
C26   C     C_R   0.782507 0.760736 0.472714 -0.138840
C27   C     C_R   0.693859 0.765379 0.427439 -0.235409
C28   C     C_R   0.656106 0.754224 0.336313 0.141016
C29   C     C_R   0.708355 0.740868 0.291185 0.030854
C30   C     C_R   0.787199 0.762890 0.343495 0.017017
C31   C     C_R   0.815310 0.791894 0.305771 -0.116715
C32   C     C_R   0.783009 0.772420 0.213583 -0.266330
C33   C     C_R   0.722302 0.726866 0.158557 0.080757
C34   C     C_R   0.864710 0.855185 0.360527 0.815845
C35   C     C_R   0.685487 0.708347 0.196790 -0.091133
C36   C     C_R   0.067743 0.838616 0.742139 -0.197845
C37   C     C_R   0.026442 0.803106 0.756716 -0.164548
C38   C     C_R   0.070933 0.719558 0.767337 0.167075
C39   C     C_R   0.160657 0.676369 0.772689 -0.171871
C40   C     C_R   0.206777 0.717341 0.769139 0.029834
C41   C     C_R   0.155517 0.791171 0.738908 0.096968
C42   C     C_R   0.193851 0.813709 0.705649 -0.110437
C43   C     C_R   0.285410 0.777771 0.721875 -0.273660
C44   C     C_R   0.339880 0.718513 0.768959 0.094393
C45   C     C_R   0.140498 0.863989 0.360375 0.793237
C46   C     C_R   0.301502 0.688116 0.794415 -0.101829
C47   C     C_R   0.336502 0.837395 0.433624 -0.205307
C48   C     C_R   0.427798 0.802192 0.476275 0.167034
C49   C     C_R   0.476672 0.717953 0.430567 0.089798
C50   C     C_R   0.435734 0.676460 0.340313 -0.257488
C51   C     C_R   0.345939 0.717647 0.294246 0.078191
C52   C     C_R   0.292967 0.790521 0.345325 0.058097
C53   C     C_R   0.198743 0.813123 0.305984 -0.077265
C54   C     C_R   0.160440 0.777792 0.213576 -0.214107
C55   C     C_R   0.213738 0.719783 0.160729 -0.217642
C56   C     C_R   0.859843 0.140145 0.640151 0.802192
C57   C     C_R   0.306522 0.689134 0.199606 -0.079190
C58   C     C_R   0.327716 0.079313 0.755933 -0.156775
C59   C     C_R   0.419360 0.036363 0.778394 -0.237416
C60   C     C_R   0.472685 0.071708 0.780459 0.148989
C61   C     C_R   0.435413 0.155970 0.770822 0.170691
C62   C     C_R   0.344468 0.207229 0.765450 -0.006646
C63   C     C_R   0.288521 0.161169 0.739981 0.023600
C64   C     C_R   0.195937 0.197799 0.697868 -0.131906
C65   C     C_R   0.159444 0.286856 0.698641 0.091718
C66   C     C_R   0.213536 0.339823 0.745691 0.046410
C67   C     C_R   0.756660 0.072009 0.667594 0.146475
C68   C     C_R   0.306407 0.301558 0.784793 -0.169607
C69   C     C_R   0.635423 0.645002 0.140091 0.838339
C70   C     C_R   0.360526 0.359654 0.853610 0.807643
C71   C     C_R   0.641741 0.360116 0.139872 0.797575
C72   C     C_R   0.359569 0.636267 0.855855 0.811288
C73   C     C_R   0.360434 0.636685 0.140693 0.806362
C74   C     C_R   0.640092 0.359884 0.859839 0.791936
C75   C     C_R   0.755363 0.029603 0.712941 0.057275
C76   C     C_R   0.763233 0.073209 0.803842 0.061166
H1    H     H_    0.288450 0.048319 0.752377 0.165410
O1    O     O_3   0.000000 0.000000 0.500000 -0.474062
O2    O     O_R   0.055100 0.176520 0.615800 -0.634918
O3    O     O_R   0.884180 0.884200 0.444920 -0.671702
O4    O     O_R   0.176510 0.884190 0.615800 -0.642822
O5    O     O_R   0.884210 0.055080 0.323480 -0.620032
O6    O     O_3   0.499970 0.500030 0.999970 -0.471981
O7    O     O_R   0.615800 0.615830 0.055050 -0.613624
O8    O     O_R   0.444880 0.323510 0.884180 -0.657863
O9    O     O_R   0.615760 0.444950 0.176490 -0.651213
O10   O     O_R   0.323460 0.615830 0.884170 -0.665281
O11   O     O_R   0.444880 0.615840 0.176480 -0.663301
O12   O     O_R   0.055060 0.884200 0.615800 -0.671273
O13   O     O_R   0.615800 0.444940 0.884180 -0.648706
O14   O     O_R   0.323440 0.615840 0.055040 -0.639360
O15   O     O_R   0.615780 0.323500 0.884180 -0.671808
O16   O     O_R   0.615760 0.323500 0.055050 -0.652657
O17   O     O_R   0.444910 0.615830 0.884180 -0.622867
O18   O     O_R   0.615780 0.615830 0.176490 -0.646042
O19   O     O_R   0.323430 0.444950 0.884170 -0.656894
O20   O     O_R   0.884210 0.176520 0.444920 -0.650137
O21   O     O_R   0.176540 0.055080 0.615800 -0.656444
O22   O     O_R   0.884190 0.884200 0.323480 -0.636475
O23   O     O_R   0.176540 0.884190 0.444930 -0.647346
O24   O     O_R   0.884180 0.055090 0.615790 -0.663106
O25   O     O_R   0.055100 0.884190 0.323490 -0.647029
O26   O     O_R   0.884190 0.176530 0.615790 -0.648914
Zn1   Zn    Zn3+2 0.956630 0.130130 0.543370 0.947952
Zn2   Zn    Zn3+2 0.130140 0.956620 0.543380 0.952237
Zn3   Zn    Zn3+2 0.956630 0.956620 0.369870 0.972379
Zn4   Zn    Zn3+2 0.956610 0.956630 0.543370 0.921331
Zn5   Zn    Zn3+2 0.543340 0.369890 0.956600 0.923867
Zn6   Zn    Zn3+2 0.543340 0.543410 0.130100 0.947715
Zn7   Zn    Zn3+2 0.369830 0.543410 0.956590 0.942477
Zn8   Zn    Zn3+2 0.543370 0.543400 0.956600 0.964419
N1    N     N_3   0.827715 0.478899 0.747099 -0.465108
H2    H     H_    0.883082 0.482477 0.805358 0.196206
H3    H     H_    0.850206 0.444613 0.692651 0.191242
H4    H     H_    0.961951 0.237188 0.426990 0.158456
H5    H     H_    0.002013 0.357266 0.452121 0.137160
N2    N     N_3   0.913711 0.472247 0.363765 -0.448667
H6    H     H_    0.971372 0.441939 0.347077 0.176357
H7    H     H_    0.865289 0.509993 0.321812 0.183560
H8    H     H_    0.770652 0.428661 0.236962 0.143198
H9    H     H_    0.620351 0.221210 0.125666 0.155988
H10   H     H_    0.805149 0.792126 0.183282 0.175865
N3    N     N_3   0.925782 0.735522 0.474352 -0.446121
H11   H     H_    0.939807 0.788726 0.532374 0.232872
H12   H     H_    0.957244 0.721809 0.432570 0.181112
H13   H     H_    0.813732 0.759904 0.540455 0.159746
H14   H     H_    0.655078 0.775034 0.462501 0.150167
N4    N     N_3   0.562479 0.767915 0.293352 -0.441751
H15   H     H_    0.528478 0.833491 0.325360 0.173431
H16   H     H_    0.548367 0.725549 0.303503 0.220148
N5    N     N_3   0.731251 0.034486 0.571978 -0.425869
H17   H     H_    0.719980 0.078622 0.544188 0.178545
H18   H     H_    0.781603 0.974848 0.554431 0.240913
N6    N     N_3   0.696266 0.702626 0.063936 -0.411820
H19   H     H_    0.669375 0.760825 0.048496 0.177419
H20   H     H_    0.753387 0.661908 0.045604 0.184516
H21   H     H_    0.315796 0.795824 0.698247 0.178990
H22   H     H_    0.030683 0.904348 0.735858 0.173410
H23   H     H_    0.958778 0.839582 0.757215 0.130816
N7    N     N_3   0.024488 0.680118 0.773778 -0.462932
H24   H     H_    0.009194 0.720077 0.832637 0.175183
H25   H     H_    0.065993 0.617133 0.780059 0.180064
H26   H     H_    0.191933 0.609704 0.776099 0.156317
N8    N     N_3   0.434160 0.688066 0.788506 -0.431861
H27   H     H_    0.455496 0.743705 0.826235 0.185068
H28   H     H_    0.446506 0.658354 0.728408 0.179023
H29   H     H_    0.088831 0.795504 0.181655 0.173474
H30   H     H_    0.301338 0.903095 0.470000 0.181791
N9    N     N_3   0.467523 0.851862 0.566832 -0.459563
H31   H     H_    0.462540 0.911374 0.566833 0.175991
H32   H     H_    0.535446 0.818113 0.591531 0.199577
N10   N     N_3   0.746314 0.942650 0.665973 -0.459596
H33   H     H_    0.800993 0.898322 0.698240 0.163085
H34   H     H_    0.688767 0.946422 0.668286 0.192215
N11   N     N_3   0.567815 0.674644 0.474827 -0.481105
H35   H     H_    0.606090 0.660576 0.439398 0.184080
H36   H     H_    0.572772 0.613668 0.471570 0.196745
H37   H     H_    0.474683 0.610338 0.308823 0.185176
H38   H     H_    0.181882 0.697834 0.089077 0.171276
N12   N     N_3   0.066624 0.324698 0.652781 -0.420255
H39   H     H_    0.061184 0.346370 0.606662 0.190661
H40   H     H_    0.037434 0.379946 0.699164 0.191555
H41   H     H_    0.448164 0.972719 0.788534 0.149177
N13   N     N_3   0.564687 0.021397 0.790527 -0.477424
H42   H     H_    0.595343 0.008072 0.850327 0.176134
H43   H     H_    0.568728 0.960303 0.738510 0.176192
N14   N     N_3   0.484996 0.178789 0.748933 -0.441466
H44   H     H_    0.446153 0.235150 0.728767 0.174690
H45   H     H_    0.540814 0.190402 0.804415 0.242936
N15   N     N_3   0.172378 0.431038 0.747924 -0.479458
H46   H     H_    0.168185 0.473304 0.811251 0.213929
H47   H     H_    0.209145 0.445803 0.731213 0.188778
N16   N     N_3   0.781023 0.025975 0.857262 -0.449100
H48   H     H_    0.731580 0.997541 0.827847 0.192228
H49   H     H_    0.841995 0.974282 0.857590 0.177638
N17   N     N_3   0.776220 0.203401 0.938160 -0.430970
H50   H     H_    0.726667 0.210351 0.955973 0.240564
H51   H     H_    0.782820 0.265586 0.961618 0.171386
N18   N     N_3   0.562330 0.459484 0.724615 -0.461488
H52   H     H_    0.538200 0.414203 0.717102 0.176753
H53   H     H_    0.545503 0.519067 0.775134 0.242207
H54   H     H_    0.658398 0.532625 0.730005 0.158865
N19   N     N_3   0.927407 0.306647 0.767482 -0.470667
H55   H     H_    0.944944 0.297550 0.716710 0.232183
H56   H     H_    0.955450 0.246540 0.779815 0.181251
N20   N     N_3   0.705815 0.110152 0.216621 -0.441215
H57   H     H_    0.641976 0.138895 0.220835 0.175360
H58   H     H_    0.701979 0.066606 0.151476 0.190124

loop_
_geom_bond_atom_site_label_1
_geom_bond_atom_site_label_2
_ccdc_geom_bond_type
O24   Zn4   S    
C66   C68   A    
C40   C41   A    
N11   H36   S    
C41   C42   A    
C19   C20   A    
C4    C8    A    
N4    H15   S    
C8    C56   S    
C6    C9    A    
N1    H3    S    
N9    H31   S    
C7    C8    A    
N14   H45   S    
O10   Zn7   S    
C53   C54   A    
C50   H37   S    
C40   C46   A    
O3    Zn4   S    
O23   Zn2   S    
C37   C38   A    
O21   Zn2   S    
C12   C20   S    
O1    Zn2   S    
C18   C24   A    
O14   Zn7   S    
C28   C29   A    
N7    H25   S    
C56   O24   A    
N9    H32   S    
O16   Zn5   S    
C5    C6    A    
C33   C35   A    
N3    H12   S    
N15   H46   S    
C1    O4    A    
C15   C16   A    
O17   Zn8   S    
C58   C63   A    
O6    Zn5   S    
C18   C19   A    
C26   H13   S    
C74   O15   A    
C5    C74   S    
C58   H1    S    
C2    N17   S    
C47   H30   S    
C27   H14   S    
C33   N6    S    
O15   Zn5   S    
C31   C32   A    
C16   C17   A    
C13   N19   S    
C36   C37   A    
O6    Zn6   S    
O25   Zn3   S    
C51   C57   A    
O8    Zn5   S    
C9    C10   A    
C46   C72   S    
C17   H8    S    
C72   O17   A    
C55   H38   S    
C45   C53   S    
C59   C60   A    
C48   N9    S    
N13   H42   S    
C36   C41   A    
O13   Zn8   S    
C65   N12   S    
N1    H2    S    
C44   C46   A    
C17   C18   A    
N11   H35   S    
N16   H49   S    
C38   C39   A    
O4    Zn2   S    
O6    Zn7   S    
O7    Zn8   S    
O1    Zn1   S    
C51   C52   A    
C32   H10   S    
N3    H11   S    
O9    Zn6   S    
N7    H24   S    
C73   O14   A    
N8    H28   S    
O18   Zn6   S    
C16   N2    S    
N14   H44   S    
N6    H20   S    
C69   O18   A    
C58   C59   A    
N16   H48   S    
O19   Zn7   S    
C3    C4    A    
C63   C64   A    
N4    H16   S    
O1    Zn4   S    
C61   N14   S    
N12   H40   S    
C73   O11   A    
C70   O19   A    
C75   C76   A    
N19   H55   S    
C29   C30   A    
C54   H29   S    
C71   O9    A    
C47   C48   A    
C75   N10   S    
C44   N8    S    
O12   Zn4   S    
C62   C63   A    
C34   O22   A    
C26   C27   A    
C31   C34   S    
C12   O5    A    
C50   C51   A    
N10   H33   S    
C25   N3    S    
C12   O20   A    
N6    H19   S    
O11   Zn6   S    
N17   H50   S    
C39   H26   S    
C49   C50   A    
C10   C11   A    
C55   C57   A    
C43   C44   A    
C10   H54   S    
O6    Zn8   S    
O2    Zn1   S    
C67   C75   A    
C42   C43   A    
N20   H58   S    
N5    H17   S    
C3    C5    A    
O26   Zn1   S    
C72   O10   A    
C2    C76   A    
C52   C53   A    
C22   H9    S    
C25   C30   A    
O22   Zn3   S    
C54   C55   A    
C76   N16   S    
C1    O12   A    
C11   N1    S    
C14   C15   A    
C57   C73   S    
C14   C19   A    
C66   N15   S    
C67   N5    S    
C56   O26   A    
N10   H34   S    
N8    H27   S    
N5    H18   S    
C45   O23   A    
C9    N18   S    
C4    C67   A    
C6    C7    A    
C71   O16   A    
C21   N20   S    
C29   C35   A    
C62   C68   A    
O1    Zn3   S    
C34   O3    A    
C64   C65   A    
C74   O13   A    
N2    H7    S    
C2    C3    A    
C25   C26   A    
C23   C64   S    
C69   O7    A    
N2    H6    S    
C32   C33   A    
C11   C13   A    
C30   C31   A    
N15   H47   S    
C48   C49   A    
N13   H43   S    
C60   N13   S    
C43   H21   S    
C22   C24   A    
O5    Zn3   S    
C49   N11   S    
C61   C62   A    
N12   H39   S    
O20   Zn1   S    
C59   H41   S    
C45   O25   A    
N18   H52   S    
C39   C40   A    
C28   N4    S    
C1    C42   S    
C7    C13   A    
C23   O21   A    
C20   C21   A    
C35   C69   S    
N19   H56   S    
C68   C70   S    
C65   C66   A    
C37   H23   S    
C47   C52   A    
C27   C28   A    
C38   N7    S    
C15   H5    S    
C60   C61   A    
C23   O2    A    
N20   H57   S    
C21   C22   A    
C70   O8    A    
C36   H22   S    
C14   H4    S    
C24   C71   S    
N17   H51   S    
N18   H53   S    
