data_mof_unit_4763.cif
_audit_creation_date              2012-12-10T17:29:22-0500
_audit_creation_method            fapswitch 2.2
_symmetry_space_group_name_H-M    P1
_symmetry_Int_Tables_number       1
_space_group_crystal_system       triclinic
_cell_length_a                    12.044957
_cell_length_b                    12.920078
_cell_length_c                    13.121951
_cell_angle_alpha                 86.372742
_cell_angle_beta                  113.537539
_cell_angle_gamma                 93.139573
_cell_volume                      1867.43707432

loop_
_atom_site_label
_atom_site_type_symbol
_atom_type_description
_atom_site_fract_x
_atom_site_fract_y
_atom_site_fract_z
_atom_type_partial_charge
C1    C     C_R   0.477593 0.299680 0.498066 0.914805
C2    C     C_R   0.611592 0.492362 0.829510 -0.115888
C3    C     C_R   0.534767 0.811871 0.502936 -0.080280
C4    C     C_R   0.566724 0.493181 0.708714 0.863158
C5    C     C_R   0.463652 0.188667 0.496270 -0.118653
C6    C     C_R   0.349533 0.030781 0.505069 0.475986
C7    C     C_R   0.361836 0.138750 0.505038 -0.325644
C8    C     C_R   0.554881 0.132540 0.487954 -0.280650
C9    C     C_R   0.547481 0.025961 0.492436 0.122965
C10   C     C_R   0.445646 0.974346 0.503134 0.075153
C11   C     C_R   0.442002 0.867224 0.510629 -0.234148
C12   C     C_R   0.558613 0.489493 0.989366 0.090491
C13   C     C_R   0.635009 0.863281 0.492243 -0.196192
C14   C     C_R   0.641600 0.970508 0.487498 -0.193581
C15   C     C_R   0.997973 0.582640 0.383188 -0.289978
C16   C     C_R   0.522411 0.700464 0.502284 0.881730
C17   C     C_R   0.119841 0.581302 0.396496 0.257330
C18   C     C_R   0.162855 0.462318 0.552449 -0.042363
C19   C     C_R   0.040823 0.465928 0.543627 -0.018883
C20   C     C_R   0.958415 0.527506 0.457362 -0.010543
C21   C     C_R   0.837245 0.533467 0.446633 -0.063412
C22   C     C_R   0.875845 0.419205 0.603663 -0.105424
C23   C     C_R   0.536375 0.454653 0.883209 0.093027
C24   C     C_R   0.997416 0.408887 0.616555 0.394297
C25   C     C_R   0.433349 0.503903 0.291526 0.866907
C26   C     C_R   0.276384 0.384614 0.018134 -0.175392
C27   C     C_R   0.391795 0.489537 0.173554 -0.051711
C28   C     C_R   0.721883 0.544218 0.889325 -0.189546
C29   C     C_R   0.753092 0.565165 0.000069 -0.149296
C30   C     C_R   0.671211 0.540847 0.049310 -0.187552
C31   C     C_3   0.139079 0.013515 0.433681 0.073102
C32   C     C_3   0.065027 0.065602 0.486238 -0.344033
C33   C     C_3   0.937478 0.087657 0.400617 -0.981747
C34   C     C_R   0.467073 0.471481 0.030735 0.077220
C35   C     C_3   0.040545 0.241090 0.685029 0.027493
C36   C     C_3   0.005761 0.192944 0.778159 -0.338911
C37   C     C_3   0.962632 0.079951 0.757168 -0.943486
C38   C     C_3   0.153331 0.647445 0.312951 -0.402780
C39   C     C_3   0.127525 0.762345 0.312723 -0.407130
C40   C     C_3   0.179654 0.829229 0.241009 -0.871952
C41   C     C_R   0.365605 0.404829 0.975368 0.173564
C42   C     C_R   0.356230 0.357668 0.879674 -0.212938
C43   C     C_R   0.439196 0.383696 0.832682 -0.225273
C44   C     C_R   0.473361 0.518346 0.125555 -0.247521
C45   C     C_R   0.290461 0.425655 0.118358 -0.212910
H1    H     H_    0.227227 0.402144 0.156051 0.153290
H2    H     H_    0.226381 0.413171 0.616584 0.164200
H3    H     H_    0.198919 0.333686 0.976813 0.143863
H4    H     H_    0.545330 0.573421 0.168037 0.133236
H5    H     H_    0.781686 0.571981 0.849281 0.158559
H6    H     H_    0.699680 0.560665 0.134894 0.123459
H7    H     H_    0.838653 0.604580 0.046490 0.138827
H8    H     H_    0.427947 0.346551 0.757329 0.151655
H9    H     H_    0.366416 0.826683 0.521856 0.204954
H10   H     H_    0.086138 0.944172 0.392572 0.165440
H11   H     H_    0.148589 0.065546 0.366151 0.123042
H12   H     H_    0.707226 0.820879 0.486389 0.160761
H13   H     H_    0.058435 0.014370 0.555052 0.236258
H14   H     H_    0.110591 0.139860 0.520797 0.198464
H15   H     H_    0.941840 0.140507 0.332078 0.271165
H16   H     H_    0.885581 0.125191 0.440700 0.252920
H17   H     H_    0.888716 0.014229 0.365667 0.263995
H18   H     H_    0.120759 0.200831 0.687646 0.153363
H19   H     H_    0.965626 0.226093 0.602680 0.137803
H20   H     H_    0.085575 0.196371 0.858707 0.213212
H21   H     H_    0.932328 0.237140 0.784225 0.218666
H22   H     H_    0.880652 0.074715 0.678384 0.263996
H23   H     H_    0.719550 0.009993 0.479285 0.137858
H24   H     H_    0.939472 0.046717 0.826604 0.266902
H25   H     H_    0.035112 0.033678 0.751975 0.263118
H26   H     H_    0.279702 0.823355 0.274521 0.265544
H27   H     H_    0.139776 0.803869 0.153996 0.264031
H28   H     H_    0.158055 0.911669 0.240720 0.242229
H29   H     H_    0.028494 0.774103 0.279703 0.214810
H30   H     H_    0.169120 0.787998 0.399387 0.248053
H31   H     H_    0.249163 0.644838 0.330937 0.272446
H32   H     H_    0.102292 0.617796 0.228502 0.178139
H33   H     H_    0.293048 0.183593 0.513422 0.166997
H34   H     H_    0.633253 0.171593 0.479871 0.170235
H35   H     H_    0.774281 0.581685 0.380581 0.129928
H36   H     H_    0.843304 0.378369 0.661291 0.143642
H37   H     H_    0.933507 0.627688 0.314758 0.133470
H38   H     H_    0.284119 0.301513 0.840473 0.184695
N1    N     N_R   0.798200 0.480260 0.519790 -0.116355
N2    N     N_R   0.201820 0.519740 0.480210 -0.120661
O1    O     O_R   0.579910 0.341070 0.505280 -0.620028
O2    O     O_3   0.074383 0.347324 0.703321 -0.668771
O3    O     O_R   0.388440 0.353740 0.492580 -0.632287
O4    O     O_R   0.643280 0.490550 0.663120 -0.616594
O5    O     O_R   0.451810 0.503220 0.650420 -0.605554
O6    O     O_R   0.611560 0.646260 0.507420 -0.616689
O7    O     O_R   0.420090 0.658930 0.494720 -0.634287
O8    O     O_R   0.548190 0.496780 0.349580 -0.609271
O9    O     O_R   0.356720 0.509450 0.336880 -0.646490
O10   O     O_3   0.250448 0.979623 0.517065 -0.661806
Zn1   Zn    Zn3+2 0.627850 0.491540 0.508480 0.938066
Zn2   Zn    Zn3+2 0.372150 0.508460 0.491520 0.928093

loop_
_geom_bond_atom_site_label_1
_geom_bond_atom_site_label_2
_ccdc_geom_bond_type
C44   H4    S    
C30   H6    S    
C25   O8    A    
C40   H26   S    
C37   H24   S    
C41   C42   A    
C19   C20   A    
C32   H13   S    
C18   H2    S    
C38   H31   S    
C45   H1    S    
C12   C23   A    
C1    C5    S    
C36   C37   S    
C38   C39   S    
C36   H21   S    
C13   H12   S    
C23   C43   A    
C40   H28   S    
C18   C19   A    
N1    Zn1   S    
C39   H29   S    
C26   C45   A    
O6    Zn1   S    
C35   O2    S    
C27   C44   A    
C43   H8    S    
C35   C36   S    
C8    C9    A    
C8    H34   S    
C35   H19   S    
C39   H30   S    
C31   H11   S    
C9    C10   A    
O5    Zn2   S    
O3    Zn2   S    
C3    C13   A    
N2    Zn2   S    
C26   H3    S    
C27   C45   A    
C1    O3    A    
C25   O9    A    
C37   H25   S    
C34   C41   A    
C28   H5    S    
O7    Zn2   S    
C15   H37   S    
C4    O5    A    
C15   C20   A    
C18   N2    A    
C22   H36   S    
C34   C44   A    
C39   C40   S    
C5    C7    A    
C36   H20   S    
C33   H17   S    
O9    Zn2   S    
C22   N1    A    
C2    C4    S    
C9    C14   A    
C29   C30   A    
C31   C32   S    
C21   N1    A    
C11   H9    S    
O1    Zn1   S    
C7    H33   S    
C16   O7    A    
O8    Zn1   S    
C17   N2    A    
C25   C27   S    
C42   C43   A    
C12   C34   A    
C4    O4    A    
C1    O1    A    
C15   C17   A    
C28   C29   A    
C40   H27   S    
C12   C30   A    
C42   H38   S    
C6    C10   A    
C5    C8    A    
C35   H18   S    
C6    C7    A    
C38   H32   S    
C33   H15   S    
C32   C33   S    
O4    Zn1   S    
C19   C24   A    
C31   O10   S    
C37   H22   S    
C21   H35   S    
C22   C24   A    
C17   C38   S    
C24   O2    S    
C3    C11   A    
C10   C11   A    
C20   C21   A    
C16   O6    A    
C33   H16   S    
C6    O10   S    
C2    C23   A    
C14   H23   S    
C2    C28   A    
C32   H14   S    
C31   H10   S    
C13   C14   A    
C3    C16   S    
C26   C41   A    
C29   H7    S    
