data_mof_unit_829.cif
_audit_creation_date              2013-03-05T16:08:13-0500
_audit_creation_method            fapswitch 2.2
_symmetry_space_group_name_H-M    P1
_symmetry_Int_Tables_number       1
_space_group_crystal_system       triclinic
_cell_length_a                    6.952045
_cell_length_b                    14.522733
_cell_length_c                    16.078444
_cell_angle_alpha                 89.95831
_cell_angle_beta                  89.971245
_cell_angle_gamma                 90.052758
_cell_volume                      1623.32168804

loop_
_atom_site_label
_atom_site_type_symbol
_atom_site_description
_atom_site_fract_x
_atom_site_fract_y
_atom_site_fract_z
_atom_type_partial_charge
O1    O     O_R   0.505720 0.583900 0.413310 -0.593234
O2    O     O_R   0.175940 0.594920 0.586080 -0.599806
O3    O     O_R   0.005640 0.416100 0.586690 -0.587925
C1    C     C_R   0.344868 0.617025 0.614803 0.940808
O4    O     O_R   0.176000 0.594930 0.413930 -0.600823
O5    O     O_R   0.005700 0.416110 0.413310 -0.597802
C2    C     C_R   0.344827 0.616917 0.385319 0.962796
O6    O     O_R   0.505660 0.583890 0.586690 -0.596274
O7    O     O_3   0.339200 0.441330 0.500000 -0.271555
V1    V     V_3+5 0.064350 0.510880 0.500000 1.145222
O8    O     O_R   0.675980 0.405080 0.413920 -0.594837
C3    C     C_R   0.845043 0.383090 0.385084 0.932422
O9    O     O_R   0.675920 0.405070 0.586070 -0.590175
C4    C     C_R   0.844574 0.383156 0.614638 0.944798
V2    V     V_3+5 0.564340 0.489120 0.500000 1.152231
O10   O     O_3   0.839360 0.558670 0.500000 -0.279954
H1    H     H_    0.151246 0.098589 0.516894 0.144945
C5    C     C_R   0.690816 0.423028 0.778300 -0.174718
C6    C     C_R   0.619920 0.445438 0.856751 -0.118332
C7    C     C_R   0.635121 0.382916 0.921837 -0.116442
C8    C     C_R   0.720674 0.297398 0.908865 -0.155211
C9    C     C_R   0.792176 0.272191 0.829583 0.119198
C10   C     C_R   0.778048 0.336610 0.762982 0.121346
C11   C     C_R   0.880154 0.185265 0.816509 -0.312587
C12   C     C_R   0.954835 0.163035 0.736826 0.125176
C13   C     C_R   0.941822 0.227676 0.670352 0.116954
C14   C     C_R   0.854041 0.314659 0.683445 -0.318870
C15   C     C_R   0.039261 0.076043 0.721219 -0.178522
C16   C     C_R   0.110210 0.053622 0.642772 -0.118700
C17   C     C_R   0.097317 0.116601 0.577940 -0.088242
C18   C     C_R   0.013470 0.202480 0.591094 -0.161456
H2    H     H_    0.676970 0.474473 0.730150 0.116914
H3    H     H_    0.553965 0.511962 0.867179 0.113391
H4    H     H_    0.581205 0.400917 0.982883 0.108244
H5    H     H_    0.731549 0.251926 0.961954 0.099135
H6    H     H_    0.050128 0.024057 0.769078 0.112097
H7    H     H_    0.174239 0.986705 0.632126 0.125869
H8    H     H_    0.003754 0.248186 0.538129 0.112911
C19   C     C_R   0.728310 0.182084 0.241900 0.236219
C20   C     C_R   0.882117 0.182426 0.185509 -0.233147
C21   C     C_R   0.033446 0.244673 0.200869 -0.152484
H9    H     H_    0.155658 0.247279 0.159403 0.133163
C22   C     C_R   0.022206 0.308795 0.266437 -0.150344
H10   H     H_    0.136678 0.358608 0.273632 0.130561
C23   C     C_R   0.859008 0.312824 0.318446 -0.237195
C24   C     C_R   0.716753 0.245779 0.306557 0.173023
C25   C     C_3   0.505389 0.257188 0.295375 -0.480227
C26   C     C_3   0.517878 0.187380 0.225237 -0.471630
H11   H     H_    0.467745 0.327586 0.273739 0.183884
H12   H     H_    0.422458 0.231880 0.349938 0.210975
H13   H     H_    0.486684 0.217033 0.162937 0.181320
H14   H     H_    0.442964 0.121538 0.239415 0.224124
C27   C     C_R   0.509937 0.684128 0.740267 0.152179
C28   C     C_R   0.353407 0.682655 0.685347 -0.220026
C29   C     C_R   0.200757 0.743653 0.701646 -0.156843
H15   H     H_    0.077653 0.745433 0.660767 0.142643
C30   C     C_R   0.211477 0.807518 0.767364 -0.162649
H16   H     H_    0.095285 0.855998 0.775503 0.129324
C31   C     C_R   0.375894 0.812911 0.818392 -0.216974
C32   C     C_R   0.521040 0.747834 0.805045 0.161524
C33   C     C_3   0.730296 0.763334 0.791263 -0.472632
C34   C     C_3   0.718531 0.694009 0.720889 -0.462152
H17   H     H_    0.818494 0.739131 0.844610 0.194264
H18   H     H_    0.761185 0.834565 0.769656 0.189716
H19   H     H_    0.800950 0.630050 0.733593 0.186500
H20   H     H_    0.742854 0.724856 0.658450 0.196843
C35   C     C_R   0.472750 0.671631 0.247764 0.157335
C36   C     C_R   0.352108 0.684180 0.316400 -0.246439
C37   C     C_R   0.227783 0.760638 0.314976 -0.275251
H21   H     H_    0.128345 0.771306 0.365990 0.163116
C38   C     C_R   0.238975 0.827490 0.251015 0.381858
C39   C     C_R   0.373791 0.816813 0.184855 -0.374978
C40   C     C_R   0.482143 0.735471 0.183590 0.121745
C41   C     C_3   0.692495 0.719544 0.171452 -0.423896
C42   C     C_3   0.681951 0.649913 0.242185 -0.470271
H22   H     H_    0.780571 0.780884 0.186785 0.245514
H23   H     H_    0.724465 0.687549 0.110207 0.172674
H24   H     H_    0.763302 0.671598 0.298428 0.213712
H25   H     H_    0.708078 0.577944 0.221604 0.173847
O11   O     O_R   0.229140 0.916090 0.913340 -0.605415
O12   O     O_R   0.558860 0.905090 0.086080 -0.578329
O13   O     O_R   0.729100 0.083920 0.086690 -0.599586
C43   C     C_R   0.389604 0.884868 0.116287 0.988616
O14   O     O_R   0.558860 0.905090 0.913930 -0.599334
O15   O     O_R   0.729100 0.083920 0.913310 -0.593540
C44   C     C_R   0.389753 0.883172 0.885042 0.928759
O16   O     O_R   0.229140 0.916080 0.086720 -0.556716
O17   O     O_3   0.395570 0.058660 0.000020 -0.285634
V3    V     V_3+5 0.670450 0.989140 0.000000 1.178065
O18   O     O_R   0.058810 0.094980 0.913910 -0.598194
C45   C     C_R   0.890072 0.116886 0.885377 0.926978
O19   O     O_R   0.058810 0.094980 0.086060 -0.587140
C46   C     C_R   0.890003 0.117127 0.114741 1.007635
V4    V     V_3+5 0.170450 0.010950 0.999970 1.183932
O20   O     O_3   0.895460 0.941370 0.999990 -0.263705
N1    N     N_R   0.128754 0.910257 0.259874 0.220668
O21   O     O_R   0.151282 0.960815 0.325919 -0.430714
O22   O     O_R   0.980502 0.924659 0.212398 -0.424268

loop_
_geom_bond_atom_site_label_1
_geom_bond_atom_site_label_2
_geom_bond_distance
_ccdc_geom_bond_type
C43   O16   1.295018 A    
C29   H15   1.079673 S    
C21   H9    1.080339 S    
C6    C7    1.389111 A    
C20   C46   1.482770 S    
C1    O6    1.298550 A    
O15   C45   1.296713 A    
C25   H11   1.111219 S    
C27   C28   1.401893 A    
C12   C15   1.416053 A    
C13   C14   1.419210 A    
O13   V3    2.001506 S    
C41   H22   1.108472 S    
C15   C16   1.393012 A    
O14   C44   1.303555 A    
O5    C3    1.297386 A    
C17   C18   1.393408 A    
C30   C31   1.409500 A    
V2    O10   2.161529 S    
O16   V4    2.002256 S    
C37   C38   1.415816 A    
C5    C6    1.392910 A    
C40   C41   1.493499 S    
C33   H17   1.111626 S    
O11   C44   1.297351 A    
C2    C36   1.477490 S    
C24   C25   1.489839 S    
O8    V2    2.002659 S    
C26   H13   1.111580 S    
C36   C37   1.407922 A    
C41   H23   1.111585 S    
N1    O22   1.299865 A    
C35   C40   1.388143 A    
C10   C14   1.419979 A    
C4    C14   1.488762 S    
O7    V1    2.162130 S    
O18   C45   1.299541 A    
O12   V3    2.000511 S    
C31   C32   1.399755 A    
O13   C46   1.298881 A    
C8    C9    1.416477 A    
H1    C17   1.082848 S    
C21   C22   1.409310 A    
C37   H21   1.083740 S    
O4    V1    2.000563 S    
O12   C43   1.305862 A    
C27   C32   1.395743 A    
O18   V4    2.001657 S    
C25   H12   1.111641 S    
O17   V4    1.710980 S    
C41   C42   1.522980 S    
C34   H20   1.111830 S    
C5    C10   1.416058 A    
C11   C12   1.419669 A    
C6    H3    1.082918 S    
C19   C20   1.401585 A    
O4    C2    1.299886 A    
O15   V3    1.999826 S    
C3    C23   1.483376 S    
C38   N1    1.433216 S    
C12   C13   1.424989 A    
C23   C24   1.400473 A    
C35   C36   1.397894 A    
C32   C33   1.488321 S    
V3    O20   1.711799 S    
C33   H18   1.111725 S    
O2    C1    1.302158 A    
C22   H10   1.081289 S    
C16   C17   1.389258 A    
C27   C34   1.489874 S    
C25   C26   1.519473 S    
N1    O21   1.300907 A    
O19   V4    2.002681 S    
V4    O20   2.161549 S    
O17   V3    2.162111 S    
C22   C23   1.410378 A    
O3    C4    1.297238 A    
C19   C24   1.394397 A    
O1    V2    2.000584 S    
C20   C21   1.408483 A    
O6    V2    2.001680 S    
O9    V2    2.001784 S    
C9    C11   1.419023 A    
C5    H2    1.079898 S    
O14   V3    2.002167 S    
O11   V4    2.001922 S    
O2    V1    2.002190 S    
C11   C45   1.488479 S    
C28   C29   1.407629 A    
C34   H19   1.110693 S    
C1    C28   1.483235 S    
O1    C2    1.297985 A    
C13   C18   1.416459 A    
C39   C40   1.401773 A    
O5    V1    2.001407 S    
O8    C3    1.303347 A    
C8    H5    1.081558 S    
C18   H8    1.081520 S    
C29   C30   1.408434 A    
O7    V2    1.711577 S    
C31   C44   1.483356 S    
C7    H4    1.082779 S    
C38   C39   1.426031 A    
O3    V1    1.999909 S    
V1    O10   1.711790 S    
C30   H16   1.079998 S    
O19   C46   1.301422 A    
C33   C34   1.517302 S    
C42   H24   1.112372 S    
C39   C43   1.484058 S    
C26   H14   1.111839 S    
C35   C42   1.491134 S    
C7    C8    1.393315 A    
C15   H6    1.080348 S    
C16   H7    1.082969 S    
C9    C10   1.424914 A    
O9    C4    1.299235 A    
C42   H25   1.111623 S    
C19   C26   1.489446 S    
