data_mof_unit_2300.cif
_audit_creation_date              2013-03-05T15:55:19-0500
_audit_creation_method            fapswitch 2.2
_symmetry_space_group_name_H-M    P1
_symmetry_Int_Tables_number       1
_space_group_crystal_system       triclinic
_cell_length_a                    14.757031
_cell_length_b                    14.731255
_cell_length_c                    33.180966
_cell_angle_alpha                 95.781163
_cell_angle_beta                  96.001487
_cell_angle_gamma                 60.971831
_cell_volume                      6262.14043919

loop_
_atom_site_label
_atom_site_type_symbol
_atom_site_description
_atom_site_fract_x
_atom_site_fract_y
_atom_site_fract_z
_atom_type_partial_charge
O1    O     O_R   0.679450 0.499830 0.463150 -0.546139
O2    O     O_R   0.480650 0.664000 0.464630 -0.543659
C1    C     C_R   0.390620 0.700310 0.446072 0.793308
O3    O     O_R   0.323930 0.675950 0.455370 -0.504402
O4    O     O_R   0.354700 0.475360 0.451930 -0.492004
C2    C     C_R   0.404907 0.385448 0.434259 0.877060
O5    O     O_R   0.494470 0.320860 0.448390 -0.556306
O6    O     O_R   0.662580 0.357570 0.460050 -0.541051
C3    C     C_R   0.700986 0.409842 0.447534 0.780024
O7    O     O_R   0.680900 0.502040 0.551870 -0.545587
O8    O     O_R   0.481990 0.666040 0.546870 -0.539837
C4    C     C_R   0.393277 0.701100 0.561258 0.735031
O9    O     O_R   0.325370 0.678160 0.544080 -0.557547
O10   O     O_R   0.356040 0.477400 0.534170 -0.525289
C5    C     C_R   0.436721 0.411839 0.555526 0.806715
O11   O     O_R   0.495910 0.323070 0.537100 -0.546181
O12   O     O_R   0.663920 0.359620 0.542290 -0.557063
C6    C     C_R   0.701182 0.413379 0.562748 0.768092
Cr1   Cr    Cr6+3 0.576280 0.580550 0.506370 0.925485
Cr2   Cr    Cr6+3 0.346780 0.572400 0.496520 1.020434
Cr3   Cr    Cr6+3 0.576960 0.347070 0.497150 0.922314
O13   O     O_3   0.500010 0.500010 0.500010 -0.361386
H1    H     H_    0.463419 0.205343 0.183835 0.188444
H2    H     H_    0.515128 0.222582 0.383446 0.160163
C7    C     C_R   0.368283 0.361836 0.393218 -0.207002
C8    C     C_R   0.270087 0.429943 0.374624 0.386563
C9    C     C_R   0.252367 0.419178 0.332453 -0.253919
C10   C     C_R   0.328318 0.339345 0.309203 0.016460
C11   C     C_R   0.420894 0.264686 0.328055 0.318822
C12   C     C_R   0.440471 0.277067 0.369791 -0.282403
C13   C     C_R   0.392756 0.253858 0.166157 -0.175803
C14   C     C_R   0.388973 0.240788 0.123727 0.345141
C15   C     C_R   0.211482 0.385827 0.121264 0.341004
C16   C     C_R   0.217725 0.396875 0.163706 -0.186467
C17   C     C_R   0.306217 0.328667 0.185958 -0.028859
C18   C     C_1   0.309243 0.335757 0.229353 0.039752
C19   C     C_1   0.315013 0.338755 0.265771 0.037009
C20   C     C_R   0.294143 0.300731 0.100946 -0.293913
H3    H     H_    0.153203 0.458752 0.179424 0.180374
H4    H     H_    0.179639 0.474036 0.317618 0.180262
N1    N     N_R   0.819451 0.399451 0.226539 -0.261161
N2    N     N_R   0.816802 0.403920 0.266589 -0.271508
C21   C     C_R   0.756405 0.373142 0.410010 -0.049053
C22   C     C_R   0.788292 0.435659 0.393008 -0.140026
C23   C     C_R   0.816066 0.415534 0.353007 -0.119351
C24   C     C_R   0.812698 0.332416 0.329423 0.016522
C25   C     C_R   0.790840 0.263877 0.347658 -0.134372
C26   C     C_R   0.762837 0.284123 0.387701 -0.163418
N3    N     N_R   0.828301 0.239447 0.262401 -0.281317
N4    N     N_R   0.831361 0.234800 0.222273 -0.274366
C27   C     C_R   0.826481 0.315031 0.203564 0.529459
C28   C     C_R   0.821854 0.323814 0.285346 0.516211
C29   C     C_R   0.827935 0.393292 0.140789 -0.095587
C30   C     C_R   0.860499 0.381186 0.101846 -0.101739
C31   C     C_R   0.905266 0.199156 0.098500 -0.145462
C32   C     C_R   0.872633 0.211287 0.137539 -0.105495
C33   C     C_R   0.838768 0.307217 0.159741 -0.005820
C34   C     C_R   0.904386 0.282836 0.081246 -0.073259
H5    H     H_    0.785346 0.504076 0.409656 0.147285
H6    H     H_    0.739479 0.233998 0.400160 0.134771
H7    H     H_    0.857215 0.447466 0.088933 0.184494
H8    H     H_    0.834878 0.468394 0.339984 0.153890
H9    H     H_    0.788909 0.198411 0.330339 0.143677
H10   H     H_    0.799845 0.468833 0.156840 0.182330
H11   H     H_    0.937966 0.122579 0.083114 0.147056
H12   H     H_    0.880524 0.143881 0.151203 0.157378
N5    N     N_R   0.303583 0.774213 0.218064 -0.284551
N6    N     N_R   0.302108 0.773635 0.257993 -0.275027
C35   C     C_R   0.370974 0.755673 0.408630 -0.088139
C36   C     C_R   0.275851 0.790037 0.384810 0.298064
C37   C     C_R   0.272084 0.810333 0.344172 -0.194257
C38   C     C_R   0.359453 0.802060 0.327588 -0.009219
C39   C     C_R   0.448731 0.781555 0.352686 -0.135742
C40   C     C_R   0.454690 0.757979 0.392798 -0.214981
N7    N     N_R   0.419978 0.838149 0.267852 -0.284261
N8    N     N_R   0.420521 0.839715 0.227834 -0.214469
C41   C     C_R   0.363061 0.806871 0.202081 0.573413
C42   C     C_R   0.359714 0.806166 0.283619 0.523122
C43   C     C_R   0.262646 0.829633 0.135942 -0.170295
C44   C     C_R   0.236033 0.867734 0.097448 -0.128252
C45   C     C_R   0.394768 0.878974 0.100043 -0.204010
C46   C     C_R   0.423892 0.837975 0.138553 0.393092
C47   C     C_R   0.353269 0.820119 0.157959 -0.106184
C48   C     C_R   0.299028 0.897972 0.080082 -0.119561
H13   H     H_    0.527858 0.734188 0.410435 0.156651
H14   H     H_    0.162458 0.879898 0.082508 0.164226
H15   H     H_    0.201237 0.830578 0.325234 0.142133
H16   H     H_    0.516633 0.776174 0.340549 0.153163
H17   H     H_    0.207898 0.814638 0.149489 0.175333
H18   H     H_    0.446120 0.897939 0.086041 0.194908
N9    N     N_R   0.280223 0.465342 0.779441 -0.280270
N10   N     N_R   0.296387 0.474620 0.741699 -0.290611
C49   C     C_R   0.424202 0.411624 0.599105 -0.066093
C50   C     C_R   0.339730 0.494622 0.618132 -0.149371
C51   C     C_R   0.329852 0.496197 0.659595 -0.130707
C52   C     C_R   0.405001 0.415633 0.683056 0.014902
C53   C     C_R   0.491412 0.334571 0.664330 -0.126838
C54   C     C_R   0.500740 0.332486 0.622770 -0.146857
N11   N     N_R   0.468277 0.343462 0.750376 -0.295697
N12   N     N_R   0.452231 0.334485 0.788157 -0.293204
C55   C     C_R   0.357582 0.394402 0.803334 0.543399
C56   C     C_R   0.390369 0.412940 0.726219 0.517645
C57   C     C_R   0.234302 0.414559 0.854194 -0.101894
C58   C     C_R   0.214143 0.382803 0.888861 -0.197367
C59   C     C_R   0.399661 0.277979 0.904767 0.282851
C60   C     C_R   0.418866 0.309001 0.869423 -0.193747
C61   C     C_R   0.336711 0.374893 0.843325 -0.014899
C62   C     C_R   0.295880 0.311182 0.913584 -0.076786
H19   H     H_    0.280932 0.558462 0.601011 0.143783
H20   H     H_    0.568011 0.268902 0.609184 0.143426
H21   H     H_    0.134062 0.410231 0.895106 0.153166
H22   H     H_    0.263058 0.560403 0.673218 0.137932
H23   H     H_    0.550972 0.271512 0.681580 0.147488
H24   H     H_    0.169244 0.466006 0.834816 0.154859
H25   H     H_    0.498471 0.280020 0.862082 0.140762
H26   H     H_    0.932407 0.129478 0.877606 0.154913
H27   H     H_    0.875008 0.152203 0.805619 0.124528
H28   H     H_    0.755191 0.231541 0.596156 0.141537
C63   C     C_R   0.751081 0.381086 0.603479 -0.094160
C64   C     C_R   0.766024 0.451852 0.631224 -0.162272
C65   C     C_R   0.788723 0.432274 0.672256 -0.173254
C66   C     C_R   0.797275 0.341752 0.686176 0.061586
C67   C     C_R   0.789791 0.266291 0.658365 0.318826
C68   C     C_R   0.766847 0.286822 0.617122 -0.193763
C69   C     C_R   0.871076 0.217916 0.824790 -0.124899
C70   C     C_R   0.903370 0.205369 0.865872 -0.161360
C71   C     C_R   0.867526 0.385074 0.874149 -0.157379
C72   C     C_R   0.835114 0.397413 0.833124 -0.126743
C73   C     C_R   0.839969 0.313008 0.808213 0.127250
C74   C     C_1   0.822791 0.321542 0.765183 -0.042101
C75   C     C_1   0.811208 0.329682 0.729113 -0.046182
C76   C     C_R   0.905576 0.287818 0.890594 -0.054425
H29   H     H_    0.754102 0.525268 0.621704 0.145376
H30   H     H_    0.810959 0.471355 0.820452 0.120933
H31   H     H_    0.868069 0.450054 0.892405 0.146941
H32   H     H_    0.795714 0.489901 0.693438 0.132358
H33   H     H_    0.386553 0.987383 0.885682 0.166772
H34   H     H_    0.419547 0.936266 0.814551 0.131924
H35   H     H_    0.516021 0.771216 0.687999 0.116066
H36   H     H_    0.534939 0.723071 0.615366 0.136321
C77   C     C_R   0.375825 0.752921 0.602228 -0.035682
C78   C     C_R   0.279682 0.788596 0.618966 -0.172596
C79   C     C_R   0.269641 0.815218 0.660389 -0.137541
C80   C     C_R   0.355278 0.806869 0.685407 0.129841
C81   C     C_R   0.449450 0.777554 0.668731 -0.131287
C82   C     C_R   0.459720 0.750991 0.627266 -0.162896
C83   C     C_R   0.375201 0.909846 0.829379 -0.129357
C84   C     C_R   0.356917 0.937941 0.870149 -0.219467
C85   C     C_R   0.257523 0.844848 0.868200 0.378266
C86   C     C_R   0.275463 0.818472 0.826805 -0.196034
C87   C     C_R   0.331932 0.853009 0.807434 0.058278
C88   C     C_1   0.341340 0.835107 0.764529 -0.014140
C89   C     C_1   0.347998 0.822512 0.728437 -0.052110
C90   C     C_R   0.294576 0.909888 0.889673 -0.165977
H37   H     H_    0.213746 0.790723 0.600496 0.136328
H38   H     H_    0.244887 0.771632 0.809592 0.168858
H39   H     H_    0.196321 0.838341 0.673134 0.115467
O14   O     O_R   0.170070 0.978950 0.027680 -0.539019
O15   O     O_R   0.001760 0.175230 0.026640 -0.542335
C91   C     C_R   0.962823 0.264499 0.045381 0.774945
O16   O     O_R   0.984760 0.333570 0.037150 -0.523136
O17   O     O_R   0.183410 0.309240 0.041890 -0.503668
C92   C     C_R   0.273846 0.261568 0.059593 0.863610
O18   O     O_R   0.340240 0.172500 0.045430 -0.510292
O19   O     O_R   0.309670 0.000990 0.032050 -0.536493
C93   C     C_R   0.259335 0.959276 0.043776 0.812149
O20   O     O_R   0.168330 0.982130 0.939200 -0.510855
O21   O     O_R   0.000140 0.178170 0.944610 -0.538870
C94   C     C_R   0.961776 0.268229 0.930925 0.759252
O22   O     O_R   0.983010 0.336750 0.948660 -0.546057
O23   O     O_R   0.181800 0.312190 0.959860 -0.536086
C95   C     C_R   0.271596 0.265072 0.945741 0.786919
O24   O     O_R   0.338500 0.175680 0.956950 -0.522070
O25   O     O_R   0.308050 0.003930 0.950020 -0.545385
C96   C     C_R   0.257377 0.963266 0.929424 0.843059
Cr4   Cr    Cr6+3 0.087320 0.083240 0.984860 0.986724
Cr5   Cr    Cr6+3 0.087720 0.316210 0.996740 1.029096
Cr6   Cr    Cr6+3 0.317350 0.090340 0.995890 1.007645
O26   O     O_3   0.164130 0.163270 0.992500 -0.355063
N13   N     N_R   0.481895 0.167479 0.104379 0.126503
O27   O     O_R   0.548465 0.082844 0.121855 -0.327508
O28   O     O_R   0.508162 0.192972 0.072807 -0.368630
N14   N     N_2   0.185486 0.799154 0.400607 -0.464871
H40   H     H_    0.133800 0.791445 0.378935 0.286697
C97   C     C_3   0.134555 0.888898 0.428310 -0.487687
H41   H     H_    0.068651 0.886984 0.440836 0.208687
H42   H     H_    0.104142 0.961579 0.412113 0.179970
H43   H     H_    0.189236 0.888754 0.454028 0.188536
N15   N     N_R   0.524626 0.814697 0.157198 0.111726
O29   O     O_R   0.580279 0.728720 0.175623 -0.348731
O30   O     O_R   0.567429 0.870467 0.150480 -0.322293
N16   N     N_2   0.497908 0.181421 0.304791 -0.521289
H44   H     H_    0.572805 0.154967 0.317328 0.258771
C98   C     C_3   0.475308 0.097113 0.292345 -0.457432
H45   H     H_    0.536360 0.038477 0.272784 0.229339
H46   H     H_    0.399341 0.125905 0.274629 0.205010
H47   H     H_    0.473977 0.059023 0.319383 0.189771
N17   N     N_2   0.485151 0.211471 0.930599 -0.515112
H48   H     H_    0.552704 0.165708 0.916033 0.255084
C99   C     C_3   0.502579 0.263076 0.967692 -0.407331
H49   H     H_    0.523951 0.322163 0.960605 0.178039
H50   H     H_    0.567037 0.204927 0.986796 0.225141
H51   H     H_    0.432078 0.301395 0.985317 0.206494
N18   N     N_2   0.798488 0.172902 0.671421 -0.531793
H52   H     H_    0.784048 0.174933 0.701317 0.264048
C100  C     C_3   0.890125 0.078971 0.659249 -0.545265
H53   H     H_    0.888145 0.010383 0.669354 0.203201
H54   H     H_    0.961149 0.080387 0.673394 0.197800
H55   H     H_    0.893090 0.070601 0.625701 0.202725
N19   N     N_R   0.203073 0.804603 0.887786 0.100421
O31   O     O_R   0.134884 0.783745 0.867030 -0.369608
O32   O     O_R   0.232162 0.774335 0.924652 -0.360057
N20   N     N_R   0.188295 0.509785 0.397778 0.105628
O33   O     O_R   0.167402 0.488552 0.431661 -0.366808
O34   O     O_R   0.123848 0.597719 0.381991 -0.376126
N21   N     N_R   0.121216 0.461739 0.099472 0.121177
O35   O     O_R   0.030184 0.500930 0.113914 -0.366700
O36   O     O_R   0.132124 0.504507 0.069165 -0.350147

loop_
_geom_bond_atom_site_label_1
_geom_bond_atom_site_label_2
_geom_bond_distance
_ccdc_geom_bond_type
C55   C61   1.478677 S    
C98   H46   1.110490 S    
C31   C32   1.393566 A    
O19   C93   1.277617 A    
C54   H20   1.082679 S    
C52   C56   1.477777 S    
N1    N2    1.327628 A    
H33   C84   1.083404 S    
C51   C52   1.404505 A    
N5    C41   1.357068 A    
C44   C48   1.400070 A    
C72   C73   1.397587 A    
Cr6   O26   1.973072 S    
C67   C68   1.402111 A    
C39   H16   1.083241 S    
O4    Cr2   1.922019 S    
C23   C24   1.404265 A    
C32   C33   1.404065 A    
C4    O9    1.270318 A    
O8    Cr1   1.917666 S    
C8    C9    1.403761 A    
C49   C50   1.406166 A    
C67   N18   1.426146 S    
C8    N20   1.436889 S    
O24   Cr6   2.034615 S    
C18   C19   1.200327 T    
C1    C35   1.480523 S    
N21   O36   1.301540 A    
C64   H29   1.083029 S    
C51   H22   1.082947 S    
N14   C97   1.446698 S    
O15   C91   1.273913 A    
C81   C82   1.395220 A    
O4    C2    1.276366 A    
C29   H10   1.083027 S    
C100  H54   1.111591 S    
C79   C80   1.397018 A    
C97   H42   1.111651 S    
C98   H47   1.111696 S    
C60   C61   1.403428 A    
C41   C47   1.479270 S    
C22   H5    1.083133 S    
C5    O11   1.299568 A    
C24   C28   1.469912 S    
C23   H8    1.082983 S    
C4    C77   1.473239 S    
C16   C17   1.390867 A    
C94   O22   1.269685 A    
C80   C89   1.430007 S    
N15   O30   1.301374 A    
C20   C92   1.492528 S    
C71   C76   1.406551 A    
O17   Cr5   1.922720 S    
C38   C42   1.466751 S    
C57   C58   1.394828 A    
O25   C96   1.276885 A    
Cr4   O26   1.978771 S    
H35   C81   1.083616 S    
C83   C84   1.388995 A    
C53   H23   1.082882 S    
C99   H49   1.111569 S    
Cr5   O26   1.967513 S    
C44   H14   1.083171 S    
C87   C88   1.430271 S    
C26   H6    1.083157 S    
N17   H48   1.031866 S    
C27   C33   1.470270 S    
C14   C20   1.422491 A    
C78   H37   1.083026 S    
C21   C26   1.405335 A    
C9    H4    1.084054 S    
N10   C56   1.358248 A    
C53   C54   1.395890 A    
C98   H45   1.110491 S    
C40   H13   1.083079 S    
C85   C90   1.419185 A    
H26   C70   1.083038 S    
Cr3   O13   1.967505 S    
O19   Cr6   1.917361 S    
C50   C51   1.395284 A    
C84   C90   1.408670 A    
O3    Cr2   2.032012 S    
N9    C55   1.357822 A    
C59   N17   1.424676 S    
C31   H11   1.083167 S    
C15   N21   1.436535 S    
N13   O28   1.301602 A    
C79   H39   1.083767 S    
H2    C12   1.083514 S    
N20   O34   1.301464 A    
C39   C40   1.392423 A    
N6    C42   1.355518 A    
C59   C62   1.417109 A    
O1    Cr1   2.035827 S    
C3    C21   1.469544 S    
O22   Cr5   2.037732 S    
C16   H3    1.084089 S    
C25   C26   1.393010 A    
O10   Cr2   1.915402 S    
Cr1   O13   1.978599 S    
O1    C3    1.270424 A    
N8    C41   1.358912 A    
H36   C82   1.083084 S    
N9    N10   1.331347 A    
C29   C33   1.404165 A    
C100  H53   1.110439 S    
O6    C3    1.274287 A    
C97   H43   1.110906 S    
N4    C27   1.357689 A    
C7    C8    1.419126 A    
N20   O33   1.301471 A    
N15   O29   1.301519 A    
C45   C46   1.403896 A    
N5    N6    1.328288 A    
C17   C18   1.430708 S    
H1    C13   1.084211 S    
C83   C87   1.392018 A    
N7    N8    1.331266 A    
C34   C91   1.468529 S    
N14   H40   1.031842 S    
C11   C12   1.396806 A    
C72   H30   1.083719 S    
H34   C83   1.083915 S    
N11   N12   1.330791 A    
C70   C76   1.407572 A    
O7    Cr1   2.032723 S    
C63   C64   1.403638 A    
N3    C28   1.357617 A    
C52   C53   1.405898 A    
C57   H24   1.082809 S    
O12   C6    1.275369 A    
C11   N16   1.425433 S    
C35   C40   1.408328 A    
H28   C68   1.083282 S    
N21   O35   1.301443 A    
O23   C95   1.276275 A    
C65   C66   1.398594 A    
C36   C37   1.400013 A    
C77   C82   1.406875 A    
C37   H15   1.083816 S    
C45   H18   1.083243 S    
C90   C96   1.477465 S    
O14   Cr4   2.031363 S    
O21   C94   1.274935 A    
N18   C100  1.446435 S    
C46   C47   1.417909 A    
N19   O32   1.301463 A    
O15   Cr4   1.918193 S    
C62   C95   1.480043 S    
C21   C22   1.403071 A    
C69   C70   1.395992 A    
C13   C17   1.393139 A    
C76   C94   1.474922 S    
O16   Cr5   2.037554 S    
C71   C72   1.394318 A    
C66   C75   1.434568 S    
C58   C62   1.404793 A    
C45   C48   1.403956 A    
O18   Cr6   2.039819 S    
C95   O24   1.267802 A    
O14   C93   1.272032 A    
O20   C96   1.275066 A    
C73   C74   1.431140 S    
C30   C34   1.402916 A    
C7    C12   1.408918 A    
O21   Cr4   1.914517 S    
O25   Cr6   1.921261 S    
C24   C25   1.403383 A    
C10   C11   1.403210 A    
O9    Cr2   2.036837 S    
O2    Cr1   1.916139 S    
O10   C5    1.303056 A    
C13   C14   1.400593 A    
C14   N13   1.437352 S    
C22   C23   1.390714 A    
C15   C20   1.425352 A    
Cr2   O13   1.973239 S    
C38   C39   1.398399 A    
O6    Cr3   1.920683 S    
C5    C49   1.477304 S    
C58   H21   1.083372 S    
C57   C61   1.403523 A    
O8    C4    1.278031 A    
O11   Cr3   2.036918 S    
C29   C30   1.390206 A    
C2    O5    1.269587 A    
C30   H7    1.083177 S    
O17   C92   1.276288 A    
C59   C60   1.402739 A    
C50   H19   1.082903 S    
C85   N19   1.438262 S    
C86   C87   1.398460 A    
C60   H25   1.083408 S    
C80   C81   1.397920 A    
C91   O16   1.268398 A    
O2    C1    1.279077 A    
C37   C38   1.400836 A    
C46   N15   1.437304 S    
O5    Cr3   2.041320 S    
C77   C78   1.407109 A    
N16   H44   1.032003 S    
C25   H9    1.082918 S    
C2    C7    1.483453 S    
C100  H55   1.110650 S    
C97   H41   1.110349 S    
C10   C19   1.433658 S    
O7    C6    1.272298 A    
C99   H51   1.110769 S    
C32   H12   1.082855 S    
C6    C63   1.475308 S    
N12   C55   1.358170 A    
C15   C16   1.399799 A    
C74   C75   1.200934 T    
C63   C68   1.406557 A    
N19   O31   1.301466 A    
C65   H32   1.083940 S    
C35   C36   1.417886 A    
C71   H31   1.083003 S    
N7    C42   1.356521 A    
O12   Cr3   1.922726 S    
C43   H17   1.082929 S    
C92   O18   1.275471 A    
C48   C93   1.472458 S    
C86   H38   1.083865 S    
C43   C44   1.387898 A    
C43   C47   1.405785 A    
C69   C73   1.397842 A    
C36   N14   1.424508 S    
N11   C56   1.357362 A    
N18   H52   1.030704 S    
C99   H50   1.110366 S    
N3    N4    1.330691 A    
C31   C34   1.404493 A    
N2    C28   1.355858 A    
C9    C10   1.397585 A    
C78   C79   1.393716 A    
C64   C65   1.392493 A    
O23   Cr5   1.920766 S    
N17   C99   1.447058 S    
C88   C89   1.200186 T    
C66   C67   1.410904 A    
C85   C86   1.405821 A    
H27   C69   1.083642 S    
C49   C54   1.404447 A    
N1    C27   1.356025 A    
N13   O27   1.301395 A    
C1    O3    1.273202 A    
N16   C98   1.447101 S    
O20   Cr4   2.034475 S    
