data_mof_unit_1824.cif
_audit_creation_date              2012-12-10T17:52:26-0500
_audit_creation_method            fapswitch 2.2
_symmetry_space_group_name_H-M    P1
_symmetry_Int_Tables_number       1
_space_group_crystal_system       triclinic
_cell_length_a                    19.095647
_cell_length_b                    10.677461
_cell_length_c                    9.893345
_cell_angle_alpha                 90.017903
_cell_angle_beta                  90.187417
_cell_angle_gamma                 92.277978
_cell_volume                      2015.57898235

loop_
_atom_site_label
_atom_site_type_symbol
_atom_type_description
_atom_site_fract_x
_atom_site_fract_y
_atom_site_fract_z
_atom_type_partial_charge
C1    C     C_R   0.503606 0.259548 0.500507 0.881445
C2    C     C_R   0.852319 0.413879 0.485973 0.031991
C3    C     C_R   0.542085 0.110839 0.742472 -0.141296
C4    C     C_R   0.365325 0.497410 0.499559 0.826900
C5    C     C_R   0.534476 0.051389 0.867289 -0.132718
C6    C     C_R   0.495547 0.939063 0.876298 -0.164913
C7    C     C_R   0.470019 0.880978 0.759005 -0.134329
C8    C     C_R   0.483608 0.934901 0.630197 0.066650
C9    C     C_R   0.510049 0.058348 0.624672 0.086535
C10   C     C_R   0.501420 0.124727 0.502461 -0.158720
C11   C     C_R   0.475038 0.064108 0.386493 -0.266552
C12   C     C_R   0.289351 0.480125 0.496626 -0.029060
C13   C     C_R   0.460496 0.936397 0.385994 0.164894
C14   C     C_R   0.473212 0.869570 0.506220 -0.166715
C15   C     C_R   0.409407 0.331909 0.139968 -0.161315
C16   C     C_R   0.489353 0.737797 0.500783 0.898040
C17   C     C_R   0.365889 0.247065 0.069431 -0.214004
C18   C     C_R   0.366209 0.246422 0.929513 -0.186187
C19   C     C_R   0.410005 0.330677 0.859400 -0.141056
C20   C     C_R   0.455915 0.416145 0.927572 0.145493
C21   C     C_R   0.455641 0.416634 0.072263 0.130156
C22   C     C_R   0.542570 0.581467 0.069312 0.187759
C23   C     C_R   0.927967 0.397684 0.479758 0.300959
C24   C     C_R   0.540608 0.581956 0.926323 -0.140819
C25   C     C_R   0.634814 0.494328 0.501062 0.860962
C26   C     C_R   0.252690 0.447755 0.614732 -0.204135
C27   C     C_R   0.181167 0.419462 0.608654 -0.161227
C28   C     C_R   0.145481 0.424014 0.484506 0.087698
C29   C     C_R   0.182282 0.457132 0.366653 -0.162174
C30   C     C_R   0.253688 0.485089 0.372686 -0.203443
C31   C     C_3   0.426893 0.878311 0.259715 -0.399738
C32   C     C_3   0.354572 0.818797 0.289703 -0.826667
C33   C     C_3   0.592835 0.676840 0.134424 -0.375824
C34   C     C_R   0.069453 0.403477 0.479536 0.287063
C35   C     C_3   0.668178 0.664633 0.084949 -0.921314
C36   C     C_3   0.710911 0.423469 0.760625 -0.365901
C37   C     C_3   0.754845 0.378036 0.879374 -0.935803
C38   C     C_R   0.818023 0.406963 0.610683 -0.147140
C39   C     C_R   0.747001 0.434092 0.622808 0.146621
C40   C     C_R   0.710374 0.470080 0.503238 -0.111103
C41   C     C_R   0.745560 0.474191 0.378909 -0.221582
C42   C     C_R   0.815476 0.446491 0.370101 -0.164193
H1    H     H_    0.279331 0.442108 0.711233 0.156199
H2    H     H_    0.153889 0.395178 0.701371 0.150671
H3    H     H_    0.572700 0.648749 0.869310 0.168849
H4    H     H_    0.156010 0.462041 0.269738 0.150431
H5    H     H_    0.281001 0.509360 0.279925 0.162195
H6    H     H_    0.847889 0.382125 0.698722 0.167296
H7    H     H_    0.718856 0.498528 0.286978 0.175708
H8    H     H_    0.840803 0.452388 0.272381 0.157280
H9    H     H_    0.464381 0.116961 0.295798 0.169268
H10   H     H_    0.331545 0.778020 0.195514 0.241064
H11   H     H_    0.358017 0.743030 0.365664 0.256415
H12   H     H_    0.573533 0.197011 0.739768 0.148882
H13   H     H_    0.319342 0.890821 0.328510 0.252503
H14   H     H_    0.419571 0.950807 0.180796 0.189935
H15   H     H_    0.460720 0.809364 0.212030 0.220476
H16   H     H_    0.681725 0.564730 0.079678 0.264398
H17   H     H_    0.675051 0.706979 0.983170 0.255954
H18   H     H_    0.705129 0.714840 0.155120 0.258250
H19   H     H_    0.575826 0.772580 0.110248 0.175514
H20   H     H_    0.593895 0.669395 0.244192 0.275440
H21   H     H_    0.774703 0.283691 0.858032 0.268224
H22   H     H_    0.799058 0.445847 0.901217 0.267407
H23   H     H_    0.557226 0.094138 0.957333 0.139260
H24   H     H_    0.721560 0.370393 0.971060 0.254430
H25   H     H_    0.692074 0.516955 0.789223 0.228483
H26   H     H_    0.665453 0.355941 0.751678 0.219955
H27   H     H_    0.486609 0.895196 0.973502 0.120043
H28   H     H_    0.438731 0.794962 0.770470 0.161281
H29   H     H_    0.404941 0.328761 0.247090 0.206237
H30   H     H_    0.331243 0.182242 0.123832 0.154105
H31   H     H_    0.331737 0.181227 0.874757 0.152235
H32   H     H_    0.405704 0.326978 0.752203 0.204663
N1    N     N_R   0.033430 0.428086 0.364865 -0.179272
N2    N     N_R   0.963891 0.425331 0.364968 -0.175522
N3    N     N_R   0.964026 0.368527 0.592986 -0.183181
N4    N     N_R   0.033508 0.371365 0.592932 -0.179467
N5    N     N_R   0.499340 0.498800 0.142780 -0.145084
N6    N     N_R   0.499320 0.498720 0.857170 -0.145607
O1    O     O_R   0.500000 0.316780 0.614690 -0.645481
O2    O     O_R   0.499990 0.316750 0.385360 -0.632208
O3    O     O_R   0.398140 0.500000 0.614700 -0.638344
O4    O     O_R   0.398130 0.499970 0.385370 -0.638468
O5    O     O_R   0.500010 0.683250 0.614640 -0.621405
O6    O     O_R   0.500000 0.683220 0.385310 -0.636106
O7    O     O_R   0.601870 0.500030 0.614630 -0.631663
O8    O     O_R   0.601860 0.500000 0.385300 -0.616196
Zn1   Zn    Zn3+2 0.500000 0.500020 0.653130 0.910558
Zn2   Zn    Zn3+2 0.500000 0.499980 0.346870 0.919157

loop_
_geom_bond_atom_site_label_1
_geom_bond_atom_site_label_2
_ccdc_geom_bond_type
C6    H27   S    
C41   C42   A    
C19   C20   A    
C23   N2    A    
C7    H28   S    
C36   H25   S    
C7    C8    A    
N3    N4    A    
C26   C27   A    
C35   H16   S    
C24   H3    S    
C28   C29   A    
C22   N5    A    
C25   C40   S    
C38   C39   A    
C3    H12   S    
C1    O1    A    
C25   O7    A    
C35   H17   S    
C18   C19   A    
N6    Zn1   S    
C32   H10   S    
N5    Zn2   S    
C27   H2    S    
C24   N6    A    
C33   H20   S    
C31   H14   S    
C4    C12   S    
C9    C10   A    
C32   H13   S    
C38   H6    S    
C34   N1    A    
O1    Zn1   S    
C28   C34   S    
C13   C14   A    
C16   O6    A    
O4    Zn2   S    
C41   H7    S    
C37   H21   S    
C26   H1    S    
C19   H32   S    
O3    Zn1   S    
C20   N6    A    
C30   H5    S    
C5    H23   S    
O6    Zn2   S    
C39   C40   A    
O5    Zn1   S    
C8    C9    A    
C1    O2    A    
C25   O8    A    
C12   C26   A    
C35   H18   S    
N1    N2    A    
C29   C30   A    
C3    C9    A    
C2    C38   A    
C31   C32   S    
C4    O4    A    
C37   H24   S    
C21   N5    A    
C17   C18   A    
C23   N3    A    
C42   H8    S    
C40   C41   A    
O8    Zn2   S    
C18   H31   S    
O7    Zn1   S    
C16   O5    A    
C22   C24   A    
C32   H11   S    
C2    C23   S    
C37   H22   S    
C15   C17   A    
C22   C33   S    
C36   C37   S    
C8    C14   A    
C12   C30   A    
C13   C31   S    
C36   C39   S    
C1    C10   S    
C3    C5    A    
C36   H26   S    
C6    C7    A    
C15   H29   S    
O2    Zn2   S    
C29   H4    S    
C31   H15   S    
C34   N4    A    
C11   C13   A    
C5    C6    A    
C4    O3    A    
C2    C42   A    
C33   C35   S    
C14   C16   S    
C11   H9    S    
C10   C11   A    
C15   C21   A    
C20   C21   A    
C17   H30   S    
C33   H19   S    
C27   C28   A    
