data_mof_unit_2401.cif
_audit_creation_date              2012-12-10T18:49:54-0500
_audit_creation_method            fapswitch 2.2
_symmetry_space_group_name_H-M    P1
_symmetry_Int_Tables_number       1
_space_group_crystal_system       triclinic
_cell_length_a                    10.719009
_cell_length_b                    9.88657
_cell_length_c                    10.640306
_cell_angle_alpha                 90.086977
_cell_angle_beta                  91.150359
_cell_angle_gamma                 90.006701
_cell_volume                      1127.36968961

loop_
_atom_site_label
_atom_site_type_symbol
_atom_type_description
_atom_site_fract_x
_atom_site_fract_y
_atom_site_fract_z
_atom_type_partial_charge
C1    C     C_R   0.259976 0.499995 0.498878 0.894665
C2    C     C_3   0.481399 0.352130 0.928156 -0.361344
C3    C     C_R   0.063773 0.376643 0.494681 -0.154143
C4    C     C_R   0.063805 0.623348 0.494705 -0.143381
C5    C     C_R   0.936041 0.376663 0.494360 -0.109038
C6    C     C_R   0.936072 0.623337 0.494402 -0.124416
C7    C     C_R   0.872438 0.500004 0.495783 -0.019683
C8    C     C_R   0.127415 0.499994 0.496085 -0.010001
C9    C     C_R   0.580279 0.072006 0.577307 0.291041
C10   C     C_R   0.580268 0.928376 0.577274 0.293414
C11   C     C_R   0.420192 0.928093 0.422892 -0.142741
C12   C     C_R   0.420205 0.071624 0.422879 -0.142637
C13   C     C_R   0.497834 0.499654 0.257897 0.954613
C14   C     C_R   0.739948 0.500004 0.498843 0.942783
C15   C     C_R   0.498332 0.499791 0.742293 0.895712
C16   C     C_3   0.621961 0.558439 0.074945 0.160992
C17   C     C_3   0.387031 0.587879 0.069917 0.173804
C18   C     C_3   0.621530 0.557798 0.930466 -0.393174
C19   C     C_3   0.386248 0.585461 0.925196 -0.427548
C20   C     C_3   0.480477 0.351697 0.070787 -0.341089
C21   C     C_3   0.496639 0.498588 0.121523 -0.031892
C22   C     C_3   0.496834 0.498954 0.878827 0.006778
H1    H     H_    0.356245 0.873876 0.361073 0.168192
H2    H     H_    0.356280 0.125620 0.361039 0.163028
H3    H     H_    0.631134 0.664998 0.107981 0.134203
H4    H     H_    0.401195 0.694308 0.101526 0.126063
H5    H     H_    0.633580 0.663252 0.897061 0.206432
H6    H     H_    0.393751 0.691043 0.889871 0.180900
H7    H     H_    0.700974 0.497630 0.894310 0.237504
H8    H     H_    0.296945 0.543399 0.886878 0.220178
H9    H     H_    0.556967 0.285042 0.106531 0.228287
H10   H     H_    0.391390 0.306928 0.102999 0.214709
H11   H     H_    0.559735 0.287464 0.896799 0.239638
H12   H     H_    0.392884 0.307019 0.890846 0.197020
H13   H     H_    0.112157 0.280420 0.494555 0.164799
H14   H     H_    0.112215 0.719567 0.494588 0.165662
H15   H     H_    0.887712 0.280448 0.493691 0.192381
H16   H     H_    0.887766 0.719550 0.493780 0.191671
N1    N     N_R   0.499970 0.857200 0.499970 -0.121593
N2    N     N_R   0.499970 0.142800 0.499970 -0.121465
O1    O     O_R   0.316750 0.614620 0.499990 -0.626654
O2    O     O_R   0.316750 0.385380 0.499990 -0.632033
O3    O     O_R   0.499970 0.614670 0.314790 -0.635608
O4    O     O_R   0.499970 0.385330 0.314790 -0.609896
O5    O     O_R   0.683220 0.614710 0.500010 -0.595055
O6    O     O_R   0.683220 0.385290 0.500010 -0.588567
O7    O     O_R   0.500010 0.614660 0.685200 -0.595081
O8    O     O_R   0.500010 0.385340 0.685200 -0.599913
Zn1   Zn    Zn3+2 0.499980 0.653120 0.500000 1.001977
Zn2   Zn    Zn3+2 0.499980 0.346880 0.500000 1.006367
Cl1   Cl    Cl    0.756273 0.469896 0.136761 -0.579122
Cl2   Cl    Cl    0.238039 0.536275 0.128043 -0.600162
Br1   Br    Br    0.695029 0.166144 0.687415 -0.469160
Br2   Br    Br    0.694981 0.834884 0.687242 -0.477418

loop_
_geom_bond_atom_site_label_1
_geom_bond_atom_site_label_2
_ccdc_geom_bond_type
C2    C22   S    
C11   C12   A    
C4    H14   S    
C12   N2    A    
C6    C7    A    
C3    H13   S    
O7    Zn1   S    
C1    C8    S    
C9    C10   A    
O6    Zn2   S    
C16   Cl1   S    
O5    Zn1   S    
C4    C8    A    
C2    H12   S    
O8    Zn2   S    
C13   C21   S    
C14   O6    A    
C18   H7    S    
C13   O4    A    
C11   N1    A    
C19   H6    S    
C16   C21   S    
C15   O8    A    
O2    Zn2   S    
N2    Zn2   S    
C17   H4    S    
C2    H11   S    
O1    Zn1   S    
C17   C19   S    
C14   O5    A    
C5    H15   S    
C7    C14   S    
C20   H10   S    
C10   Br2   S    
C4    C6    A    
C9    Br1   S    
C2    C20   S    
C1    O2    A    
C13   O3    A    
C19   C22   S    
C20   C21   S    
C17   Cl2   S    
C16   C18   S    
C3    C8    A    
C15   C22   S    
C11   H1    S    
C16   H3    S    
C5    C7    A    
C12   H2    S    
C15   O7    A    
O3    Zn1   S    
O4    Zn2   S    
N1    Zn1   S    
C6    H16   S    
C18   C22   S    
C19   H8    S    
C9    N2    A    
C17   C21   S    
C18   H5    S    
C1    O1    A    
C10   N1    A    
C3    C5    A    
C20   H9    S    
