data_mof_unit_524.cif
_audit_creation_date              2012-12-10T17:35:36-0500
_audit_creation_method            fapswitch 2.2
_symmetry_space_group_name_H-M    P1
_symmetry_Int_Tables_number       1
_space_group_crystal_system       triclinic
_cell_length_a                    10.722756
_cell_length_b                    12.322424
_cell_length_c                    13.156059
_cell_angle_alpha                 116.637508
_cell_angle_beta                  77.359897
_cell_angle_gamma                 101.384408
_cell_volume                      1506.29869292

loop_
_atom_site_label
_atom_site_type_symbol
_atom_type_description
_atom_site_fract_x
_atom_site_fract_y
_atom_site_fract_z
_atom_type_partial_charge
C1    C     C_R   0.515553 0.854828 0.285891 0.870588
C2    C     C_3   0.122202 0.999818 0.499028 0.046274
C3    C     C_3   0.043834 0.025435 0.620657 0.252649
C4    C     C_3   0.069233 0.874438 0.409370 -0.364620
C5    C     C_R   0.312363 0.282560 0.016884 -0.194778
C6    C     C_R   0.452274 0.227766 0.834701 -0.050140
C7    C     C_R   0.623010 0.812529 0.085244 0.343741
C8    C     C_R   0.658800 0.727573 0.971140 0.376948
C9    C     C_R   0.603285 0.606954 0.934456 -0.226392
C10   C     C_R   0.512886 0.565401 0.008885 0.003145
C11   C     C_R   0.470105 0.651958 0.120685 0.000661
C12   C     C_R   0.740102 0.998739 0.497992 0.848296
C13   C     C_R   0.462918 0.440309 0.975371 0.123421
C14   C     C_R   0.363071 0.405607 0.049492 0.163630
C15   C     C_R   0.312455 0.494372 0.153782 -0.219905
C16   C     C_R   0.363626 0.615815 0.188130 -0.142817
C17   C     C_R   0.509222 0.348200 0.870112 -0.247324
C18   C     C_R   0.356010 0.193963 0.909285 -0.189837
C19   C     C_R   0.533131 0.773025 0.161697 -0.181242
C20   C     C_R   0.707009 0.348083 0.329686 -0.308379
C21   C     C_R   0.324806 0.759249 0.645117 -0.027603
C22   C     C_R   0.285598 0.661870 0.677117 0.366210
C23   C     C_R   0.480383 0.144964 0.713499 0.786285
C24   C     C_R   0.352122 0.558876 0.621772 -0.195601
C25   C     C_R   0.457792 0.551319 0.534478 -0.086586
C26   C     C_R   0.493522 0.653096 0.505303 0.265844
C27   C     C_R   0.529438 0.447102 0.475246 -0.001860
C28   C     C_R   0.634759 0.447590 0.388822 0.174322
C29   C     C_R   0.667760 0.547379 0.361773 -0.264791
C30   C     C_R   0.598862 0.647532 0.418615 -0.149693
C31   C     C_R   0.501979 0.341625 0.497498 0.018917
C32   C     C_R   0.675237 0.247817 0.355932 0.092234
C33   C     C_R   0.260142 0.000250 0.499967 0.785686
C34   C     C_3   0.962262 0.099988 0.462000 0.285036
C35   C     C_3   0.104812 0.100402 0.464421 -0.505230
C36   C     C_3   0.900354 0.027273 0.618906 -0.576725
C37   C     C_3   0.923462 0.870379 0.413019 0.130466
C38   C     C_3   0.878651 0.998452 0.496052 0.027976
Cu1   Cu    Cu3+1 0.529690 0.098270 0.475420 0.972942
Cu2   Cu    Cu3+1 0.470310 0.901730 0.524580 0.943909
H1    H     H_    0.931958 0.190716 0.526752 0.092752
H2    H     H_    0.086058 0.798556 0.426925 0.190087
H3    H     H_    0.838946 0.959789 0.648625 0.228326
H4    H     H_    0.310445 0.100715 0.882350 0.151954
H5    H     H_    0.232559 0.469949 0.209068 0.140582
H6    H     H_    0.235862 0.255640 0.072982 0.140275
H7    H     H_    0.588233 0.367122 0.811826 0.145777
H8    H     H_    0.633686 0.548153 0.845903 0.175515
H9    H     H_    0.316101 0.681122 0.267128 0.156693
H10   H     H_    0.730681 0.170805 0.310660 0.188037
H11   H     H_    0.748238 0.548325 0.295745 0.178241
H12   H     H_    0.787704 0.347948 0.263584 0.144928
H13   H     H_    0.423621 0.333109 0.561430 0.122422
H14   H     H_    0.274327 0.839684 0.687409 0.152680
H15   H     H_    0.318907 0.486260 0.649053 0.156301
H16   H     H_    0.632211 0.718932 0.391539 0.223103
H17   H     H_    0.162022 0.085374 0.378515 0.223575
H18   H     H_    0.141752 0.192007 0.526946 0.144588
H19   H     H_    0.870698 0.118813 0.680588 0.141157
H20   H     H_    0.082395 0.116836 0.682936 0.084473
H21   H     H_    0.872027 0.802871 0.446954 0.134804
H22   H     H_    0.122068 0.859495 0.322180 0.185365
N1    N     N_R   0.574690 0.246280 0.438200 -0.188672
N2    N     N_R   0.426100 0.754320 0.561190 -0.225671
O1    O     O_R   0.537340 0.972510 0.318130 -0.513170
O2    O     O_R   0.487200 0.806530 0.359650 -0.618726
O3    O     O_R   0.707380 0.082980 0.479220 -0.553828
O4    O     O_R   0.657240 0.917000 0.520740 -0.615086
O5    O     O_R   0.512800 0.193470 0.640350 -0.592992
O6    O     O_R   0.462660 0.027490 0.681870 -0.582284
O7    O     O_R   0.342760 0.083000 0.479260 -0.608251
O8    O     O_R   0.292620 0.917020 0.520780 -0.551167
O9    O     O_3   0.055829 0.935677 0.655212 -0.718408
H23   H     H_    0.028662 0.969406 0.739743 0.321294
O10   O     O_3   0.675778 0.933298 0.124247 -0.706012
H24   H     H_    0.691320 0.958058 0.060151 0.317516
O11   O     O_3   0.752091 0.756952 0.893885 -0.722847
H25   H     H_    0.813448 0.825445 0.936777 0.340002
O12   O     O_3   0.945162 0.082383 0.352415 -0.657762
H26   H     H_    0.977061 0.160900 0.346344 0.311963
O13   O     O_3   0.182893 0.664599 0.761973 -0.707693
H27   H     H_    0.146152 0.743015 0.792281 0.328010
Br1   Br    Br    0.880683 0.806718 0.257776 -0.503507

loop_
_geom_bond_atom_site_label_1
_geom_bond_atom_site_label_2
_ccdc_geom_bond_type
C2    C35   S    
C24   C25   A    
O9    H23   S    
C23   O5    A    
C36   H19   S    
O13   H27   S    
C7    C8    A    
O11   H25   S    
C24   H15   S    
C12   O4    A    
C11   C19   A    
C29   C30   A    
Cu2   O6    S    
C35   H18   S    
C28   C29   A    
C20   C32   A    
C21   H14   S    
C15   C16   A    
C4    H22   S    
C34   C35   S    
C26   N2    A    
C21   N2    A    
C33   O8    A    
C8    C9    A    
C1    O1    A    
C9    C10   A    
C3    H20   S    
Cu2   O2    S    
C13   C14   A    
Cu1   O1    S    
C23   O6    A    
C34   H1    S    
C6    C18   A    
C12   O3    A    
C1    C19   S    
C27   C31   A    
C22   O13   S    
C31   N1    A    
C16   H9    S    
Cu1   Cu2   S    
C7    O10   S    
C5    C18   A    
C20   C28   A    
C25   C26   A    
C30   H16   S    
C2    C4    S    
O10   H24   S    
C37   C38   S    
C18   H4    S    
C34   O12   S    
C11   C16   A    
C1    O2    A    
Cu1   O5    S    
C31   H13   S    
C32   H10   S    
C5    C14   A    
C2    C33   S    
C26   C30   A    
C7    C19   A    
C8    O11   S    
C22   C24   A    
C15   H5    S    
C29   H11   S    
C6    C17   A    
Cu2   O8    S    
C34   C38   S    
Cu1   O3    S    
C17   H7    S    
C32   N1    A    
C10   C13   A    
C37   H21   S    
C25   C27   A    
Cu1   N1    S    
C5    H6    S    
Cu2   N2    S    
C13   C17   A    
C35   H17   S    
C36   C38   S    
C2    C3    S    
C20   H12   S    
C4    H2    S    
C3    C36   S    
C6    C23   S    
C12   C38   S    
C3    O9    S    
C10   C11   A    
C33   O7    A    
O12   H26   S    
C4    C37   S    
C9    H8    S    
Cu2   O4    S    
C27   C28   A    
Cu1   O7    S    
C14   C15   A    
C37   Br1   S    
C36   H3    S    
C21   C22   A    
