data_mof_unit_4277.cif
_audit_creation_date              2012-12-10T18:59:19-0500
_audit_creation_method            fapswitch 2.2
_symmetry_space_group_name_H-M    P1
_symmetry_Int_Tables_number       1
_space_group_crystal_system       triclinic
_cell_length_a                    9.923555
_cell_length_b                    10.691343
_cell_length_c                    16.523355
_cell_angle_alpha                 88.862765
_cell_angle_beta                  96.973431
_cell_angle_gamma                 88.609185
_cell_volume                      1739.12418428

loop_
_atom_site_label
_atom_site_type_symbol
_atom_type_description
_atom_site_fract_x
_atom_site_fract_y
_atom_site_fract_z
_atom_type_partial_charge
C1    C     C_R   0.500607 0.260540 0.496781 0.893012
C2    C     C_R   0.087806 0.449344 0.563753 -0.107112
C3    C     C_R   0.519361 0.510114 0.653219 0.876222
C4    C     C_R   0.480291 0.493818 0.346390 0.883810
C5    C     C_R   0.532388 0.538298 0.739698 -0.052623
C6    C     C_R   0.465396 0.466908 0.259749 -0.057281
C7    C     C_R   0.447518 0.630858 0.771120 0.063458
C8    C     C_R   0.534473 0.363124 0.228572 0.067804
C9    C     C_R   0.444184 0.633664 0.856601 0.081770
C10   C     C_R   0.523686 0.348622 0.142828 0.078862
C11   C     C_R   0.532678 0.552662 0.907390 0.259402
C12   C     C_R   0.500328 0.739579 0.504210 0.882465
C13   C     C_R   0.451105 0.440789 0.092047 0.255509
C14   C     C_R   0.625856 0.473343 0.875578 -0.202069
C15   C     C_R   0.376648 0.536323 0.124392 -0.198096
C16   C     C_R   0.624793 0.465226 0.792151 -0.267459
C17   C     C_R   0.383147 0.548594 0.207636 -0.299602
C18   C     C_R   0.389473 0.064824 0.455643 -0.004659
C19   C     C_R   0.618310 0.935811 0.540635 -0.014857
C20   C     C_3   0.618666 0.270328 0.286097 -0.367903
C21   C     C_3   0.770006 0.302212 0.295047 -0.401146
C22   C     C_3   0.852342 0.222209 0.361780 -0.752251
C23   C     C_R   0.388876 0.937169 0.466690 -0.279379
C24   C     C_3   0.362941 0.727341 0.715812 -0.426060
C25   C     C_3   0.425906 0.857401 0.721513 -0.354410
C26   C     C_3   0.325234 0.958976 0.683964 -0.867979
C27   C     C_3   0.589990 0.239452 0.103028 -0.436076
C28   C     C_3   0.482925 0.145738 0.070613 -0.330096
C29   C     C_3   0.546717 0.036871 0.028989 -0.884796
C30   C     C_3   0.337677 0.711165 0.894361 -0.435414
C31   C     C_3   0.206803 0.638014 0.896189 -0.338111
C32   C     C_3   0.097925 0.715957 0.931404 -0.883103
C33   C     C_2   0.274473 0.126620 0.402206 0.899292
C34   C     C_R   0.617057 0.064097 0.531732 -0.267080
C35   C     C_2   0.741439 0.874069 0.586536 0.904727
C36   C     C_3   0.092891 0.589098 0.352430 -0.400557
C37   C     C_3   0.149779 0.721256 0.353144 -0.290010
C38   C     C_3   0.100905 0.796470 0.274975 -0.909558
C39   C     C_3   0.893008 0.362052 0.628387 -0.431063
C40   C     C_3   0.962205 0.231413 0.641594 -0.391742
C41   C     C_3   0.906011 0.158592 0.710043 -0.856720
C42   C     C_R   0.501532 0.872579 0.507299 -0.117734
C43   C     C_R   0.502897 0.128096 0.492103 -0.124960
C44   C     C_R   0.052934 0.548700 0.434419 0.163137
C45   C     C_R   0.944708 0.439514 0.561487 0.173804
C46   C     C_R   0.911427 0.556076 0.438551 -0.114971
H1    H     H_    0.693833 0.412377 0.915767 0.148263
H2    H     H_    0.847851 0.121728 0.346106 0.272290
H3    H     H_    0.959635 0.251173 0.367912 0.261081
H4    H     H_    0.812780 0.287890 0.236844 0.208885
H5    H     H_    0.782792 0.402134 0.310155 0.239339
H6    H     H_    0.582219 0.269847 0.346556 0.225695
H7    H     H_    0.603489 0.172877 0.265643 0.192131
H8    H     H_    0.285443 0.935795 0.620489 0.283544
H9    H     H_    0.238844 0.968220 0.720544 0.256118
H10   H     H_    0.376621 0.050034 0.683046 0.251442
H11   H     H_    0.461059 0.881554 0.785471 0.221597
H12   H     H_    0.319366 0.605442 0.084555 0.159565
H13   H     H_    0.516348 0.857263 0.688487 0.249892
H14   H     H_    0.352752 0.703245 0.650975 0.233043
H15   H     H_    0.257210 0.731198 0.731282 0.207269
H16   H     H_    0.596266 0.071787 0.976459 0.262860
H17   H     H_    0.623269 0.985537 0.072861 0.263233
H18   H     H_    0.466676 0.971020 0.006186 0.244743
H19   H     H_    0.432220 0.108264 0.122069 0.223275
H20   H     H_    0.404450 0.193096 0.025874 0.230387
H21   H     H_    0.643573 0.275049 0.052294 0.209555
H22   H     H_    0.669386 0.188985 0.144719 0.202784
H23   H     H_    0.691368 0.396882 0.768420 0.156148
H24   H     H_    0.134484 0.743137 0.994670 0.254618
H25   H     H_    0.071294 0.801667 0.893126 0.265084
H26   H     H_    0.005169 0.660222 0.932581 0.256149
H27   H     H_    0.166667 0.610579 0.833518 0.220190
H28   H     H_    0.228227 0.551129 0.933968 0.234703
H29   H     H_    0.377271 0.737420 0.957376 0.204621
H30   H     H_    0.313325 0.801545 0.861523 0.211548
H31   H     H_    0.211475 0.260830 0.317420 0.330428
H32   H     H_    0.945751 0.870982 0.611667 0.338200
H33   H     H_    0.124404 0.745081 0.220466 0.251767
H34   H     H_    0.330601 0.626835 0.231413 0.162470
H35   H     H_    0.989512 0.814719 0.270353 0.270285
H36   H     H_    0.152230 0.887683 0.276046 0.272038
H37   H     H_    0.117051 0.773678 0.405159 0.240296
H38   H     H_    0.261985 0.714772 0.359473 0.233326
H39   H     H_    0.156935 0.517784 0.327480 0.218331
H40   H     H_    0.001553 0.588691 0.306038 0.169308
H41   H     H_    0.927400 0.208089 0.768501 0.250724
H42   H     H_    0.794647 0.148049 0.696210 0.252152
H43   H     H_    0.955443 0.064087 0.717348 0.266838
H44   H     H_    0.945294 0.178323 0.584241 0.266063
H45   H     H_    0.302637 0.887512 0.439567 0.176636
H46   H     H_    0.073226 0.237933 0.658973 0.224231
H47   H     H_    0.907432 0.414540 0.686059 0.201621
H48   H     H_    0.785084 0.344325 0.612689 0.266136
H49   H     H_    0.703442 0.115001 0.558862 0.185549
H50   H     H_    0.843017 0.600985 0.389993 0.145923
H51   H     H_    0.155666 0.411544 0.614860 0.145743
H52   H     H_    0.813397 0.235474 0.421265 0.273601
N1    N     N_2   0.520749 0.544547 0.990872 -0.198079
N2    N     N_2   0.466051 0.445848 0.008664 -0.204912
N3    N     N_R   0.857210 0.499970 0.500020 -0.102058
N4    N     N_R   0.142790 0.500030 0.499980 -0.099323
O1    O     O_R   0.614620 0.316750 0.500010 -0.657726
O2    O     O_R   0.297571 0.227746 0.351167 -0.824967
O3    O     O_2   0.731272 0.785926 0.633524 -0.644907
O4    O     O_R   0.869721 0.919666 0.577270 -0.812209
O5    O     O_R   0.385380 0.683250 0.499990 -0.647110
O6    O     O_R   0.385290 0.316780 0.500000 -0.585284
O7    O     O_R   0.614710 0.683220 0.500000 -0.581101
O8    O     O_R   0.627460 0.498830 0.616130 -0.605892
O9    O     O_R   0.372540 0.501170 0.383870 -0.607451
O10   O     O_R   0.398130 0.498850 0.616130 -0.642481
O11   O     O_R   0.601870 0.501150 0.383870 -0.629418
O12   O     O_2   0.160111 0.085865 0.400626 -0.658121
Zn1   Zn    Zn3+2 0.653130 0.499980 0.500000 0.950442
Zn2   Zn    Zn3+2 0.346870 0.500020 0.500000 0.940479

loop_
_geom_bond_atom_site_label_1
_geom_bond_atom_site_label_2
_ccdc_geom_bond_type
C10   C27   S    
C22   H2    S    
C24   C25   S    
C29   H17   S    
C24   H15   S    
C22   H52   S    
C33   O2    S    
C28   H20   S    
C21   H5    S    
C26   H9    S    
C32   H26   S    
C33   O12   D    
C8    C20   S    
C23   C42   A    
C36   C37   S    
C30   C31   S    
C11   C14   A    
C31   H27   S    
C38   H33   S    
C2    N4    A    
C3    O8    A    
C7    C24   S    
C11   N1    S    
C6    C17   A    
C12   O7    A    
C5    C16   A    
C12   C42   S    
C27   H22   S    
C1    C43   S    
C39   H47   S    
N1    N2    D    
C2    H51   S    
C37   H38   S    
O9    Zn2   S    
C1    O1    A    
C19   C42   A    
C39   C45   S    
C29   H18   S    
C21   C22   S    
C38   H36   S    
C25   H11   S    
C26   H8    S    
C21   H4    S    
C44   C46   A    
C32   H25   S    
C2    C45   A    
C41   H41   S    
C46   N3    A    
C34   C43   A    
C18   C23   A    
C4    O11   A    
C27   H21   S    
C34   H49   S    
C4    C6    S    
C39   C40   S    
C5    C7    A    
C44   N4    A    
C31   H28   S    
C6    C8    A    
C36   H40   S    
C25   C26   S    
C19   C34   A    
C17   H34   S    
O1    Zn1   S    
C39   H48   S    
C37   C38   S    
C35   O3    D    
C30   H30   S    
C31   C32   S    
C3    O10   A    
C24   H14   S    
C40   H46   S    
C9    C11   A    
C45   N3    A    
C9    C30   S    
C22   H3    S    
C40   C41   S    
C4    O9    A    
C13   C15   A    
C38   H35   S    
N3    Zn1   S    
C15   H12   S    
C23   H45   S    
C36   C44   S    
O10   Zn2   S    
C15   C17   A    
C41   H42   S    
C29   H16   S    
C28   C29   S    
C41   H43   S    
C16   H23   S    
C20   H7    S    
C3    C5    S    
C10   C13   A    
C26   H10   S    
C12   O5    A    
C32   H24   S    
C14   H1    S    
C36   H39   S    
H32   O4    S    
O6    Zn2   S    
C13   N2    S    
C28   H19   S    
C20   H6    S    
C35   O4    S    
C19   C35   S    
C18   C43   A    
C30   H29   S    
C14   C16   A    
C18   C33   S    
O5    Zn2   S    
N4    Zn2   S    
O7    Zn1   S    
C1    O6    A    
C7    C9    A    
C46   H50   S    
C20   C21   S    
C8    C10   A    
C27   C28   S    
C37   H37   S    
H31   O2    S    
C25   H13   S    
C40   H44   S    
O8    Zn1   S    
O11   Zn1   S    
