data_mof_unit_4695.cif
_audit_creation_date              2012-12-10T16:44:43-0500
_audit_creation_method            fapswitch 2.2
_symmetry_space_group_name_H-M    P1
_symmetry_Int_Tables_number       1
_space_group_crystal_system       triclinic
_cell_length_a                    15.098172
_cell_length_b                    8.868432
_cell_length_c                    7.528614
_cell_angle_alpha                 101.949269
_cell_angle_beta                  93.309763
_cell_angle_gamma                 95.260378
_cell_volume                      979.013035266

loop_
_atom_site_label
_atom_site_type_symbol
_atom_type_description
_atom_site_fract_x
_atom_site_fract_y
_atom_site_fract_z
_atom_type_partial_charge
C1    C     C_R   0.500749 0.201942 0.455335 0.811436
C2    C     C_R   0.502354 0.798682 0.544659 0.844103
C3    C     C_R   0.026390 0.230879 0.333333 0.407450
C4    C     C_R   0.974006 0.772342 0.670544 0.384021
C5    C     C_2   0.509587 0.038924 0.432769 0.073338
C6    C     C_2   0.494736 0.962218 0.567957 0.066824
C7    C     C_R   0.329145 0.498959 0.503722 0.816925
C8    C     C_R   0.670568 0.499809 0.496562 0.863633
C9    C     C_R   0.821785 0.636855 0.579475 0.386862
C10   C     C_R   0.176064 0.354346 0.450492 0.383027
C11   C     C_R   0.767235 0.504072 0.489050 -0.264219
C12   C     C_R   0.232275 0.493591 0.512264 -0.238155
C13   C     C_R   0.803354 0.379686 0.383637 0.355205
C14   C     C_R   0.196985 0.627556 0.599585 0.370315
C15   C     C_R   0.896380 0.371603 0.397611 -0.124678
C16   C     C_R   0.103871 0.635905 0.587790 -0.130683
C17   C     C_R   0.953066 0.504604 0.492537 -0.097663
C18   C     C_R   0.046850 0.501871 0.499421 -0.102703
C19   C     C_R   0.915950 0.639483 0.582393 -0.115671
C20   C     C_R   0.083493 0.362492 0.425262 -0.065807
C21   C     C_R   0.933976 0.234516 0.321167 0.343196
C22   C     C_R   0.066440 0.773245 0.663602 0.353200
Cu1   Cu    Cu3+1 0.510010 0.517380 0.684380 1.124352
Cu2   Cu    Cu3+1 0.489990 0.482620 0.315620 1.092365
N1    N     N_2   0.474890 0.456420 0.038520 0.098836
N2    N     N_2   0.525110 0.543580 0.961480 0.103849
O1    O     O_R   0.506510 0.286130 0.619770 -0.552312
O2    O     O_R   0.493490 0.713870 0.380230 -0.554323
O3    O     O_R   0.489600 0.256770 0.308360 -0.544061
O4    O     O_R   0.510400 0.743230 0.691640 -0.530657
O5    O     O_R   0.378710 0.514640 0.655720 -0.540779
O6    O     O_R   0.621290 0.485360 0.344280 -0.564212
O7    O     O_R   0.361800 0.485290 0.344300 -0.596560
O8    O     O_R   0.638200 0.514710 0.655700 -0.547770
O9    O     O_3   0.781210 0.766952 0.652719 -0.520677
C23   C     C_3   0.763816 0.846750 0.512170 0.149079
H1    H     H_    0.710475 0.780318 0.411381 0.178356
H2    H     H_    0.824855 0.867463 0.441404 0.211900
C24   C     C_3   0.732247 0.002187 0.591640 -0.666170
H3    H     H_    0.785057 0.077052 0.686736 0.268580
H4    H     H_    0.714573 0.062008 0.481024 0.260395
H5    H     H_    0.672463 0.982747 0.665178 0.222158
O10   O     O_3   0.201308 0.218017 0.492293 -0.508325
C25   C     C_3   0.267869 0.155428 0.385251 0.169784
H6    H     H_    0.333076 0.218174 0.437322 0.128729
H7    H     H_    0.254639 0.156415 0.238409 0.189454
C26   C     C_3   0.273826 0.990501 0.408422 -0.618526
H8    H     H_    0.333014 0.946554 0.345895 0.152601
H9    H     H_    0.282846 0.989046 0.555082 0.326830
H10   H     H_    0.213228 0.913407 0.345379 0.264863
O11   O     O_3   0.745866 0.268991 0.264709 -0.540480
C27   C     C_3   0.746111 0.303916 0.089533 0.097534
H11   H     H_    0.805196 0.262648 0.020449 0.186405
H12   H     H_    0.747342 0.430327 0.093637 0.168936
C28   C     C_3   0.662436 0.222340 0.976522 -0.541422
H13   H     H_    0.661005 0.249311 0.838933 0.179899
H14   H     H_    0.660955 0.095437 0.965414 0.294048
H15   H     H_    0.602513 0.261690 0.042441 0.293123
O12   O     O_3   0.254360 0.740501 0.716117 -0.546531
C29   C     C_3   0.254383 0.708197 0.892943 0.085774
H16   H     H_    0.249467 0.581631 0.891666 0.175408
H17   H     H_    0.197453 0.756539 0.964149 0.184702
C30   C     C_3   0.340514 0.782088 0.002235 -0.558641
H18   H     H_    0.398523 0.749476 0.925733 0.303395
H19   H     H_    0.341683 0.910196 0.031763 0.273577
H20   H     H_    0.346297 0.739240 0.130299 0.190112
Cl1   Cl    Cl    0.867863 0.058274 0.221120 -0.482718
Cl2   Cl    Cl    0.132347 0.954059 0.742758 -0.434374
Cl3   Cl    Cl    0.068773 0.061453 0.215598 -0.479995
Cl4   Cl    Cl    0.935652 0.941370 0.798980 -0.427266
Cl5   Cl    Cl    0.546869 0.954780 0.220386 -0.534669
Cl6   Cl    Cl    0.457533 0.046537 0.780669 -0.539079
Cl7   Cl    Cl    0.375588 0.362276 0.929057 -0.423833
Cl8   Cl    Cl    0.624220 0.637983 0.069988 -0.441621

loop_
_geom_bond_atom_site_label_1
_geom_bond_atom_site_label_2
_ccdc_geom_bond_type
C16   C22   A    
C28   H13   S    
C30   H19   S    
C4    Cl4   S    
C30   H18   S    
C14   C16   A    
Cu1   O1    S    
C24   H5    S    
C4    C22   A    
N1    Cl7   S    
C26   H8    S    
C25   C26   S    
C15   C21   A    
C2    O4    A    
Cu1   O8    S    
C1    O1    A    
C27   H12   S    
C1    O3    A    
C17   C18   A    
C10   O10   S    
C30   H20   S    
O12   C29   S    
C5    Cl5   S    
C16   C18   A    
C8    O8    A    
Cu2   N1    S    
C29   H17   S    
C6    Cl6   S    
C14   O12   S    
C11   C13   A    
C22   Cl2   S    
C2    C6    S    
C10   C12   A    
O10   C25   S    
C8    C11   S    
C1    C5    S    
C9    C11   A    
C23   H2    S    
C23   H1    S    
C3    Cl3   S    
C27   C28   S    
C12   C14   A    
C26   H10   S    
C18   C20   A    
C28   H14   S    
C13   C15   A    
C13   O11   S    
C5    C6    D    
C29   C30   S    
C7    C12   S    
C3    C21   A    
C7    O5    A    
C7    O7    A    
Cu1   Cu2   S    
C9    O9    S    
O11   C27   S    
C8    O6    A    
Cu1   O4    S    
Cu2   O2    S    
C3    C20   A    
C27   H11   S    
C24   H4    S    
C26   H9    S    
Cu1   N2    S    
Cu2   O6    S    
C15   C17   A    
C28   H15   S    
C24   H3    S    
C17   C19   A    
C2    O2    A    
C25   H7    S    
N2    Cl8   S    
N1    N2    D    
Cu2   O3    S    
C4    C19   A    
C9    C19   A    
C23   C24   S    
C21   Cl1   S    
C25   H6    S    
Cu2   O7    S    
C10   C20   A    
C29   H16   S    
O9    C23   S    
Cu1   O5    S    
