data_mof_unit_3252.cif
_audit_creation_date              2012-12-10T17:22:08-0500
_audit_creation_method            fapswitch 2.2
_symmetry_space_group_name_H-M    P1
_symmetry_Int_Tables_number       1
_space_group_crystal_system       triclinic
_cell_length_a                    15.854162
_cell_length_b                    10.873821
_cell_length_c                    9.608725
_cell_angle_alpha                 88.392298
_cell_angle_beta                  89.653425
_cell_angle_gamma                 95.857222
_cell_volume                      1647.13628363

loop_
_atom_site_label
_atom_site_type_symbol
_atom_type_description
_atom_site_fract_x
_atom_site_fract_y
_atom_site_fract_z
_atom_type_partial_charge
C1    C     C_R   0.500598 0.261455 0.502738 0.839665
C2    C     C_3   0.944765 0.449774 0.659810 0.625753
C3    C     C_3   0.915225 0.480434 0.507805 0.126468
C4    C     C_3   0.955786 0.611470 0.461329 -0.430183
C5    C     C_3   0.053438 0.615838 0.456824 -0.487027
C6    C     C_1   0.822853 0.479229 0.502821 0.043360
C7    C     C_1   0.174710 0.494213 0.503721 0.023064
C8    C     C_1   0.250493 0.497272 0.501716 -0.162468
C9    C     C_R   0.450799 0.096826 0.760592 -0.175928
C10   C     C_R   0.407213 0.022979 0.864706 0.426429
C11   C     C_R   0.376788 0.901946 0.838086 -0.213210
C12   C     C_R   0.340293 0.499199 0.500474 0.798310
C13   C     C_R   0.396720 0.851246 0.712678 -0.211589
C14   C     C_R   0.446772 0.922032 0.610853 0.105862
C15   C     C_R   0.464977 0.050872 0.626296 -0.034563
C16   C     C_R   0.498995 0.125186 0.508659 -0.195134
C17   C     C_R   0.524000 0.065770 0.387948 0.393553
C18   C     C_R   0.513094 0.938554 0.382086 -0.216419
C19   C     C_R   0.480085 0.866454 0.495083 -0.166984
C20   C     C_R   0.609469 0.694997 0.128082 0.448675
C21   C     C_R   0.642563 0.793515 0.036157 -0.409825
C22   C     C_R   0.643446 0.781634 0.894499 0.382883
C23   C     C_R   0.491779 0.735229 0.498312 0.811047
C24   C     C_R   0.606962 0.674085 0.841443 -0.146757
C25   C     C_R   0.553588 0.587106 0.920243 -0.006108
C26   C     C_R   0.553636 0.592063 0.070335 0.100765
C27   C     C_R   0.447708 0.418888 0.077422 -0.081723
C28   C     C_R   0.444283 0.422643 0.928965 0.526570
C29   C     C_R   0.658890 0.492967 0.499960 0.851250
C30   C     C_3   0.044236 0.448398 0.655103 0.242563
C31   C     C_3   0.043722 0.393716 0.399234 0.172058
C32   C     C_3   0.945350 0.386847 0.403121 -0.455778
C33   C     C_1   0.747606 0.483011 0.500418 -0.137728
C34   C     C_3   0.082081 0.489270 0.506465 0.048675
Cu1   Cu    Cu3+1 0.499990 0.499990 0.640660 0.970159
Cu2   Cu    Cu3+1 0.500010 0.500010 0.359340 1.032646
H1    H     H_    0.932615 0.636447 0.356086 0.181116
H2    H     H_    0.478865 0.184711 0.793264 0.231135
H3    H     H_    0.340619 0.845367 0.916574 0.167772
H4    H     H_    0.372447 0.756199 0.696120 0.164246
H5    H     H_    0.533846 0.895499 0.289576 0.199111
H6    H     H_    0.406769 0.350666 0.136605 0.187740
H7    H     H_    0.054888 0.349331 0.664555 0.190201
H8    H     H_    0.676418 0.877373 0.071400 0.159828
H9    H     H_    0.618981 0.667973 0.734285 0.223234
H10   H     H_    0.065925 0.425057 0.292619 0.149624
H11   H     H_    0.916856 0.291479 0.429979 0.260852
H12   H     H_    0.922370 0.408930 0.296904 0.166167
H13   H     H_    0.082067 0.694685 0.516511 0.184283
H14   H     H_    0.075686 0.637000 0.347777 0.192536
H15   H     H_    0.936694 0.682566 0.532931 0.226028
N1    N     N_R   0.500800 0.501210 0.147910 -0.202391
N2    N     N_R   0.500820 0.501290 0.852040 -0.215274
O1    O     O_R   0.499990 0.319640 0.618810 -0.578406
O2    O     O_R   0.500000 0.319660 0.381240 -0.514391
O3    O     O_R   0.379430 0.499990 0.618840 -0.565751
O4    O     O_R   0.379440 0.500020 0.381260 -0.584443
O5    O     O_R   0.500000 0.680340 0.618760 -0.617110
O6    O     O_R   0.500010 0.680360 0.381190 -0.532387
O7    O     O_R   0.620560 0.499980 0.618740 -0.609201
O8    O     O_R   0.620570 0.500010 0.381160 -0.491857
Cl1   Cl    Cl    0.895601 0.295588 0.711108 -0.710032
O9    O     O_3   0.087778 0.496277 0.774824 -0.599598
C35   C     C_3   0.107774 0.625745 0.773889 0.114206
H16   H     H_    0.052203 0.676077 0.748446 0.195646
H17   H     H_    0.161011 0.654314 0.700824 0.142731
C36   C     C_3   0.138436 0.663175 0.917938 -0.811976
H18   H     H_    0.197884 0.621512 0.942557 0.233014
H19   H     H_    0.151154 0.765403 0.921056 0.217602
H20   H     H_    0.089880 0.630914 0.998117 0.249023
O10   O     O_3   0.919668 0.544467 0.747044 -0.603518
C37   C     C_3   0.904975 0.507015 0.888078 0.153407
H21   H     H_    0.958664 0.460599 0.931818 0.197977
H22   H     H_    0.845241 0.444319 0.898947 0.200577
C38   C     C_3   0.893064 0.620148 0.973054 -0.824754
H23   H     H_    0.835883 0.662689 0.937210 0.270268
H24   H     H_    0.884680 0.592611 0.084875 0.195943
H25   H     H_    0.949036 0.689740 0.961058 0.256696
Cl2   Cl    Cl    0.579328 0.143253 0.245207 -0.609357
Cl3   Cl    Cl    0.392213 0.081032 0.030631 -0.608637
O11   O     O_3   0.635101 0.696256 0.267466 -0.529160
C39   C     C_3   0.698677 0.792959 0.302833 0.012408
H26   H     H_    0.674515 0.884688 0.289332 0.166035
H27   H     H_    0.757215 0.788748 0.239190 0.159883
C40   C     C_3   0.723155 0.785657 0.455350 -0.740471
H28   H     H_    0.770253 0.718809 0.471546 0.220257
H29   H     H_    0.753886 0.876855 0.486980 0.231156
H30   H     H_    0.666538 0.761179 0.522017 0.249662
O12   O     O_3   0.689627 0.866686 0.805628 -0.581810
C41   C     C_3   0.664157 0.986526 0.820733 0.095016
H31   H     H_    0.698116 0.032821 0.908902 0.185364
H32   H     H_    0.594484 0.984550 0.838003 0.158100
C42   C     C_3   0.687356 0.063339 0.688779 -0.719574
H33   H     H_    0.655368 0.018742 0.598072 0.233413
H34   H     H_    0.666933 0.157473 0.698466 0.216178
H35   H     H_    0.756999 0.071164 0.671159 0.289099
O13   O     O_3   0.387382 0.341450 0.859820 -0.560820
C43   C     C_3   0.303279 0.363667 0.892021 0.060035
H36   H     H_    0.292321 0.460673 0.863277 0.146555
H37   H     H_    0.288135 0.345428 0.004288 0.149548
C44   C     C_3   0.242483 0.276609 0.809728 -0.625551
H38   H     H_    0.250532 0.179079 0.839309 0.254429
H39   H     H_    0.176104 0.294040 0.832473 0.227713
H40   H     H_    0.255059 0.291007 0.696433 0.244676
Cl4   Cl    Cl    0.078503 0.242355 0.424013 -0.612350

loop_
_geom_bond_atom_site_label_1
_geom_bond_atom_site_label_2
_ccdc_geom_bond_type
C28   O13   S    
C23   O5    A    
C42   H33   S    
Cu1   N2    S    
C32   H12   S    
Cu1   Cu2   S    
C38   H23   S    
C3    C6    S    
O13   C43   S    
C7    C8    T    
C40   H28   S    
C23   O6    A    
C44   H38   S    
Cu1   O5    S    
C24   H9    S    
C25   N2    A    
C15   C16   A    
C29   C33   S    
C17   Cl2   S    
C18   C19   A    
C13   H4    S    
C20   O11   S    
C16   C17   A    
C31   H10   S    
C9    C10   A    
Cu2   N1    S    
Cu2   O6    S    
C42   H34   S    
C13   C14   A    
Cu1   O1    S    
C31   Cl4   S    
C5    H13   S    
C37   C38   S    
O11   C39   S    
C40   H29   S    
C29   O8    A    
C30   C34   S    
C4    H15   S    
C36   H18   S    
C35   C36   S    
C24   C25   A    
C37   H22   S    
Cu2   O4    S    
C18   H5    S    
C10   Cl3   S    
C4    C5    S    
C25   C26   A    
C3    C4    S    
Cu1   O7    S    
C36   H19   S    
C35   H17   S    
C19   C23   S    
C1    O1    A    
C26   N1    A    
C21   H8    S    
C41   H32   S    
C31   C32   S    
C29   O7    A    
C8    C12   S    
C5    C34   S    
C17   C18   A    
C31   C34   S    
C1    C16   S    
C4    H1    S    
C11   H3    S    
C38   H24   S    
C12   O3    A    
C12   O4    A    
C39   H26   S    
C42   H35   S    
C43   H37   S    
C7    C34   S    
C22   C24   A    
C5    H14   S    
C2    O10   S    
C39   C40   S    
C27   N1    A    
C41   C42   S    
C40   H30   S    
Cu1   O3    S    
C14   C19   A    
C37   H21   S    
C28   N2    A    
C44   H40   S    
C43   C44   S    
C39   H27   S    
C6    C33   T    
C2    C30   S    
C36   H20   S    
C35   H16   S    
C2    C3    S    
C1    O2    A    
O10   C37   S    
Cu2   O2    S    
C11   C13   A    
C27   H6    S    
C41   H31   S    
C20   C26   A    
C30   O9    S    
C9    H2    S    
C32   H11   S    
C22   O12   S    
C9    C15   A    
C3    C32   S    
C30   H7    S    
C38   H25   S    
C10   C11   A    
O9    C35   S    
C2    Cl1   S    
C20   C21   A    
C44   H39   S    
C43   H36   S    
C27   C28   A    
C14   C15   A    
O12   C41   S    
C21   C22   A    
Cu2   O8    S    
