data_mof_unit_1481.cif
_audit_creation_date              2012-12-10T16:38:33-0500
_audit_creation_method            fapswitch 2.2
_symmetry_space_group_name_H-M    P1
_symmetry_Int_Tables_number       1
_space_group_crystal_system       triclinic
_cell_length_a                    10.913325
_cell_length_b                    10.91854
_cell_length_c                    17.672384
_cell_angle_alpha                 98.488175
_cell_angle_beta                  72.869292
_cell_angle_gamma                 98.787478
_cell_volume                      1976.98134223

loop_
_atom_site_label
_atom_site_type_symbol
_atom_type_description
_atom_site_fract_x
_atom_site_fract_y
_atom_site_fract_z
_atom_type_partial_charge
C1    C     C_R   0.158366 0.479504 0.517457 0.841558
C2    C     C_R   0.571879 0.349608 0.912319 -0.077882
C3    C     C_R   0.652391 0.308864 0.950922 -0.059802
C4    C     C_R   0.842989 0.520825 0.482814 0.844116
C5    C     C_R   0.639040 0.346922 0.033545 0.017012
C6    C     C_R   0.530066 0.409467 0.078511 0.033058
C7    C     C_R   0.728597 0.323674 0.073505 -0.033377
C8    C     C_R   0.700846 0.348418 0.156986 -0.066288
C9    C     C_R   0.517141 0.451166 0.160453 -0.076736
C10   C     C_2   0.980124 0.530839 0.477915 -0.233453
C11   C     C_2   0.023243 0.470023 0.525001 -0.191491
C12   C     C_R   0.257662 0.596704 0.843959 -0.066110
C13   C     C_2   0.548296 0.967982 0.481627 -0.229195
C14   C     C_2   0.452136 0.037664 0.522390 -0.181740
C15   C     C_R   0.468391 0.168902 0.517043 0.836825
C16   C     C_R   0.530718 0.833000 0.483057 0.853661
C17   C     C_R   0.564573 0.436228 0.287530 0.823672
C18   C     C_R   0.432918 0.560731 0.713204 0.788010
C19   C     C_R   0.382177 0.564229 0.801371 -0.089192
C20   C     C_R   0.593448 0.409343 0.200328 -0.105073
C21   C     C_R   0.206613 0.578155 0.925446 -0.050830
C22   C     C_1   0.107059 0.522789 0.098153 0.197179
C23   C     C_R   0.454271 0.517625 0.841518 -0.239816
C24   C     C_1   0.853973 0.283629 0.030791 0.190851
C25   C     C_1   0.068883 0.609967 0.421476 0.203893
C26   C     C_1   0.943062 0.388841 0.582987 0.166514
C27   C     C_R   0.675852 0.024467 0.434814 0.095574
C28   C     C_R   0.712142 0.002226 0.351340 -0.107156
C29   C     C_R   0.835530 0.047023 0.307230 -0.114730
C30   C     C_R   0.923096 0.114954 0.346050 -0.092631
C31   C     C_R   0.887655 0.137437 0.429091 -0.138389
C32   C     C_R   0.764621 0.091960 0.473534 -0.112095
C33   C     C_1   0.321188 0.986216 0.560088 0.219358
C34   C     C_R   0.401702 0.486173 0.919822 0.071491
C35   C     C_1   0.442700 0.552981 0.201600 0.152794
C36   C     C_1   0.787278 0.317968 0.198344 0.187276
C37   C     C_1   0.741658 0.221162 0.905016 0.186138
C38   C     C_1   0.080295 0.617642 0.966240 0.173311
C39   C     C_R   0.178480 0.650233 0.804505 0.150752
C40   C     C_R   0.196287 0.778751 0.798131 -0.109268
C41   C     C_R   0.118147 0.830139 0.764029 -0.099812
C42   C     C_R   0.021814 0.753704 0.736378 -0.076796
C43   C     C_R   0.003085 0.625804 0.743132 -0.121379
C44   C     C_R   0.081224 0.573887 0.777009 -0.132266
C45   C     C_R   0.278106 0.522114 0.964528 0.050683
C46   C     C_1   0.575576 0.294047 0.831648 0.170513
C47   C     C_R   0.474221 0.425777 0.955872 0.016763
C48   C     C_R   0.440451 0.433656 0.039481 0.049864
C49   C     C_R   0.313761 0.456312 0.081610 -0.225597
C50   C     C_R   0.232813 0.499358 0.046058 -0.023270
H1    H     H_    0.553990 0.506845 0.810385 0.169413
H2    H     H_    0.961229 0.793675 0.710129 0.133910
H3    H     H_    0.927411 0.567172 0.722630 0.140632
H4    H     H_    0.065467 0.474817 0.782470 0.129033
H5    H     H_    0.274624 0.436231 0.142899 0.163065
H6    H     H_    0.645403 0.948950 0.320640 0.139876
H7    H     H_    0.863330 0.028959 0.242922 0.149722
H8    H     H_    0.018577 0.149709 0.311802 0.147091
H9    H     H_    0.956271 0.188639 0.458930 0.153223
H10   H     H_    0.739238 0.107548 0.537944 0.161754
H11   H     H_    0.270035 0.838815 0.819929 0.126983
H12   H     H_    0.131838 0.929331 0.759440 0.144467
N1    N     N_1   0.007060 0.541703 0.140774 -0.169068
N2    N     N_1   0.578567 0.249429 0.767585 -0.167481
N3    N     N_1   0.954543 0.252500 0.997528 -0.194337
N4    N     N_1   0.139361 0.673373 0.376653 -0.174129
N5    N     N_1   0.879647 0.323944 0.629365 -0.194679
N6    N     N_1   0.216429 0.945642 0.589802 -0.203140
N7    N     N_1   0.384268 0.634560 0.234395 -0.186572
N8    N     N_1   0.856656 0.294821 0.231292 -0.213974
N9    N     N_1   0.811911 0.151033 0.867773 -0.193927
N10   N     N_1   0.979483 0.649628 0.997614 -0.180025
O1    O     O_3   0.500000 0.500000 0.500000 -0.497184
O2    O     O_R   0.470800 0.371790 0.332500 -0.637201
O3    O     O_R   0.380610 0.619380 0.674980 -0.636811
O4    O     O_R   0.632640 0.524780 0.317540 -0.625566
O5    O     O_R   0.515950 0.484050 0.674980 -0.631216
O6    O     O_R   0.535460 0.243030 0.556410 -0.633837
O7    O     O_R   0.437420 0.784080 0.535340 -0.632587
O8    O     O_R   0.223560 0.397520 0.472140 -0.646227
O9    O     O_R   0.803560 0.575360 0.436110 -0.631221
O10   O     O_R   0.209690 0.568800 0.556400 -0.628833
O11   O     O_R   0.763190 0.458310 0.535350 -0.632364
O12   O     O_R   0.414000 0.207090 0.472140 -0.642851
O13   O     O_R   0.613120 0.765800 0.436110 -0.636992
Zn1   Zn    Zn3+2 0.577310 0.422690 0.565550 0.985157
Zn2   Zn    Zn3+2 0.403760 0.371330 0.445150 0.984405
Zn3   Zn    Zn3+2 0.634990 0.589920 0.423760 1.005022
Zn4   Zn    Zn3+2 0.383940 0.616050 0.565540 0.989978

loop_
_geom_bond_atom_site_label_1
_geom_bond_atom_site_label_2
_ccdc_geom_bond_type
C18   O3    A    
C41   C42   A    
C1    C11   S    
O12   Zn2   S    
C6    C9    A    
C28   H6    S    
C7    C8    A    
C2    C46   S    
C8    C20   A    
O10   Zn4   S    
C6    C48   A    
C26   N5    T    
C28   C29   A    
O8    Zn2   S    
C5    C6    A    
C15   O6    A    
C7    C24   S    
C17   C20   S    
C18   C19   S    
C8    C36   S    
C31   H9    S    
O1    Zn2   S    
C22   N1    T    
C43   H3    S    
C21   C38   S    
C47   C48   A    
C17   O4    A    
O2    Zn2   S    
O4    Zn3   S    
C22   C50   S    
O6    Zn1   S    
C13   C14   D    
C41   H12   S    
C14   C33   S    
C36   N8    T    
C21   C45   A    
C38   N10   T    
C4    O9    A    
C39   C40   A    
C5    C7    A    
C11   C26   S    
C1    O10   A    
C49   H5    S    
C12   C21   A    
C40   H11   S    
C46   N2    T    
C19   C23   A    
C43   C44   A    
O1    Zn3   S    
C29   C30   A    
C9    C20   A    
C23   H1    S    
C31   C32   A    
C23   C34   A    
C34   C45   A    
C17   O2    A    
C3    C37   S    
C39   C44   A    
C24   N3    T    
C10   C25   S    
C40   C41   A    
C29   H7    S    
O5    Zn1   S    
C37   N9    T    
C16   O13   A    
C42   C43   A    
C32   H10   S    
C4    C10   S    
O13   Zn3   S    
C48   C49   A    
C27   C32   A    
C25   N4    T    
C3    C5    A    
C15   O12   A    
C2    C47   A    
C16   O7    A    
C12   C39   S    
C2    C3    A    
O1    Zn4   S    
C30   C31   A    
C4    O11   A    
C45   C50   A    
C18   O5    A    
C30   H8    S    
C12   C19   A    
O1    Zn1   S    
O7    Zn4   S    
O9    Zn3   S    
C10   C11   D    
O3    Zn4   S    
C44   H4    S    
O11   Zn1   S    
C35   N7    T    
C49   C50   A    
C13   C16   S    
C27   C28   A    
C9    C35   S    
C1    O8    A    
C14   C15   S    
C13   C27   S    
C34   C47   A    
C33   N6    T    
C42   H2    S    
