data_mof_unit_2982.cif
_audit_creation_date              2012-12-10T17:07:00-0500
_audit_creation_method            fapswitch 2.2
_symmetry_space_group_name_H-M    P1
_symmetry_Int_Tables_number       1
_space_group_crystal_system       triclinic
_cell_length_a                    18.336219
_cell_length_b                    18.287383
_cell_length_c                    18.251111
_cell_angle_alpha                 119.669062
_cell_angle_beta                  119.437579
_cell_angle_gamma                 60.089421
_cell_volume                      4359.41348069

loop_
_atom_site_label
_atom_site_type_symbol
_atom_type_description
_atom_site_fract_x
_atom_site_fract_y
_atom_site_fract_z
_atom_type_partial_charge
C1    C     C_R   0.140015 0.855969 0.636648 0.902141
C2    C     C_R   0.770080 0.464865 0.810263 0.286029
C3    C     C_R   0.854494 0.401935 0.808413 0.407081
C4    C     C_R   0.862822 0.140107 0.360323 0.944551
C5    C     C_R   0.866358 0.311293 0.774493 -0.265400
C6    C     C_R   0.939179 0.246469 0.351207 0.150329
C7    C     C_R   0.970899 0.298051 0.344532 0.360048
C8    C     C_R   0.919032 0.343179 0.283594 -0.201741
C9    C     C_R   0.833333 0.341847 0.230016 0.324342
C10   C     C_R   0.794545 0.297888 0.240744 -0.070507
C11   C     C_R   0.849452 0.246417 0.299912 -0.078850
C12   C     C_R   0.600165 0.190151 0.701758 0.127500
C13   C     C_R   0.812269 0.196738 0.304811 -0.185659
C14   C     C_R   0.723406 0.201714 0.257104 0.319237
C15   C     C_R   0.668676 0.257818 0.206482 0.333612
C16   C     C_R   0.139746 0.140046 0.632815 0.865887
C17   C     C_R   0.703342 0.303666 0.195689 -0.210883
C18   C     C_R   0.894069 0.696991 0.393164 0.321749
C19   C     C_R   0.888904 0.647832 0.429006 0.345805
C20   C     C_R   0.806991 0.643699 0.408284 -0.287000
C21   C     C_R   0.733290 0.675391 0.341604 0.393706
C22   C     C_R   0.743862 0.705650 0.290186 -0.087641
C23   C     C_R   0.663433 0.223760 0.716238 -0.034156
C24   C     C_R   0.817128 0.734391 0.329215 -0.147859
C25   C     C_R   0.808786 0.799443 0.302353 -0.093128
C26   C     C_R   0.742132 0.814710 0.222897 0.110895
C27   C     C_R   0.690871 0.758561 0.166885 0.126858
C28   C     C_R   0.861562 0.858475 0.359889 0.935338
C29   C     C_R   0.689317 0.704738 0.200746 -0.107566
C30   C     C_R   0.070745 0.769644 0.680520 -0.124301
C31   C     C_R   0.028753 0.764626 0.723696 0.145507
C32   C     C_R   0.075163 0.762034 0.811235 0.334649
C33   C     C_R   0.165293 0.755030 0.850137 0.367957
C34   C     C_R   0.720634 0.170724 0.663375 -0.029107
C35   C     C_R   0.210158 0.746145 0.799590 -0.093789
C36   C     C_R   0.158696 0.770987 0.722669 -0.060411
C37   C     C_R   0.196787 0.797682 0.692208 -0.103840
C38   C     C_R   0.289429 0.782686 0.728865 0.137935
C39   C     C_R   0.342174 0.743364 0.795052 0.135284
C40   C     C_R   0.139751 0.859683 0.359672 0.889972
C41   C     C_R   0.303986 0.716293 0.824087 -0.091758
C42   C     C_R   0.245033 0.669386 0.355500 0.240752
C43   C     C_R   0.305611 0.585199 0.362557 0.314559
C44   C     C_R   0.363293 0.532744 0.312658 0.296691
C45   C     C_R   0.669062 0.309952 0.777167 -0.110399
C46   C     C_R   0.359634 0.562496 0.252881 0.047349
C47   C     C_R   0.305350 0.651560 0.251194 -0.028136
C48   C     C_R   0.248114 0.706855 0.304524 -0.111654
C49   C     C_R   0.194105 0.795941 0.301753 -0.067995
C50   C     C_R   0.191357 0.826418 0.242605 0.172991
C51   C     C_R   0.246863 0.771005 0.190946 -0.170111
C52   C     C_R   0.859088 0.139998 0.639585 0.836369
C53   C     C_R   0.304205 0.686725 0.195999 -0.038522
C54   C     C_R   0.337015 0.066691 0.665279 0.185317
C55   C     C_R   0.417951 0.022416 0.719081 0.266168
C56   C     C_R   0.720604 0.344236 0.771995 -0.012613
C57   C     C_R   0.454260 0.070581 0.808404 0.056071
C58   C     C_R   0.414829 0.164519 0.840128 0.330518
C59   C     C_R   0.337147 0.209490 0.783123 -0.118204
C60   C     C_R   0.289694 0.157139 0.705192 -0.096511
C61   C     C_R   0.195844 0.195952 0.674786 -0.210137
C62   C     C_R   0.157451 0.289747 0.695396 0.340332
C63   C     C_R   0.211785 0.342478 0.752220 0.337251
C64   C     C_R   0.702634 0.094498 0.589066 0.125102
C65   C     C_R   0.301684 0.303795 0.801209 -0.196166
C66   C     C_R   0.637873 0.642932 0.141007 0.892772
C67   C     C_R   0.794939 0.282676 0.745300 -0.046820
C68   C     C_R   0.359419 0.359661 0.860426 0.878064
C69   C     C_R   0.640949 0.359963 0.139932 0.980263
C70   C     C_R   0.360296 0.647119 0.867300 0.861308
C71   C     C_R   0.360242 0.638126 0.140001 0.847576
C72   C     C_R   0.631863 0.361006 0.851855 0.895911
C73   C     C_R   0.654098 0.054207 0.588711 0.136725
C74   C     C_R   0.606850 0.100430 0.648632 0.139779
C75   C     C_3   0.055972 0.109734 0.374511 -0.771489
C76   C     C_3   0.763275 0.877922 0.145888 -0.585892
C77   C     C_3   0.673121 0.128336 0.462462 -0.685037
C78   C     C_R   0.792848 0.196580 0.685865 -0.077626
C79   C     C_3   0.684137 0.698991 0.013347 -0.588714
C80   C     C_3   0.364913 0.736436 0.627926 -0.560403
C81   C     C_3   0.873101 0.844660 0.658966 -0.732919
C82   C     C_3   0.445713 0.813997 0.923670 -0.766096
C83   C     C_3   0.147230 0.955799 0.198772 -0.731205
C84   C     C_3   0.570578 0.970559 0.448523 -0.672029
C85   C     C_3   0.359166 0.448154 0.109001 -0.567578
C86   C     C_3   0.298659 0.062355 0.515532 -0.761335
C87   C     C_3   0.514549 0.985314 0.904887 -0.589353
C88   C     C_3   0.623937 0.016109 0.725685 -0.659697
C89   C     C_R   0.701620 0.436424 0.790897 0.118550
C90   C     C_3   0.450600 0.295070 0.672686 -0.752246
C91   C     C_3   0.555152 0.480732 0.685142 -0.669070
Cl1   Cl    Cl    0.944048 0.433917 0.838163 -0.417128
Cl2   Cl    Cl    0.160310 0.717544 0.402702 -0.502974
Cl3   Cl    Cl    0.305812 0.541572 0.430423 -0.444208
Cl4   Cl    Cl    0.436272 0.425292 0.320080 -0.449488
Cl5   Cl    Cl    0.042235 0.344036 0.648134 -0.419854
Cl6   Cl    Cl    0.471408 0.905870 0.677235 -0.626807
Cl7   Cl    Cl    0.445589 0.218963 0.956015 -0.566131
Cl8   Cl    Cl    0.162992 0.456648 0.758780 -0.396996
Cl9   Cl    Cl    0.749864 0.577215 0.830709 -0.550512
Cl10  Cl    Cl    0.678031 0.139824 0.263480 -0.573496
Cl11  Cl    Cl    0.078573 0.304461 0.409687 -0.528918
Cl12  Cl    Cl    0.784269 0.392372 0.147846 -0.634910
Cl13  Cl    Cl    0.553827 0.274867 0.161582 -0.473396
Cl14  Cl    Cl    0.999973 0.696446 0.417417 -0.473540
Cl15  Cl    Cl    0.982745 0.594394 0.503399 -0.443734
Cl16  Cl    Cl    0.628874 0.705562 0.349252 -0.566037
Cl17  Cl    Cl    0.020377 0.770326 0.873481 -0.485439
Cl18  Cl    Cl    0.214069 0.779914 0.967186 -0.603290
H1    H     H_    0.946686 0.378906 0.276679 0.232641
H2    H     H_    0.656332 0.932158 0.191860 0.238497
H3    H     H_    0.786072 0.935077 0.173170 0.275773
H4    H     H_    0.714225 0.876122 0.078206 0.203404
H5    H     H_    0.821891 0.815432 0.141422 0.245840
H6    H     H_    0.727807 0.001128 0.469220 0.227603
H7    H     H_    0.696962 0.101808 0.405911 0.263363
H8    H     H_    0.682526 0.194098 0.505892 0.252426
H9    H     H_    0.601235 0.137311 0.435979 0.249227
H10   H     H_    0.603494 0.822389 0.073239 0.216468
H11   H     H_    0.733757 0.723117 0.022768 0.244816
H12   H     H_    0.800190 0.617156 0.445242 0.233795
H13   H     H_    0.635379 0.694479 0.945371 0.240031
H14   H     H_    0.719419 0.630847 0.018519 0.263921
H15   H     H_    0.375145 0.839568 0.749382 0.259125
H16   H     H_    0.388802 0.762914 0.603829 0.264186
H17   H     H_    0.311508 0.710837 0.571369 0.278366
H18   H     H_    0.421098 0.680904 0.651726 0.222834
H19   H     H_    0.919764 0.738742 0.702840 0.305752
H20   H     H_    0.806852 0.836238 0.622999 0.249956
H21   H     H_    0.887571 0.858353 0.615476 0.245787
H22   H     H_    0.870608 0.902486 0.721660 0.244500
H23   H     H_    0.034667 0.769162 0.612609 0.238994
H24   H     H_    0.481949 0.682861 0.832984 0.256023
H25   H     H_    0.502214 0.829968 0.935301 0.235502
H26   H     H_    0.460006 0.792719 0.978104 0.259390
H27   H     H_    0.386551 0.876048 0.923171 0.247032
H28   H     H_    0.064883 0.919378 0.212922 0.256607
H29   H     H_    0.101605 0.026099 0.209516 0.245283
H30   H     H_    0.133835 0.921720 0.125756 0.289515
H31   H     H_    0.216713 0.956074 0.232715 0.250268
H32   H     H_    0.707211 0.922803 0.512243 0.218777
H33   H     H_    0.570129 0.000416 0.408030 0.217426
H34   H     H_    0.246695 0.793358 0.145995 0.200070
H35   H     H_    0.509604 0.009838 0.468260 0.247708
H36   H     H_    0.569860 0.901487 0.406971 0.275754
H37   H     H_    0.472238 0.464155 0.219277 0.295105
H38   H     H_    0.396955 0.411216 0.061554 0.234211
H39   H     H_    0.292907 0.491950 0.078402 0.229093
H40   H     H_    0.350270 0.399536 0.120861 0.295600
H41   H     H_    0.330453 0.954128 0.548761 0.290558
H42   H     H_    0.270512 0.025213 0.444304 0.243783
H43   H     H_    0.365686 0.058546 0.527120 0.241081
H44   H     H_    0.254036 0.133173 0.529353 0.262473
H45   H     H_    0.930922 0.263923 0.768921 0.194674
H46   H     H_    0.575343 0.059092 0.910816 0.270305
H47   H     H_    0.476441 0.038569 0.951055 0.259021
H48   H     H_    0.578642 0.945994 0.943120 0.223774
H49   H     H_    0.476430 0.939685 0.852640 0.246323
H50   H     H_    0.502269 0.088745 0.654144 0.214930
H51   H     H_    0.596940 0.970671 0.719787 0.296237
H52   H     H_    0.627753 0.069554 0.791872 0.217117
H53   H     H_    0.691958 0.975979 0.720572 0.246133
H54   H     H_    0.506859 0.219421 0.754455 0.246059
H55   H     H_    0.397532 0.341907 0.703778 0.237167
H56   H     H_    0.030970 0.232409 0.472882 0.299196
H57   H     H_    0.423361 0.247326 0.608270 0.248782
H58   H     H_    0.471334 0.334602 0.660458 0.247634
H59   H     H_    0.605147 0.563055 0.812206 0.251944
H60   H     H_    0.486122 0.527330 0.682093 0.232787
H61   H     H_    0.554200 0.411286 0.653732 0.240631
H62   H     H_    0.578700 0.492215 0.647294 0.267155
H63   H     H_    0.106814 0.116244 0.363896 0.269570
H64   H     H_    0.017095 0.071730 0.310373 0.241637
H65   H     H_    0.090313 0.072075 0.421660 0.217596
N1    N     N_2   0.997507 0.196985 0.411197 -0.284108
N2    N     N_2   0.407672 0.500811 0.191747 -0.304841
N3    N     N_2   0.305035 0.022899 0.571249 -0.260072
N4    N     N_2   0.531771 0.024361 0.865220 -0.255180
N5    N     N_2   0.567360 0.054854 0.655179 -0.288059
N6    N     N_2   0.525177 0.247315 0.731825 -0.296797
N7    N     N_2   0.612158 0.496658 0.777162 -0.268490
N8    N     N_2   0.721898 0.890842 0.203546 -0.310012
N9    N     N_2   0.723290 0.065777 0.510952 -0.306679
N10   N     N_2   0.637921 0.759356 0.078309 -0.321745
N11   N     N_2   0.330780 0.807078 0.699365 -0.281739
N12   N     N_2   0.939612 0.764023 0.678895 -0.242688
N13   N     N_2   0.431146 0.743199 0.839310 -0.307173
N14   N     N_2   0.130859 0.912660 0.235097 -0.332453
N15   N     N_2   0.649388 0.968468 0.526505 -0.281061
O1    O     O_3   0.000000 0.000000 0.500000 -0.503881
O2    O     O_R   0.323460 0.615830 0.884170 -0.580739
O3    O     O_R   0.444880 0.615840 0.176480 -0.603906
O4    O     O_R   0.055060 0.884200 0.615800 -0.657529
O5    O     O_R   0.615800 0.444940 0.884180 -0.629867
O6    O     O_R   0.323440 0.615840 0.055040 -0.595259
O7    O     O_R   0.615780 0.323500 0.884180 -0.614055
O8    O     O_R   0.615760 0.323500 0.055050 -0.590337
O9    O     O_R   0.444910 0.615830 0.884180 -0.671157
O10   O     O_R   0.615780 0.615830 0.176490 -0.576327
O11   O     O_R   0.323430 0.444950 0.884170 -0.588631
O12   O     O_R   0.055100 0.176520 0.615800 -0.595117
O13   O     O_R   0.884210 0.176520 0.444920 -0.597778
O14   O     O_R   0.176540 0.055080 0.615800 -0.636374
O15   O     O_R   0.884190 0.884200 0.323480 -0.603551
O16   O     O_R   0.176540 0.884190 0.444930 -0.618290
O17   O     O_R   0.884180 0.055090 0.615790 -0.638855
O18   O     O_R   0.055100 0.884190 0.323490 -0.636392
O19   O     O_R   0.884190 0.176530 0.615790 -0.628726
O20   O     O_R   0.884180 0.884200 0.444920 -0.651777
O21   O     O_R   0.176510 0.884190 0.615800 -0.595233
O22   O     O_R   0.884210 0.055080 0.323480 -0.649223
O23   O     O_3   0.499970 0.500030 0.999970 -0.520723
O24   O     O_R   0.615800 0.615830 0.055050 -0.633439
O25   O     O_R   0.444880 0.323510 0.884180 -0.632301
O26   O     O_R   0.615760 0.444950 0.176490 -0.604225
Zn1   Zn    Zn3+2 0.956630 0.130130 0.543370 1.040950
Zn2   Zn    Zn3+2 0.130140 0.956620 0.543380 1.026282
Zn3   Zn    Zn3+2 0.956630 0.956620 0.369870 1.025382
Zn4   Zn    Zn3+2 0.956610 0.956630 0.543370 1.002368
Zn5   Zn    Zn3+2 0.543340 0.369890 0.956600 1.039990
Zn6   Zn    Zn3+2 0.543340 0.543410 0.130100 1.081863
Zn7   Zn    Zn3+2 0.369830 0.543410 0.956590 1.073255
Zn8   Zn    Zn3+2 0.543370 0.543400 0.956600 0.989039

loop_
_geom_bond_atom_site_label_1
_geom_bond_atom_site_label_2
_ccdc_geom_bond_type
C63   C65   A    
C17   C69   S    
C42   C43   A    
C23   C45   A    
C22   C29   A    
C12   C74   A    
C90   H58   S    
C27   C29   A    
C42   Cl2   S    
O24   Zn8   S    
C73   C74   A    
C35   C36   A    
C58   Cl7   S    
C85   H39   S    
C5    C67   A    
C50   N14   S    
O1    Zn4   S    
C85   N2    S    
C83   H30   S    
C81   H21   S    
C7    C8    A    
C39   C41   A    
C54   C60   A    
C84   H36   S    
C25   C28   S    
C12   C23   A    
O16   Zn2   S    
C26   C27   A    
C62   C63   A    
C4    O22   A    
C18   C24   A    
C22   C24   A    
C36   C37   A    
C86   H44   S    
O3    Zn6   S    
C77   H8    S    
C72   O5    A    
C30   C31   A    
C76   N8    S    
C81   H22   S    
C75   H64   S    
C6    N1    S    
C84   H35   S    
C10   C17   A    
C5    H45   S    
O1    Zn3   S    
C82   H26   S    
C43   Cl3   S    
C79   N10   S    
C15   C17   A    
C18   C19   A    
C4    C13   S    
C49   C50   A    
C27   N10   S    
C63   Cl8   S    
C33   C35   A    
C54   C55   A    
C64   N9    S    
C71   O6    A    
C74   N5    S    
C47   C48   A    
C45   C56   A    
C8    C9    A    
C41   C70   S    
C7    Cl11  S    
H37   N2    S    
C76   H5    S    
C64   C73   A    
C75   H63   S    
O10   Zn6   S    
C15   Cl13  S    
O8    Zn5   S    
C68   O25   A    
C9    C10   A    
C66   O10   A    
H46   N4    S    
C1    C37   S    
C47   C53   A    
H28   N14   S    
C39   N13   S    
C23   C34   A    
C16   O14   A    
C40   O18   A    
C2    Cl9   S    
C59   C60   A    
O19   Zn1   S    
C13   C14   A    
C90   H57   S    
C75   H65   S    
C69   O8    A    
C76   H3    S    
C67   C78   A    
C52   C78   S    
O26   Zn6   S    
C83   H31   S    
O7    Zn5   S    
C44   C46   A    
C70   O2    A    
C76   H4    S    
O23   Zn6   S    
C79   H13   S    
C90   N6    S    
C87   H47   S    
O14   Zn2   S    
C75   N1    S    
C28   O15   A    
H32   N15   S    
C24   C25   A    
C77   H9    S    
C6    C11   A    
C91   H60   S    
C14   Cl10  S    
O23   Zn7   S    
O23   Zn5   S    
C28   O20   A    
C79   H14   S    
H2    N8    S    
C57   N4    S    
C87   H48   S    
O15   Zn3   S    
C60   C61   A    
C51   C53   A    
C89   N7    S    
C82   H25   S    
C2    C89   A    
C1    O4    A    
C43   C44   A    
C19   Cl15  S    
O12   Zn1   S    
C37   C38   A    
C86   H43   S    
O20   Zn4   S    
C4    O13   A    
C31   C32   A    
C14   C15   A    
C84   H33   S    
C80   N11   S    
C65   C68   S    
C79   H11   S    
C55   Cl6   S    
C34   C64   A    
C50   C51   A    
C84   N15   S    
C38   N11   S    
C42   C48   A    
O21   Zn2   S    
O2    Zn7   S    
C20   H12   S    
C21   Cl16  S    
H41   N3    S    
C26   N8    S    
C48   C49   A    
C12   N6    S    
C86   N3    S    
C55   C57   A    
C32   Cl17  S    
C81   H20   S    
C71   O3    A    
C52   O17   A    
C83   N14   S    
C58   C59   A    
C69   O26   A    
C33   Cl18  S    
C16   C61   S    
C16   O12   A    
C77   H7    S    
O1    Zn2   S    
C81   N12   S    
H19   N12   S    
C88   N5    S    
O4    Zn4   S    
O22   Zn3   S    
C46   C47   A    
C56   C89   A    
O18   Zn3   S    
C91   H61   S    
C1    O21   A    
C52   O19   A    
C85   H38   S    
H50   N5    S    
C3    C5    A    
C72   O7    A    
O6    Zn7   S    
H6    N9    S    
C54   N3    S    
C6    C7    A    
C80   H18   S    
C51   H34   S    
O17   Zn4   S    
H56   N1    S    
C56   C67   A    
C73   N15   S    
C87   H49   S    
C91   H62   S    
C82   N13   S    
C68   O11   A    
O11   Zn7   S    
C32   C33   A    
C19   C20   A    
C91   N7    S    
C2    C3    A    
C25   C26   A    
C18   Cl14  S    
C30   C36   A    
C44   Cl4   S    
O25   Zn5   S    
C86   H42   S    
C59   C65   A    
C87   N4    S    
C11   C13   A    
C57   C58   A    
C38   C39   A    
C80   H17   S    
C66   O24   A    
C88   H53   S    
C31   N12   S    
C9    Cl12  S    
C77   N9    S    
O9    Zn8   S    
C46   N2    S    
H10   N10   S    
C88   H51   S    
C82   H27   S    
C61   C62   A    
C35   C41   A    
C88   H52   S    
C85   H40   S    
C10   C11   A    
H24   N13   S    
C29   C66   S    
C30   H23   S    
C40   O16   A    
C20   C21   A    
C70   O9    A    
H59   N7    S    
C80   H16   S    
C8    H1    S    
H54   N6    S    
C90   H55   S    
H15   N11   S    
C3    Cl1   S    
O13   Zn1   S    
C62   Cl5   S    
C21   C22   A    
O1    Zn1   S    
C83   H29   S    
C34   C78   A    
C40   C49   S    
O5    Zn8   S    
C45   C72   S    
O23   Zn8   S    
C53   C71   S    
