data_mof_unit_1913.cif
_audit_creation_date              2012-12-11T16:43:19-0500
_audit_creation_method            fapswitch 2.2
_symmetry_space_group_name_H-M    P1
_symmetry_Int_Tables_number       1
_space_group_crystal_system       triclinic
_cell_length_a                    6.923256
_cell_length_b                    23.256922
_cell_length_c                    25.874604
_cell_angle_alpha                 104.751803
_cell_angle_beta                  90.219245
_cell_angle_gamma                 90.403322
_cell_volume                      4028.67055327

loop_
_atom_site_label
_atom_site_type_symbol
_atom_type_description
_atom_site_fract_x
_atom_site_fract_y
_atom_site_fract_z
_atom_type_partial_charge
O1    O     O_R   0.505750 0.453350 0.547660 -0.541575
O2    O     O_R   0.170990 0.432220 0.437590 -0.512065
O3    O     O_R   0.005600 0.546650 0.452340 -0.538903
C1    C     C_R   0.339622 0.415670 0.417209 0.744658
O4    O     O_R   0.175720 0.446240 0.546340 -0.545974
O5    O     O_R   0.010370 0.560770 0.561860 -0.541176
C2    C     C_R   0.344758 0.434168 0.562848 0.680220
O6    O     O_R   0.500990 0.439230 0.438140 -0.540613
O7    O     O_3   0.340820 0.537560 0.504970 -0.373896
V1    V     V_3+5 0.064050 0.493030 0.499080 1.432412
O8    O     O_R   0.680940 0.567780 0.562410 -0.544125
C3    C     C_R   0.850594 0.584199 0.582678 0.708526
O9    O     O_R   0.676210 0.553760 0.453660 -0.543719
C4    C     C_R   0.845106 0.565631 0.436987 0.698744
V2    V     V_3+5 0.564640 0.506970 0.500920 1.403928
O10   O     O_3   0.837740 0.462440 0.495030 -0.363171
C5    C     C_R   0.772388 0.876444 0.115577 -0.159551
H1    H     H_    0.639527 0.889440 0.099626 0.121946
C6    C     C_R   0.760864 0.840529 0.151438 -0.143641
H2    H     H_    0.619744 0.826407 0.161535 0.100115
C7    C     C_R   0.929090 0.822360 0.173324 0.094170
C8    C     C_R   0.109378 0.840836 0.158023 -0.141846
H3    H     H_    0.241848 0.828455 0.174610 0.099350
C9    C     C_R   0.120992 0.876641 0.121991 -0.158406
H4    H     H_    0.262176 0.890325 0.111490 0.117990
C10   C     C_R   0.952562 0.895084 0.100387 -0.054274
C11   C     C_R   0.051178 0.739282 0.210928 -0.150291
H5    H     H_    0.164801 0.730536 0.181387 0.110776
C12   C     C_R   0.038865 0.703824 0.247200 -0.153430
H6    H     H_    0.143428 0.668804 0.244507 0.107813
C13   C     C_R   0.891386 0.712635 0.285661 0.080186
C14   C     C_R   0.756418 0.757873 0.286731 -0.150156
H7    H     H_    0.642925 0.766701 0.316307 0.111399
C15   C     C_R   0.768663 0.793300 0.250441 -0.152068
H8    H     H_    0.664131 0.828331 0.253133 0.109869
C16   C     C_R   0.916245 0.784530 0.212025 0.080884
C17   C     C_R   0.698809 0.657099 0.340451 -0.142177
H9    H     H_    0.566120 0.669447 0.323952 0.098433
C18   C     C_R   0.687504 0.621982 0.377053 -0.163589
H10   H     H_    0.546381 0.608755 0.388027 0.115707
C19   C     C_R   0.856122 0.603706 0.398683 -0.062850
C20   C     C_R   0.036214 0.621518 0.382702 -0.171026
H11   H     H_    0.169244 0.608414 0.398484 0.119354
C21   C     C_R   0.047443 0.656789 0.346301 -0.143245
H12   H     H_    0.188548 0.670432 0.335734 0.100036
C22   C     C_R   0.878979 0.675042 0.324581 0.095155
C23   C     C_R   0.029852 0.637681 0.665132 -0.218271
C24   C     C_R   0.864565 0.632764 0.632428 -0.083989
C25   C     C_R   0.714793 0.674137 0.647694 -0.225757
C26   C     C_R   0.731172 0.720515 0.694555 0.090883
C27   C     C_R   0.897232 0.724808 0.727290 0.066578
C28   C     C_R   0.046107 0.682892 0.712545 0.090194
C29   C     C_R   0.584790 0.762835 0.709199 -0.180470
C30   C     C_R   0.602064 0.808784 0.755900 -0.180391
C31   C     C_R   0.765835 0.813198 0.788921 0.088140
C32   C     C_R   0.914503 0.771072 0.774754 0.025302
C33   C     C_R   0.079960 0.774987 0.807847 0.042271
C34   C     C_R   0.225571 0.731942 0.792601 -0.185238
C35   C     C_R   0.208989 0.686742 0.745487 -0.187092
C36   C     C_R   0.783048 0.859278 0.835638 -0.287757
C37   C     C_R   0.946628 0.864417 0.868994 -0.082186
C38   C     C_R   0.095448 0.821679 0.855312 0.140991
H13   H     H_    0.145375 0.605715 0.654059 0.125685
H14   H     H_    0.586997 0.670820 0.622724 0.129003
H15   H     H_    0.456477 0.760337 0.684582 0.134935
H16   H     H_    0.486486 0.840776 0.766349 0.129640
H17   H     H_    0.668975 0.891876 0.845749 0.139030
H18   H     H_    0.354642 0.732948 0.816502 0.137780
H19   H     H_    0.324592 0.654795 0.734716 0.131427
C39   C     C_R   0.287912 0.170667 0.139421 -0.218012
C40   C     C_R   0.455902 0.135649 0.130697 -0.085720
C41   C     C_R   0.604498 0.148009 0.169327 -0.226530
C42   C     C_R   0.583766 0.193658 0.216638 0.093199
C43   C     C_R   0.414970 0.228624 0.224802 0.079969
C44   C     C_R   0.267439 0.217241 0.185774 0.095766
C45   C     C_R   0.727847 0.204601 0.256286 -0.196250
C46   C     C_R   0.706578 0.250153 0.303087 -0.149924
C47   C     C_R   0.540390 0.285571 0.311311 0.092220
C48   C     C_R   0.393252 0.274806 0.272174 -0.013906
C49   C     C_R   0.224566 0.309951 0.280282 -0.001596
C50   C     C_R   0.079927 0.298185 0.240496 -0.158251
C51   C     C_R   0.101046 0.252372 0.193925 -0.213068
C52   C     C_R   0.519226 0.331301 0.358140 -0.255714
C53   C     C_R   0.352055 0.366629 0.367266 -0.186440
C54   C     C_R   0.204612 0.356341 0.327660 0.401952
H20   H     H_    0.172694 0.161796 0.109878 0.129369
H21   H     H_    0.733694 0.121091 0.163263 0.124933
H22   H     H_    0.857763 0.178071 0.251015 0.137085
H23   H     H_    0.820964 0.257851 0.332824 0.136589
H24   H     H_    0.633373 0.339108 0.387994 0.163288
H25   H     H_    0.948749 0.324050 0.245327 0.171255
H26   H     H_    0.986063 0.244181 0.164352 0.134432
C55   C     C_R   0.275112 0.115512 0.877733 -0.160219
H27   H     H_    0.143046 0.096292 0.888483 0.119847
C56   C     C_R   0.263803 0.151068 0.841600 -0.144138
H28   H     H_    0.123864 0.157589 0.825253 0.100483
C57   C     C_R   0.430997 0.176779 0.825932 0.094697
C58   C     C_R   0.610088 0.165831 0.847460 -0.141402
H29   H     H_    0.741586 0.185527 0.836944 0.099208
C59   C     C_R   0.621536 0.130065 0.883541 -0.163229
H30   H     H_    0.761759 0.122702 0.899284 0.118934
C60   C     C_R   0.454085 0.104421 0.899188 -0.054362
C61   C     C_R   0.561781 0.212110 0.748338 -0.151172
H31   H     H_    0.682867 0.182291 0.745559 0.109981
C62   C     C_R   0.548798 0.247121 0.711724 -0.151426
H32   H     H_    0.660475 0.243258 0.681886 0.108470
C63   C     C_R   0.391934 0.285618 0.712888 0.081717
C64   C     C_R   0.248380 0.288051 0.751717 -0.151346
H33   H     H_    0.127289 0.317868 0.754495 0.109774
C65   C     C_R   0.261363 0.253040 0.788329 -0.151664
H34   H     H_    0.149681 0.256902 0.818166 0.108214
C66   C     C_R   0.418207 0.214535 0.787160 0.081613
C67   C     C_R   0.199908 0.334257 0.652573 -0.141386
H35   H     H_    0.068455 0.314556 0.663111 0.099386
C68   C     C_R   0.188342 0.369997 0.616473 -0.163425
H36   H     H_    0.048076 0.377335 0.600741 0.118998
C69   C     C_R   0.355723 0.395647 0.600796 -0.052851
C70   C     C_R   0.534755 0.384589 0.622240 -0.159555
H37   H     H_    0.666768 0.403815 0.611465 0.120238
C71   C     C_R   0.546181 0.349058 0.658393 -0.144694
H38   H     H_    0.686158 0.342559 0.674731 0.100472
C72   C     C_R   0.379050 0.323344 0.674094 0.094702
O11   O     O_R   0.308350 0.060850 0.061810 -0.541144
O12   O     O_R   0.633860 0.053770 0.953650 -0.544573
O13   O     O_R   0.798960 0.939210 0.938150 -0.545293
C73   C     C_R   0.464888 0.065879 0.937121 0.685534
O14   O     O_R   0.638360 0.067800 0.062400 -0.542093
O15   O     O_R   0.803500 0.953330 0.047670 -0.541426
C74   C     C_R   0.469440 0.084956 0.082273 0.707347
O16   O     O_R   0.303810 0.046730 0.952290 -0.542129
O17   O     O_3   0.468430 0.962490 0.995010 -0.359315
V3    V     V_3+5 0.745300 0.006960 0.000930 1.400424
O18   O     O_R   0.132880 0.946160 0.046390 -0.540604
C75   C     C_R   0.963851 0.933971 0.062759 0.691805
O19   O     O_R   0.128380 0.932130 0.937650 -0.515504
C76   C     C_R   0.958856 0.914856 0.917845 0.750331
V4    V     V_3+5 0.244670 0.992930 0.999140 1.430150
O20   O     O_3   0.971670 0.037510 0.005000 -0.374354
N1    N     N_3   0.258470 0.825343 0.890514 -0.653539
H39   H     H_    0.265587 0.786147 0.903157 0.222080
H40   H     H_    0.384162 0.829947 0.869653 0.227662
O21   O     O_3   0.038457 0.390181 0.335901 -0.552639
C77   C     C_3   0.069245 0.441226 0.316894 -0.233076
H41   H     H_    0.935115 0.467877 0.322897 0.157128
H42   H     H_    0.101439 0.429224 0.273368 0.124556
H43   H     H_    0.186954 0.469828 0.339442 0.117545

loop_
_geom_bond_atom_site_label_1
_geom_bond_atom_site_label_2
_ccdc_geom_bond_type
C77   H43   S    
C31   C32   A    
O18   V4    S    
C55   H27   S    
C11   C12   A    
C19   C20   A    
C2    C69   S    
C56   H28   S    
C1    O6    A    
C50   C51   A    
C33   C38   A    
C18   C19   A    
C7    C16   S    
C29   C30   A    
C32   C33   A    
C62   C63   A    
C46   H23   S    
C12   H6    S    
O17   V4    S    
C5    C10   A    
C6    C7    A    
C17   H9    S    
C9    C10   A    
C15   H8    S    
C23   H13   S    
C73   O16   A    
V3    O20   S    
C68   H36   S    
C51   H26   S    
C64   H33   S    
O12   V3    S    
O19   V4    S    
C27   C32   A    
C42   C43   A    
C70   H37   S    
C61   H31   S    
O14   V3    S    
O8    V2    S    
C47   C52   A    
C67   C72   A    
C52   C53   A    
C36   H17   S    
C71   C72   A    
C68   C69   A    
C13   C22   S    
C63   C64   A    
C39   C40   A    
O1    V2    S    
O9    C4    A    
C38   N1    S    
C29   H15   S    
O7    V1    S    
C45   H22   S    
C3    C24   S    
C55   C56   A    
C25   H14   S    
C31   C36   A    
O11   C74   A    
C20   C21   A    
O15   V3    S    
C21   C22   A    
C57   C58   A    
C70   C71   A    
C45   C46   A    
C8    H3    S    
C26   C29   A    
C43   C44   A    
C27   C28   A    
O19   C76   A    
C9    H4    S    
C18   H10   S    
O4    C2    A    
C57   C66   S    
C47   C48   A    
C41   C42   A    
C26   C27   A    
C34   C35   A    
C46   C47   A    
C65   H34   S    
C61   C66   A    
C14   C15   A    
C54   O21   S    
O2    C1    A    
O14   C74   A    
C49   C54   A    
C10   C75   S    
C28   C35   A    
O15   C75   A    
C40   C74   S    
C23   C24   A    
C1    C53   S    
N1    H39   S    
C59   C60   A    
C5    H1    S    
C61   C62   A    
C53   C54   A    
O3    C4    A    
C35   H19   S    
C4    C19   S    
O13   C76   A    
C34   H18   S    
C24   C25   A    
C58   H29   S    
O6    V2    S    
C58   C59   A    
C43   C48   A    
O9    V2    S    
O18   C75   A    
C42   C45   A    
C8    C9    A    
C20   H11   S    
O17   V3    S    
C39   H20   S    
C39   C44   A    
C41   H21   S    
C71   H38   S    
O12   C73   A    
C67   H35   S    
C62   H32   S    
C77   H42   S    
C52   H24   S    
C30   C31   A    
O1    C2    A    
C13   C14   A    
C21   H12   S    
C49   C50   A    
C60   C73   S    
C55   C60   A    
O5    V1    S    
O8    C3    A    
C56   C57   A    
C44   C51   A    
C23   C28   A    
C30   H16   S    
C11   C16   A    
V4    O20   S    
O11   V4    S    
C14   H7    S    
C6    H2    S    
O7    V2    S    
O4    V1    S    
C12   C13   A    
O3    V1    S    
V1    O10   S    
C69   C70   A    
O5    C3    A    
N1    H40   S    
O13   V3    S    
C33   C34   A    
V2    O10   S    
C59   H30   S    
C5    C6    A    
C64   C65   A    
C15   C16   A    
C37   C38   A    
C65   C66   A    
C48   C49   A    
C50   H25   S    
C40   C41   A    
C17   C18   A    
C25   C26   A    
C11   H5    S    
O21   C77   S    
C36   C37   A    
C63   C72   S    
C17   C22   A    
C7    C8    A    
O16   V4    S    
C77   H41   S    
C37   C76   S    
C67   C68   A    
O2    V1    S    
