data_mof_unit_398.cif
_audit_creation_date              2012-12-10T17:05:14-0500
_audit_creation_method            fapswitch 2.2
_symmetry_space_group_name_H-M    P1
_symmetry_Int_Tables_number       1
_space_group_crystal_system       triclinic
_cell_length_a                    10.764084
_cell_length_b                    10.915457
_cell_length_c                    9.800979
_cell_angle_alpha                 110.605862
_cell_angle_beta                  98.925312
_cell_angle_gamma                 90.968849
_cell_volume                      1061.65119692

loop_
_atom_site_label
_atom_site_type_symbol
_atom_type_description
_atom_site_fract_x
_atom_site_fract_y
_atom_site_fract_z
_atom_type_partial_charge
C1    C     C_R   0.496748 0.253808 0.441346 0.855737
C2    C     C_3   0.878163 0.499321 0.500143 0.066132
C3    C     C_3   0.919365 0.587140 0.417504 -0.397517
C4    C     C_3   0.911422 0.355118 0.417155 -0.221860
C5    C     C_2   0.502276 0.113663 0.411339 -0.398725
C6    C     C_2   0.575358 0.067990 0.504037 0.007092
C7    C     C_2   0.533852 0.887658 0.591089 -0.183448
C8    C     C_2   0.556711 0.929100 0.482572 -0.278479
C9    C     C_2   0.511023 0.510378 0.081412 -0.059106
C10   C     C_2   0.490419 0.487941 0.918123 -0.055024
C11   C     C_R   0.259919 0.499114 0.500142 0.773762
C12   C     C_R   0.513243 0.746878 0.558944 0.804737
C13   C     C_R   0.740249 0.501822 0.500352 0.764418
C14   C     C_3   0.097598 0.545565 0.661214 -0.443430
C15   C     C_3   0.955174 0.544980 0.663749 -0.134113
C16   C     C_3   0.063781 0.595078 0.429036 -0.391590
C17   C     C_3   0.057144 0.353879 0.416417 -0.173111
C18   C     C_3   0.122130 0.497098 0.499193 0.092780
Cu1   Cu    Cu3+1 0.522160 0.521810 0.644910 0.952968
Cu2   Cu    Cu3+1 0.477840 0.478190 0.355090 0.961945
H1    H     H_    0.145669 0.645382 0.723252 0.183628
H2    H     H_    0.089445 0.578146 0.319005 0.172311
H3    H     H_    0.875248 0.545623 0.298712 0.175922
H4    H     H_    0.553559 0.859217 0.370775 0.170974
H5    H     H_    0.439603 0.046139 0.315445 0.144262
H6    H     H_    0.418385 0.413400 0.844216 0.157256
H7    H     H_    0.584359 0.583550 0.154982 0.146041
H8    H     H_    0.621702 0.625813 0.935946 0.193255
H9    H     H_    0.139908 0.480960 0.719359 0.156918
H10   H     H_    0.375798 0.376308 0.064902 0.206353
H11   H     H_    0.933706 0.465597 0.705513 0.132805
H12   H     H_    0.103535 0.696626 0.498152 0.150423
H13   H     H_    0.884801 0.686351 0.459520 0.148861
H14   H     H_    0.092605 0.298714 0.489252 0.099900
H15   H     H_    0.887542 0.294089 0.481135 0.105660
N1    N     N_2   0.444530 0.445420 0.137360 -0.271714
N2    N     N_2   0.555520 0.554510 0.862630 -0.282174
O1    O     O_R   0.511820 0.332340 0.577400 -0.567067
O2    O     O_R   0.474400 0.295500 0.332650 -0.547133
O3    O     O_R   0.336400 0.518400 0.622370 -0.592421
O4    O     O_R   0.298980 0.481560 0.377620 -0.568607
O5    O     O_R   0.525600 0.704500 0.667350 -0.560864
O6    O     O_R   0.488180 0.667660 0.422600 -0.585214
O7    O     O_R   0.701020 0.518440 0.622380 -0.574730
O8    O     O_R   0.663600 0.481600 0.377630 -0.573276
C19   C     C_1   0.832523 0.291607 0.268960 0.239853
N3    N     N_1   0.770231 0.242545 0.153660 -0.259088
C20   C     C_1   0.673097 0.150323 0.622214 0.311322
N4    N     N_1   0.751054 0.215788 0.716223 -0.318486
C21   C     C_1   0.530004 0.978066 0.739726 0.271216
N5    N     N_1   0.526831 0.050014 0.858319 -0.275696
C22   C     C_R   0.922796 0.673420 0.776887 0.170641
C23   C     C_R   0.944274 0.796851 0.765084 -0.183923
C24   C     C_R   0.914640 0.911490 0.871601 -0.123016
C25   C     C_R   0.867918 0.905638 0.994332 -0.066809
C26   C     C_R   0.850111 0.785061 0.010579 -0.180620
C27   C     C_R   0.877019 0.669811 0.902860 -0.121432
H16   H     H_    0.987246 0.806700 0.677071 0.123553
H17   H     H_    0.929686 0.005307 0.859968 0.156443
H18   H     H_    0.846967 0.994574 0.077812 0.152405
H19   H     H_    0.815183 0.780720 0.106712 0.113549
H20   H     H_    0.862178 0.577536 0.918377 0.118650
C28   C     C_R   0.096103 0.279473 0.265846 0.139653
C29   C     C_R   0.062999 0.316958 0.141765 -0.066413
C30   C     C_R   0.104033 0.249919 0.008504 -0.187569
C31   C     C_R   0.177708 0.143866 0.996124 -0.134720
C32   C     C_R   0.209321 0.103716 0.116524 -0.078575
C33   C     C_R   0.169206 0.170883 0.250435 -0.165428
H21   H     H_    0.002823 0.395597 0.145421 0.118566
H22   H     H_    0.077787 0.279721 0.914278 0.129318
H23   H     H_    0.209054 0.091828 0.892676 0.129981
H24   H     H_    0.265267 0.020493 0.106095 0.123550
H25   H     H_    0.196364 0.138376 0.342481 0.098533

loop_
_geom_bond_atom_site_label_1
_geom_bond_atom_site_label_2
_ccdc_geom_bond_type
C30   H22   S    
C9    N1    D    
C6    C8    S    
C23   H16   S    
C11   C18   S    
C15   H11   S    
Cu1   O1    S    
C16   H12   S    
C29   H21   S    
C9    C10   S    
C14   C18   S    
C3    H3    S    
C31   H23   S    
C14   C15   S    
Cu1   O5    S    
H10   N1    S    
C25   C26   A    
C29   C30   A    
C10   H6    S    
Cu1   Cu2   S    
C17   C18   S    
C4    H15   S    
C27   H20   S    
C4    C19   S    
C25   H18   S    
Cu1   O7    S    
C32   C33   A    
C13   O8    A    
C2    C15   S    
C2    C13   S    
C22   C27   A    
C7    C12   S    
C26   C27   A    
C6    C20   S    
H8    N2    S    
C10   N2    D    
C1    C5    S    
C4    C17   S    
C1    O1    A    
C14   H1    S    
C20   N4    T    
C8    H4    S    
C2    C3    S    
C12   O6    A    
C24   H17   S    
C30   C31   A    
C11   O3    A    
C5    H5    S    
Cu1   O3    S    
C17   H14   S    
C1    O2    A    
C14   H9    S    
C12   O5    A    
C28   C29   A    
Cu2   N1    S    
C2    C4    S    
C7    C8    D    
Cu2   O6    S    
C31   C32   A    
C22   C23   A    
C9    H7    S    
C16   C18   S    
C32   H24   S    
C19   N3    T    
C11   O4    A    
C28   C33   A    
C24   C25   A    
C5    C6    D    
Cu2   O2    S    
C3    H13   S    
C26   H19   S    
C16   H2    S    
Cu1   N2    S    
C21   N5    T    
C33   H25   S    
C15   C22   S    
C7    C21   S    
C13   O7    A    
C17   C28   S    
C3    C16   S    
Cu2   O8    S    
C23   C24   A    
Cu2   O4    S    
