data_mof_unit_828.cif
_audit_creation_date              2012-12-10T16:56:31-0500
_audit_creation_method            fapswitch 2.2
_symmetry_space_group_name_H-M    P1
_symmetry_Int_Tables_number       1
_space_group_crystal_system       triclinic
_cell_length_a                    10.755622
_cell_length_b                    10.973029
_cell_length_c                    9.73797
_cell_angle_alpha                 90.920818
_cell_angle_beta                  89.464743
_cell_angle_gamma                 90.173165
_cell_volume                      1149.08897565

loop_
_atom_site_label
_atom_site_type_symbol
_atom_type_description
_atom_site_fract_x
_atom_site_fract_y
_atom_site_fract_z
_atom_type_partial_charge
C1    C     C_R   0.504084 0.266166 0.498018 0.917058
C2    C     C_3   0.877618 0.505145 0.498076 -0.016971
C3    C     C_3   0.928820 0.604538 0.598818 -0.402658
C4    C     C_3   0.931999 0.519258 0.348241 0.375753
C5    C     C_2   0.540288 0.930690 0.404098 -0.313138
C6    C     C_2   0.500307 0.866777 0.512442 0.276143
C7    C     C_2   0.564192 0.062550 0.408985 0.472163
C8    C     C_2   0.494443 0.135679 0.491613 -0.319170
C9    C     C_2   0.476678 0.406069 0.927598 0.485259
C10   C     C_2   0.514575 0.405436 0.074464 -0.055970
C11   C     C_R   0.259981 0.501286 0.500099 0.813362
C12   C     C_R   0.498116 0.734357 0.502075 0.727192
C13   C     C_R   0.739836 0.503360 0.499399 0.814985
C14   C     C_3   0.069737 0.376801 0.546231 0.336635
C15   C     C_3   0.925419 0.381339 0.551932 -0.506540
C16   C     C_3   0.072218 0.604888 0.596061 -0.501540
C17   C     C_3   0.074387 0.528960 0.351246 -0.395319
C18   C     C_3   0.121835 0.502363 0.498655 0.021917
Cu1   Cu    Cu3+1 0.500030 0.500020 0.638630 1.020626
Cu2   Cu    Cu3+1 0.499970 0.499980 0.361370 1.023393
H1    H     H_    0.103945 0.361270 0.652189 0.148420
H2    H     H_    0.106806 0.695179 0.561559 0.168162
H3    H     H_    0.892573 0.696602 0.578312 0.170503
H4    H     H_    0.565331 0.883088 0.309077 0.179600
H5    H     H_    0.416995 0.100745 0.550107 0.168519
H6    H     H_    0.549988 0.568434 0.890347 0.168300
H7    H     H_    0.537769 0.319272 0.120299 0.244861
H8    H     H_    0.464162 0.575787 0.108112 0.188325
H9    H     H_    0.885908 0.304730 0.490738 0.237656
H10   H     H_    0.893265 0.367656 0.659639 0.176090
H11   H     H_    0.106862 0.591811 0.702147 0.202623
H12   H     H_    0.896949 0.584705 0.705284 0.206348
H13   H     H_    0.107241 0.620079 0.318299 0.166401
H14   H     H_    0.113709 0.462232 0.275259 0.211639
H15   H     H_    0.912521 0.430322 0.295729 0.172033
N1    N     N_2   0.498630 0.498660 0.846910 -0.348897
N2    N     N_2   0.498590 0.498630 0.153040 -0.306807
O1    O     O_R   0.500020 0.321960 0.617040 -0.498160
O2    O     O_R   0.499980 0.321920 0.382900 -0.538253
O3    O     O_R   0.317710 0.500000 0.617070 -0.559361
O4    O     O_R   0.317670 0.499960 0.382930 -0.573912
O5    O     O_R   0.500020 0.678080 0.617100 -0.564928
O6    O     O_R   0.499980 0.678040 0.382960 -0.611179
O7    O     O_R   0.682330 0.500040 0.617070 -0.597328
O8    O     O_R   0.682290 0.500000 0.382930 -0.513479
O9    O     O_3   0.875939 0.605714 0.260341 -0.573843
C19   C     C_3   0.872007 0.725782 0.313768 -0.196006
H16   H     H_    0.959286 0.754792 0.364553 0.137377
H17   H     H_    0.790285 0.737549 0.383042 0.161672
H18   H     H_    0.858278 0.788201 0.226830 0.211490
O10   O     O_3   0.486073 0.921674 0.641433 -0.533070
C20   C     C_3   0.363428 0.902494 0.690924 -0.257092
H19   H     H_    0.354091 0.812309 0.739929 0.178798
H20   H     H_    0.292131 0.912413 0.609434 0.094903
H21   H     H_    0.342737 0.972350 0.771379 0.219128
S1    S     S_3+6 0.685848 0.112950 0.298685 -0.019640
O11   O     O_2   0.643474 0.099781 0.152563 -0.272451
O12   O     O_2   0.724115 0.242474 0.326149 -0.342315
O13   O     O_3   0.809598 0.022373 0.320749 -0.578032
H22   H     H_    0.873450 0.052466 0.255526 0.374321
S2    S     S_3+6 0.390098 0.275042 0.880631 0.011084
O14   O     O_2   0.297362 0.302371 0.771782 -0.335121
O15   O     O_2   0.477521 0.176529 0.831930 -0.267812
O16   O     O_3   0.313089 0.224930 0.020030 -0.539692
H23   H     H_    0.272650 0.148026 0.989582 0.363120
O17   O     O_3   0.110161 0.284001 0.452731 -0.569111
C21   C     C_3   0.114087 0.169857 0.517385 -0.290486
H24   H     H_    0.024708 0.147582 0.569763 0.176483
H25   H     H_    0.191807 0.166770 0.591282 0.188150
H26   H     H_    0.131388 0.098249 0.437863 0.187791

loop_
_geom_bond_atom_site_label_1
_geom_bond_atom_site_label_2
_ccdc_geom_bond_type
C10   H7    S    
C9    N1    D    
C16   H2    S    
C21   H24   S    
Cu1   O5    S    
C11   C18   S    
C15   H9    S    
Cu2   N2    S    
Cu1   O1    S    
C6    O10   S    
S2    O16   S    
C1    C8    S    
C9    C10   S    
C14   C18   S    
C3    H3    S    
C19   H16   S    
S1    O13   S    
C21   H26   S    
O16   H23   S    
C20   H20   S    
S2    O15   D    
C17   C18   S    
C14   O17   S    
C4    H15   S    
O13   H22   S    
C19   H17   S    
C4    O9    S    
C20   H19   S    
S1    O11   D    
C16   H11   S    
C13   O8    A    
C2    C15   S    
C2    C13   S    
S2    O14   D    
C5    H4    S    
C17   H13   S    
C7    S1    S    
C10   N2    D    
Cu2   O4    S    
C4    C17   S    
C1    O1    A    
C14   H1    S    
H6    N1    S    
C20   H21   S    
S1    O12   D    
C11   O4    A    
C19   H18   S    
C2    C3    S    
Cu1   N1    S    
C5    C6    D    
C6    C12   S    
C11   O3    A    
C9    S2    S    
Cu1   O3    S    
C1    O2    A    
C8    H5    S    
O10   C20   S    
C2    C4    S    
C7    C8    D    
Cu2   O6    S    
O17   C21   S    
Cu1   O7    S    
C15   H10   S    
C16   C18   S    
C17   H14   S    
Cu2   O8    S    
C5    C7    S    
Cu2   O2    S    
O9    C19   S    
C12   O5    A    
C3    H12   S    
C14   C15   S    
C12   O6    A    
C13   O7    A    
C3    C16   S    
Cu1   Cu2   S    
H8    N2    S    
C21   H25   S    
