data_mof_unit_276.cif
_audit_creation_date              2012-12-10T18:35:06-0500
_audit_creation_method            fapswitch 2.2
_symmetry_space_group_name_H-M    P1
_symmetry_Int_Tables_number       1
_space_group_crystal_system       triclinic
_cell_length_a                    18.75406
_cell_length_b                    18.784722
_cell_length_c                    18.83512
_cell_angle_alpha                 109.375583
_cell_angle_beta                  109.276976
_cell_angle_gamma                 109.042114
_cell_volume                      5152.74050669

loop_
_atom_site_label
_atom_site_type_symbol
_atom_type_description
_atom_site_fract_x
_atom_site_fract_y
_atom_site_fract_z
_atom_type_partial_charge
C1    C     C_R   0.381559 0.500765 0.381700 0.769764
C2    C     C_R   0.841570 0.822905 0.843676 -0.430498
C3    C     C_R   0.986421 0.736715 0.972919 -0.082526
C4    C     C_R   0.962275 0.731595 0.034481 -0.142887
C5    C     C_R   0.024404 0.781804 0.122662 0.152638
C6    C     C_R   0.284244 0.547447 0.953680 -0.159254
C7    C     C_R   0.200090 0.479431 0.893764 -0.148066
C8    C     C_R   0.172366 0.399068 0.891431 0.025562
C9    C     C_R   0.232818 0.386670 0.948351 0.508903
C10   C     C_R   0.317385 0.455260 0.006914 -0.132240
C11   C     C_R   0.342783 0.535449 0.010344 -0.189011
C12   C     C_R   0.082598 0.261132 0.752578 0.442918
C13   C     C_R   0.824000 0.817049 0.573734 -0.175931
C14   C     C_R   0.002267 0.189817 0.684500 -0.193479
C15   C     C_R   0.924706 0.186980 0.679850 -0.012374
C16   C     C_R   0.927796 0.249241 0.747734 -0.205659
C17   C     C_R   0.006942 0.317563 0.818150 -0.152913
C18   C     C_R   0.085680 0.325623 0.820150 -0.122044
C19   C     C_R   0.793011 0.142995 0.548546 0.422524
C20   C     C_R   0.716790 0.077930 0.470640 -0.234614
C21   C     C_R   0.688089 0.991284 0.447958 -0.284991
C22   C     C_R   0.733400 0.968599 0.503701 -0.145035
C23   C     C_R   0.807372 0.031739 0.582702 0.358198
C24   C     C_R   0.812083 0.809995 0.494017 -0.092747
C25   C     C_R   0.839208 0.119658 0.604155 0.008306
C26   C     C_R   0.734439 0.741198 0.416864 0.049151
C27   C     C_R   0.674541 0.679805 0.423337 -0.168712
C28   C     C_R   0.687283 0.686625 0.502931 -0.067631
C29   C     C_R   0.761527 0.757839 0.579742 0.064287
C30   C     C_R   0.697392 0.785864 0.303635 -0.275575
C31   C     C_R   0.673906 0.771850 0.219186 0.479607
C32   C     C_R   0.663555 0.696954 0.157946 -0.184061
C33   C     C_R   0.621142 0.618882 0.502596 0.779613
C34   C     C_R   0.673090 0.635021 0.179213 -0.351768
C35   C     C_R   0.693893 0.647356 0.263214 0.532626
C36   C     C_R   0.712952 0.726948 0.327842 -0.038504
C37   C     C_R   0.488947 0.794887 0.507340 -0.182378
C38   C     C_R   0.418690 0.710909 0.453199 0.537785
C39   C     C_R   0.405982 0.659988 0.371213 -0.149679
C40   C     C_R   0.462986 0.694845 0.342909 0.458262
C41   C     C_R   0.530546 0.779907 0.396928 -0.188131
C42   C     C_R   0.543650 0.829693 0.478671 -0.305327
C43   C     C_R   0.261133 0.573104 0.244420 -0.210194
C44   C     C_R   0.616649 0.497875 0.618813 0.782961
C45   C     C_R   0.183400 0.496174 0.184914 -0.102682
C46   C     C_R   0.169534 0.420811 0.192777 0.060621
C47   C     C_R   0.236201 0.423832 0.257176 -0.227153
C48   C     C_R   0.313847 0.501040 0.316144 -0.064347
C49   C     C_R   0.325690 0.576602 0.310812 0.084361
C50   C     C_R   0.016771 0.324444 0.148757 -0.176708
C51   C     C_R   0.939279 0.245989 0.094257 -0.124393
C52   C     C_R   0.932389 0.179651 0.025837 -0.183048
C53   C     C_R   0.003538 0.190930 0.012816 -0.228424
C54   C     C_R   0.082666 0.268963 0.068796 0.508634
C55   C     C_R   0.379723 0.381367 0.498801 0.783013
C56   C     C_R   0.087812 0.337412 0.134575 0.025777
C57   C     C_R   0.251031 0.536718 0.616615 -0.083401
C58   C     C_R   0.254813 0.460559 0.602782 -0.089551
C59   C     C_R   0.236978 0.402788 0.521205 0.110228
C60   C     C_R   0.214385 0.421427 0.453367 -0.144135
C61   C     C_R   0.209467 0.497152 0.467136 -0.079052
C62   C     C_R   0.227713 0.554701 0.548752 -0.080777
C63   C     C_R   0.180182 0.256412 0.504506 -0.255649
C64   C     C_R   0.185964 0.181880 0.496305 -0.076696
C65   C     C_R   0.256460 0.173508 0.489815 0.075678
C66   C     C_R   0.764351 0.820078 0.795435 0.334105
C67   C     C_R   0.315704 0.238464 0.486169 -0.168161
C68   C     C_R   0.311702 0.314166 0.497632 -0.087060
C69   C     C_R   0.243780 0.323833 0.507886 0.000559
C70   C     C_R   0.351587 0.110403 0.538017 0.455653
C71   C     C_R   0.363672 0.038154 0.530265 0.475097
C72   C     C_R   0.295253 0.954622 0.465660 -0.284267
C73   C     C_R   0.217060 0.943163 0.409729 -0.164349
C74   C     C_R   0.203820 0.013918 0.418964 -0.212470
C75   C     C_R   0.269871 0.097995 0.483981 -0.054603
C76   C     C_R   0.506364 0.544073 0.797162 0.554896
C77   C     C_R   0.737315 0.799596 0.708810 0.554488
C78   C     C_R   0.580402 0.553523 0.789369 -0.139003
C79   C     C_R   0.597020 0.483927 0.766024 -0.020435
C80   C     C_R   0.541243 0.405530 0.755328 -0.146378
C81   C     C_R   0.466208 0.394240 0.760554 -0.147931
C82   C     C_R   0.447757 0.462252 0.779921 -0.258476
C83   C     C_R   0.740487 0.492592 0.818702 -0.239223
C84   C     C_R   0.814336 0.498521 0.812449 -0.091365
C85   C     C_R   0.822947 0.504564 0.742654 0.021338
C86   C     C_R   0.756697 0.503796 0.680065 -0.233170
C87   C     C_R   0.683017 0.497976 0.686359 -0.069984
C88   C     C_R   0.781238 0.771078 0.667555 -0.172811
C89   C     C_R   0.674950 0.493591 0.757152 0.028842
C90   C     C_R   0.950462 0.579656 0.728693 -0.198184
C91   C     C_R   0.020721 0.582894 0.716381 -0.232570
C92   C     C_R   0.039278 0.514363 0.705739 0.443979
C93   C     C_R   0.986543 0.443091 0.707469 -0.085657
C94   C     C_R   0.916521 0.440028 0.720219 -0.175327
C95   C     C_R   0.898249 0.508447 0.731226 0.099443
C96   C     C_R   0.996459 0.877237 0.381979 0.802612
C97   C     C_R   0.880818 0.877419 0.495862 0.820767
C98   C     C_R   0.000720 0.120008 0.618391 0.866923
C99   C     C_R   0.856666 0.771887 0.716410 -0.253973
C100  C     C_R   0.118885 0.116378 0.497648 0.776173
C101  C     C_R   0.004055 0.381937 0.884662 0.821062
C102  C     C_R   0.118309 0.497852 0.117404 0.786441
C103  C     C_R   0.000765 0.618670 0.119748 0.832803
C104  C     C_R   0.881342 0.499251 0.880253 0.776090
C105  C     C_R   0.024868 0.739231 0.535739 0.370022
C106  C     C_R   0.043834 0.759729 0.475771 0.404153
C107  C     C_R   0.979202 0.714057 0.387409 -0.152968
C108  C     C_R   0.899782 0.641717 0.358942 0.455359
C109  C     C_R   0.884653 0.619857 0.418570 -0.194148
C110  C     C_R   0.889683 0.802525 0.804805 0.434966
C111  C     C_R   0.945615 0.669058 0.506063 -0.307419
C112  C     C_R   0.998710 0.673466 0.257745 0.438879
C113  C     C_R   0.002113 0.685515 0.188704 -0.196055
C114  C     C_R   0.007026 0.761133 0.186262 -0.070178
C115  C     C_R   0.001685 0.820603 0.248702 -0.273367
C116  C     C_R   0.996804 0.808955 0.316811 -0.118591
C117  C     C_R   0.996279 0.735383 0.322849 -0.032689
C118  C     C_R   0.109035 0.841156 0.148694 -0.132767
C119  C     C_R   0.132710 0.846360 0.086915 -0.160676
C120  C     C_R   0.072110 0.792478 0.999123 -0.103706
Cu1   Cu    Cu3+1 0.499980 0.561800 0.561790 1.076655
Cu2   Cu    Cu3+1 0.500020 0.438200 0.438210 0.928957
Cu3   Cu    Cu3+1 0.061810 0.999960 0.561770 1.053328
Cu4   Cu    Cu3+1 0.938190 0.999990 0.438190 0.975597
Cu5   Cu    Cu3+1 0.061800 0.561770 0.999960 0.966626
Cu6   Cu    Cu3+1 0.938200 0.438190 0.000000 0.986083
H1    H     H_    0.865752 0.843725 0.911837 0.153712
H2    H     H_    0.646433 0.685878 0.092951 0.171249
H3    H     H_    0.663658 0.577382 0.129719 0.168070
H4    H     H_    0.594863 0.896108 0.519514 0.171485
H5    H     H_    0.498869 0.834140 0.570348 0.159522
H6    H     H_    0.571694 0.807187 0.373769 0.152058
H7    H     H_    0.271390 0.631514 0.240200 0.161727
H8    H     H_    0.227002 0.366029 0.262324 0.130224
H9    H     H_    0.021226 0.375557 0.201392 0.142282
H10   H     H_    0.884354 0.236808 0.104767 0.146594
H11   H     H_    0.871950 0.119298 0.983015 0.159354
H12   H     H_    0.997032 0.139098 0.959209 0.143091
H13   H     H_    0.223830 0.613248 0.559671 0.118154
H14   H     H_    0.266352 0.581873 0.680012 0.134071
H15   H     H_    0.272692 0.447089 0.655716 0.112589
H16   H     H_    0.200564 0.377359 0.390160 0.105784
H17   H     H_    0.191735 0.511243 0.414639 0.135654
H18   H     H_    0.126637 0.262927 0.510100 0.152689
H19   H     H_    0.366599 0.230633 0.475546 0.157816
H20   H     H_    0.301951 0.897984 0.458404 0.140710
H21   H     H_    0.166838 0.878598 0.359224 0.175365
H22   H     H_    0.142585 0.003415 0.374256 0.135029
H23   H     H_    0.388131 0.450410 0.781691 0.130003
H24   H     H_    0.625358 0.615681 0.801837 0.166808
H25   H     H_    0.894020 0.755446 0.687030 0.189459
H26   H     H_    0.555957 0.353105 0.742883 0.178345
H27   H     H_    0.422169 0.332531 0.749573 0.189550
H28   H     H_    0.734387 0.488390 0.872682 0.157450
H29   H     H_    0.762530 0.507670 0.625858 0.149945
H30   H     H_    0.936964 0.632812 0.736685 0.173419
H31   H     H_    0.060386 0.638578 0.714939 0.157758
H32   H     H_    0.999865 0.389819 0.698723 0.171859
H33   H     H_    0.876201 0.384172 0.720998 0.151121
H34   H     H_    0.931362 0.652123 0.551302 0.191785
H35   H     H_    0.824275 0.564624 0.396906 0.208463
H36   H     H_    0.004837 0.878298 0.246024 0.164689
H37   H     H_    0.157825 0.879616 0.216422 0.124060
H38   H     H_    0.198694 0.890186 0.107029 0.132242
H39   H     H_    0.091503 0.794407 0.951385 0.165646
H40   H     H_    0.939309 0.695628 0.904823 0.162584
H41   H     H_    0.882182 0.870680 0.632619 0.190119
H42   H     H_    0.897041 0.684768 0.013414 0.109657
H43   H     H_    0.408394 0.587874 0.056006 0.174486
H44   H     H_    0.304579 0.609046 0.955008 0.145173
H45   H     H_    0.156883 0.488893 0.847753 0.174122
H46   H     H_    0.364080 0.445759 0.049308 0.137429
H47   H     H_    0.867703 0.245456 0.744478 0.163234
H48   H     H_    0.680672 0.094174 0.426580 0.138700
H49   H     H_    0.616667 0.625812 0.365212 0.155909
H50   H     H_    0.630624 0.941893 0.386789 0.160766
H51   H     H_    0.711262 0.901437 0.486221 0.155591
H52   H     H_    0.702221 0.842194 0.349920 0.152942
O1    O     O_R   0.409800 0.552190 0.462000 -0.529111
O2    O     O_R   0.947810 0.909820 0.357620 -0.594695
O3    O     O_R   0.962020 0.909790 0.552160 -0.582881
O4    O     O_R   0.857630 0.909810 0.447800 -0.592123
O5    O     O_R   0.052190 0.090130 0.642340 -0.536871
O6    O     O_R   0.947800 0.090160 0.537980 -0.588673
O7    O     O_R   0.142370 0.090140 0.552150 -0.558849
O8    O     O_R   0.037980 0.090170 0.447800 -0.592236
O9    O     O_R   0.052200 0.461970 0.909800 -0.589250
O10   O     O_R   0.947810 0.357610 0.909840 -0.584874
O11   O     O_R   0.142370 0.552160 0.090140 -0.580207
O12   O     O_R   0.409840 0.447810 0.357640 -0.602113
O13   O     O_R   0.037990 0.447800 0.090170 -0.584100
O14   O     O_R   0.052190 0.642350 0.090120 -0.584044
O15   O     O_R   0.947800 0.537990 0.090150 -0.537369
O16   O     O_R   0.962010 0.552150 0.909780 -0.576250
O17   O     O_R   0.857630 0.447800 0.909820 -0.589297
O18   O     O_R   0.590160 0.642370 0.552180 -0.532546
O19   O     O_R   0.590190 0.537990 0.447820 -0.598753
O20   O     O_R   0.590160 0.552190 0.642360 -0.585755
O21   O     O_R   0.590200 0.447810 0.538000 -0.593324
O22   O     O_R   0.409810 0.462010 0.552180 -0.561302
O23   O     O_R   0.409840 0.357630 0.447820 -0.603572
O24   O     O_R   0.052200 0.909800 0.461980 -0.524242
O25   O     O_3   0.699852 0.585433 0.286123 -0.565381
C121  C     C_3   0.633536 0.500637 0.220868 -0.277456
H53   H     H_    0.651436 0.474268 0.171464 0.194612
H54   H     H_    0.569602 0.496982 0.190282 0.122691
H55   H     H_    0.626579 0.458707 0.250765 0.186015
O26   O     O_3   0.360924 0.678648 0.479376 -0.542622
C122  C     C_3   0.305438 0.714420 0.469208 -0.401448
H56   H     H_    0.340101 0.783679 0.519449 0.167435
H57   H     H_    0.251326 0.679064 0.477240 0.178841
H58   H     H_    0.276363 0.707138 0.403475 0.144561
O27   O     O_3   0.447987 0.652736 0.259186 -0.575921
C123  C     C_3   0.446124 0.572442 0.238668 -0.310261
H59   H     H_    0.378600 0.519213 0.192439 0.204517
H60   H     H_    0.471986 0.563068 0.295178 0.135764
H61   H     H_    0.485322 0.567065 0.206244 0.167857
O28   O     O_3   0.716997 0.842309 0.832398 -0.690891
H62   H     H_    0.744582 0.855306 0.893317 0.325178
O29   O     O_3   0.153980 0.281520 0.057223 -0.573110
C124  C     C_3   0.181970 0.223541 0.070449 -0.270286
H63   H     H_    0.137898 0.156876 0.014616 0.159198
H64   H     H_    0.188597 0.224106 0.131678 0.133942
H65   H     H_    0.246911 0.244193 0.075695 0.212623
O30   O     O_3   0.669395 0.810393 0.666252 -0.532332
C125  C     C_3   0.702973 0.895951 0.680631 -0.250475
H66   H     H_    0.758714 0.944975 0.746863 0.150730
H67   H     H_    0.651554 0.914249 0.672967 0.173782
H68   H     H_    0.721804 0.899010 0.631433 0.203294
O31   O     O_3   0.418689 0.193734 0.599462 -0.581098
C126  C     C_3   0.489252 0.212143 0.582953 -0.310471
H69   H     H_    0.471396 0.170683 0.514878 0.125395
H70   H     H_    0.540546 0.206783 0.627775 0.217708
H71   H     H_    0.517221 0.279807 0.595519 0.169786
O32   O     O_3   0.440575 0.051595 0.590939 -0.559540
C127  C     C_3   0.474978 0.005334 0.550768 -0.357862
H72   H     H_    0.469917 0.008535 0.491375 0.151904
H73   H     H_    0.443449 0.937129 0.536191 0.166945
H74   H     H_    0.544842 0.034865 0.596584 0.194040
O33   O     O_3   0.492533 0.614998 0.816269 -0.572226
C128  C     C_3   0.447084 0.617479 0.862925 -0.312178
H75   H     H_    0.472000 0.603161 0.915987 0.156314
H76   H     H_    0.376454 0.572975 0.818719 0.154854
H77   H     H_    0.456372 0.683820 0.893310 0.204477
O34   O     O_3   0.107901 0.515102 0.693376 -0.768364
H78   H     H_    0.138420 0.569649 0.693973 0.312613
O35   O     O_3   0.971424 0.816923 0.852296 -0.748587
H79   H     H_    0.992578 0.856086 0.913843 0.323281
O36   O     O_3   0.082259 0.785509 0.623474 -0.727690
H80   H     H_    0.133095 0.836606 0.636721 0.355867
O37   O     O_3   0.123593 0.827478 0.504808 -0.545838
C129  C     C_3   0.183590 0.797602 0.507996 -0.372426
H81   H     H_    0.180103 0.772513 0.444068 0.163298
H82   H     H_    0.175116 0.748101 0.529289 0.147779
H83   H     H_    0.249558 0.853338 0.555510 0.207370
O38   O     O_3   0.836705 0.588626 0.273122 -0.665200
H84   H     H_    0.841584 0.621144 0.241472 0.325019
O39   O     O_3   0.988001 0.596308 0.256389 -0.536356
C130  C     C_3   0.069581 0.602194 0.295909 -0.299922
H85   H     H_    0.091584 0.623870 0.365358 0.153246
H86   H     H_    0.120004 0.644781 0.287643 0.107674
H87   H     H_    0.062107 0.536596 0.266191 0.188443
O40   O     O_3   0.213667 0.308555 0.946847 -0.692460
H88   H     H_    0.150716 0.268034 0.909571 0.343957
O41   O     O_3   0.158853 0.266686 0.754601 -0.554115
C131  C     C_3   0.177890 0.307433 0.707311 -0.292498
H89   H     H_    0.193485 0.376106 0.739569 0.166041
H90   H     H_    0.123808 0.272683 0.639848 0.137582
H91   H     H_    0.235679 0.306753 0.704075 0.187739
O42   O     O_3   0.825139 0.229108 0.570327 -0.754546
H92   H     H_    0.785321 0.234208 0.524681 0.318939
O43   O     O_3   0.848120 0.004701 0.635170 -0.792205
H93   H     H_    0.890050 0.054456 0.694037 0.316640
O44   O     O_3   0.660306 0.829819 0.194639 -0.731143
H94   H     H_    0.670328 0.879246 0.245124 0.315738

loop_
_geom_bond_atom_site_label_1
_geom_bond_atom_site_label_2
_ccdc_geom_bond_type
C16   H47   S    
C110  O35   S    
Cu4   O8    S    
O25   C121  S    
C78   C79   A    
C44   O20   A    
C94   H33   S    
C7    H45   S    
C5    C114  S    
Cu3   Cu4   S    
C73   C74   A    
C92   C93   A    
C35   C36   A    
C58   H15   S    
C111  H34   S    
C130  H87   S    
C122  H58   S    
C114  C115  A    
O28   H62   S    
C57   C62   A    
Cu1   O1    S    
C83   H28   S    
C45   C46   A    
C108  C109  A    
C77   O30   S    
C78   H24   S    
O36   H80   S    
C124  H63   S    
C38   O26   S    
C73   H21   S    
C6    H44   S    
Cu2   O23   S    
C13   C29   A    
C28   C29   A    
C103  C113  S    
C76   C78   A    
Cu4   O6    S    
C124  H65   S    
C50   H9    S    
C109  C111  A    
C85   C86   A    
C112  C117  A    
C34   C35   A    
C123  H60   S    
C13   H41   S    
C16   C17   A    
C106  C107  A    
C10   H46   S    
C15   C16   A    
C55   O23   A    
C37   C42   A    
C102  O11   A    
C81   H27   S    
C127  H72   S    
C17   C18   A    
O44   H94   S    
C41   C42   A    
C98   O5    A    
C43   H7    S    
C17   C101  S    
C12   O41   S    
O29   C124  S    
C29   C88   S    
Cu3   O5    S    
C60   H16   S    
C118  C119  A    
Cu6   O17   S    
C61   H17   S    
C20   H48   S    
C83   C84   A    
C33   O18   A    
C8    C9    A    
C65   C67   A    
C40   O27   S    
C67   H19   S    
C68   C69   A    
O32   C127  S    
C55   O22   A    
Cu2   O12   S    
C70   C71   A    
C71   O32   S    
C62   H13   S    
C126  H71   S    
C101  O10   A    
C52   H11   S    
O41   C131  S    
C101  O9    A    
Cu1   O18   S    
C61   C62   A    
C130  H85   S    
C72   C73   A    
C112  O39   S    
C1    O12   A    
C105  C111  A    
C84   C104  S    
C59   C60   A    
C124  H64   S    
C21   C22   A    
C108  O38   S    
C92   O34   S    
Cu6   O13   S    
C22   H51   S    
C112  C113  A    
C120  H39   S    
C14   C98   S    
C19   O42   S    
C57   C58   A    
C83   C89   A    
Cu4   O2    S    
C54   C56   A    
C23   O43   S    
C91   H31   S    
C74   C75   A    
C63   C64   A    
C51   C52   A    
C82   H23   S    
C63   C69   A    
O37   C129  S    
C84   C85   A    
C77   C88   A    
C122  H56   S    
C7    C8    A    
C131  H89   S    
C27   H49   S    
C91   C92   A    
C55   C68   S    
C123  H59   S    
C43   C49   A    
C76   O33   S    
C50   C51   A    
C58   C59   A    
C53   C54   A    
C99   C110  A    
C99   H25   S    
C123  H61   S    
C81   C82   A    
C4    H42   S    
C13   C24   A    
C60   C61   A    
C128  H76   S    
C32   C34   A    
C106  O37   S    
Cu3   O7    S    
C100  O8    A    
C86   H29   S    
C70   O31   S    
Cu1   O22   S    
Cu4   O4    S    
C37   C38   A    
C1    O1    A    
C51   H10   S    
C129  H82   S    
C47   C48   A    
C14   C15   A    
C121  H55   S    
C33   O19   A    
C30   C31   A    
C119  C120  A    
C21   H50   S    
O38   H84   S    
C20   C21   A    
C102  O13   A    
C30   H52   S    
C94   C95   A    
C126  H70   S    
C93   C94   A    
C96   O2    A    
C67   C68   A    
C97   O3    A    
C4    C5    A    
C43   C45   A    
O26   C122  S    
Cu1   Cu2   S    
C131  H90   S    
C59   C69   S    
C129  H83   S    
C26   C36   S    
C48   C49   A    
C39   C49   S    
C12   C14   A    
C28   C33   S    
C11   H43   S    
C125  H67   S    
C53   H12   S    
C87   C89   A    
C47   H8    S    
C26   C27   A    
Cu5   Cu6   S    
Cu2   O21   S    
O43   H93   S    
C107  C108  A    
C76   C82   A    
C3    C4    A    
C44   C87   S    
C57   H14   S    
C6    C11   A    
C52   C53   A    
C86   C87   A    
C97   O4    A    
C113  C114  A    
C9    C10   A    
C74   H22   S    
C3    C120  A    
C80   H26   S    
C66   C77   A    
C46   C47   A    
C40   C41   A    
Cu3   O24   S    
O30   C125  S    
O42   H92   S    
C34   H3    S    
C31   C32   A    
C24   C26   A    
C80   C81   A    
C2    C66   A    
C131  H91   S    
C90   C95   A    
C119  H38   S    
C41   H6    S    
O35   H79   S    
C1    C48   S    
C96   O24   A    
C6    C7    A    
C125  H68   S    
C105  C106  A    
C46   C56   S    
C54   O29   S    
C42   H4    S    
C127  H74   S    
C30   C36   A    
C5    C118  A    
Cu5   O9    S    
C128  H77   S    
C10   C11   A    
C64   C65   A    
C32   H2    S    
C19   C20   A    
O40   H88   S    
O39   C130  S    
C64   C100  S    
C105  O36   S    
O31   C126  S    
C66   O28   S    
C130  H86   S    
C109  H35   S    
C50   C56   A    
C2    H1    S    
C121  H54   S    
C85   C95   S    
Cu6   O15   S    
C35   O25   S    
C90   C91   A    
C38   C39   A    
Cu5   O16   S    
C115  H36   S    
C128  H75   S    
O27   C123  S    
C118  H37   S    
C9    O40   S    
Cu6   O10   S    
O33   C128  S    
C122  H57   S    
C104  O17   A    
C127  H73   S    
C116  C117  A    
C100  O7    A    
Cu5   O14   S    
C24   C97   S    
C23   C25   A    
Cu2   O19   S    
C98   O6    A    
C93   H32   S    
C19   C25   A    
C8    C18   S    
Cu1   O20   S    
C79   C89   S    
C88   C99   A    
C15   C25   S    
C45   C102  S    
C63   H18   S    
C79   C80   A    
C39   C40   A    
C37   H5    S    
C71   C72   A    
C121  H53   S    
C70   C75   A    
C44   O21   A    
Cu3   O3    S    
C125  H66   S    
C12   C18   A    
C126  H69   S    
C72   H20   S    
C104  O16   A    
C22   C23   A    
C96   C116  S    
Cu5   O11   S    
C103  O14   A    
C103  O15   A    
O34   H78   S    
C31   O44   S    
C90   H30   S    
C107  C117  S    
C65   C75   S    
C115  C116  A    
C3    H40   S    
C129  H81   S    
C27   C28   A    
C2    C110  A    
