data_mof_unit_3236.cif
_audit_creation_date              2012-12-11T15:39:03-0500
_audit_creation_method            fapswitch 2.2
_symmetry_space_group_name_H-M    P1
_symmetry_Int_Tables_number       1
_space_group_crystal_system       triclinic
_cell_length_a                    14.306546
_cell_length_b                    14.799815
_cell_length_c                    33.183042
_cell_angle_alpha                 97.469302
_cell_angle_beta                  90.443202
_cell_angle_gamma                 118.973431
_cell_volume                      6074.20793985

loop_
_atom_site_label
_atom_site_type_symbol
_atom_type_description
_atom_site_fract_x
_atom_site_fract_y
_atom_site_fract_z
_atom_type_partial_charge
C1    C     C_R   0.617083 0.910227 0.437049 0.545248
C2    C     C_R   0.745465 0.426359 0.187615 0.011378
C3    C     C_R   0.730528 0.866663 0.647173 -0.104998
C4    C     C_R   0.650356 0.765966 0.652235 0.008057
C5    C     C_R   0.634318 0.855064 0.584231 0.019894
C6    C     C_R   0.052275 0.781315 0.063805 0.549228
C7    C     C_R   0.743881 0.486599 0.066175 0.550030
C8    C     C_R   0.742129 0.789494 0.066155 0.542659
C9    C     C_R   0.023841 0.733502 0.947704 0.540882
C10   C     C_R   0.730893 0.485706 0.945855 0.516452
C11   C     C_R   0.738309 0.719540 0.944884 0.534452
C12   C     C_R   0.831009 0.438331 0.164490 -0.123883
C13   C     C_R   0.827575 0.450616 0.123690 -0.123227
C14   C     C_R   0.756743 0.336343 0.242926 -0.148132
C15   C     C_R   0.747268 0.319759 0.283245 -0.132080
C16   C     C_R   0.732875 0.388272 0.312624 -0.015655
C17   C     C_R   0.732661 0.476271 0.301389 -0.044553
C18   C     C_R   0.742862 0.494391 0.261004 0.253832
C19   C     C_R   0.751523 0.421302 0.231229 0.015440
C20   C     C_R   0.627329 0.370424 0.373518 -0.137548
C21   C     C_R   0.595415 0.207864 0.457324 0.576338
C22   C     C_R   0.594454 0.330843 0.410104 0.009957
C23   C     C_R   0.731902 0.278473 0.408173 -0.144994
C24   C     C_R   0.765988 0.321472 0.372863 -0.121581
C25   C     C_R   0.710533 0.362712 0.354110 0.022849
C26   C     C_R   0.642147 0.276723 0.426024 0.036049
C27   C     C_R   0.245353 0.877108 0.392994 0.039469
C28   C     C_R   0.196180 0.935085 0.381992 0.006008
C29   C     C_R   0.179562 0.938467 0.340462 -0.134888
C30   C     C_R   0.207345 0.882554 0.310245 0.031643
C31   C     C_R   0.247502 0.819264 0.321045 -0.119677
C32   C     C_R   0.294316 0.892204 0.434605 0.579817
C33   C     C_R   0.266223 0.816403 0.361905 -0.147279
C34   C     C_R   0.196851 0.810058 0.163652 -0.109878
C35   C     C_R   0.166457 0.785249 0.121913 -0.117782
C36   C     C_R   0.097463 0.906786 0.128463 -0.126944
C37   C     C_R   0.127226 0.930902 0.170368 -0.112371
C38   C     C_R   0.173576 0.879779 0.188170 0.037989
C39   C     C_1   0.186459 0.888626 0.231718 -0.025818
C40   C     C_1   0.195392 0.888817 0.267838 -0.019532
C41   C     C_R   0.112191 0.829936 0.104198 0.019849
C42   C     C_R   0.638277 0.877387 0.395825 0.022655
C43   C     C_R   0.613863 0.904283 0.551548 0.542532
C44   C     C_R   0.554320 0.795295 0.369395 -0.131702
C45   C     C_R   0.566625 0.780070 0.327800 -0.110823
C46   C     C_R   0.663085 0.845954 0.312373 0.048168
C47   C     C_R   0.749485 0.922845 0.338815 -0.110896
C48   C     C_R   0.737337 0.938462 0.380373 -0.121857
C49   C     C_R   0.787013 0.903649 0.176358 -0.132564
C50   C     C_R   0.800917 0.894699 0.134832 -0.158985
C51   C     C_R   0.612093 0.763935 0.120513 0.238718
C52   C     C_R   0.599912 0.772587 0.162394 -0.043140
C53   C     C_R   0.687703 0.839787 0.190227 -0.010200
C54   C     C_R   0.591795 0.202956 0.569882 0.584653
C55   C     C_1   0.677486 0.840185 0.233133 -0.019149
C56   C     C_1   0.670611 0.841242 0.269228 -0.008301
C57   C     C_R   0.715694 0.821030 0.106632 0.009665
C58   C     C_R   0.632778 0.265761 0.610573 0.033719
C59   C     C_R   0.612081 0.348427 0.625389 0.001519
C60   C     C_R   0.634499 0.389263 0.667092 -0.122030
C61   C     C_R   0.679952 0.351642 0.693221 0.033895
C62   C     C_R   0.707631 0.276287 0.677976 -0.118686
C63   C     C_R   0.684349 0.233686 0.636966 -0.153366
C64   C     C_R   0.783497 0.516879 0.837246 -0.114197
C65   C     C_R   0.288451 0.886331 0.548334 0.551288
C66   C     C_R   0.791581 0.533712 0.879578 -0.144318
C67   C     C_R   0.641790 0.358536 0.880332 0.011897
C68   C     C_R   0.634084 0.342909 0.837451 -0.077429
C69   C     C_R   0.704327 0.421889 0.816227 0.003041
C70   C     C_1   0.697475 0.403293 0.772724 -0.032232
C71   C     C_1   0.690722 0.383224 0.736289 -0.015680
C72   C     C_R   0.721015 0.456321 0.901479 -0.018202
C73   C     C_R   0.070920 0.756824 0.908253 0.033544
C74   C     C_R   0.073094 0.841706 0.892614 -0.143461
C75   C     C_R   0.084766 0.850367 0.851606 -0.122515
C76   C     C_R   0.738141 0.450414 0.105696 0.018817
C77   C     C_R   0.092827 0.773508 0.824944 0.018582
C78   C     C_R   0.099012 0.692923 0.840745 -0.142300
C79   C     C_R   0.093094 0.686243 0.882393 0.012820
C80   C     C_R   0.161183 0.748222 0.757834 -0.103558
C81   C     C_R   0.165902 0.754500 0.716463 -0.113491
C82   C     C_R   0.107315 0.792723 0.697431 0.033571
C83   C     C_R   0.042180 0.822832 0.720032 -0.068309
C84   C     C_R   0.035232 0.813993 0.761330 -0.107936
C85   C     C_R   0.096027 0.778159 0.780783 0.029222
C86   C     C_R   0.164195 0.911253 0.645472 -0.117535
C87   C     C_R   0.649536 0.430921 0.128395 -0.119904
C88   C     C_R   0.210901 0.935157 0.608850 -0.121167
C89   C     C_R   0.166810 0.754259 0.589500 -0.119628
C90   C     C_R   0.120565 0.730623 0.626030 -0.109976
C91   C     C_R   0.124306 0.810127 0.655061 0.035700
C92   C     C_R   0.217781 0.857877 0.581708 0.025856
C93   C     C_R   0.710615 0.711885 0.900958 0.004939
C94   C     C_R   0.620769 0.625031 0.879219 -0.122126
C95   C     C_R   0.602901 0.618113 0.837052 -0.134668
C96   C     C_R   0.673946 0.698081 0.816075 0.030790
C97   C     C_R   0.763143 0.787371 0.838013 0.023991
C98   C     C_R   0.653378 0.419200 0.169150 -0.115672
C99   C     C_R   0.781667 0.791279 0.879729 -0.147121
C100  C     C_R   0.572712 0.707287 0.757273 -0.100749
C101  C     C_R   0.569522 0.726070 0.717356 -0.133751
C102  C     C_R   0.646833 0.727217 0.691291 0.019848
C103  C     C_R   0.722958 0.699802 0.704606 0.254743
C104  C     C_R   0.725334 0.681319 0.744890 -0.015762
C105  C     C_R   0.653375 0.689388 0.771738 0.017306
C106  C     C_R   0.565530 0.708111 0.622235 -0.124777
C107  C     C_R   0.557977 0.751758 0.588447 -0.108217
C108  C     C_R   0.722556 0.911155 0.613354 -0.129895
Cr1   Cr    Cr6+3 0.424820 0.846020 0.489780 1.016874
Cr2   Cr    Cr6+3 0.657880 0.078580 0.505700 1.024145
Cr3   Cr    Cr6+3 0.417280 0.075360 0.504550 1.112723
Cr4   Cr    Cr6+3 0.903360 0.812540 0.006510 1.010226
Cr5   Cr    Cr6+3 0.914630 0.587050 0.006280 1.054096
Cr6   Cr    Cr6+3 0.673560 0.582680 0.008540 1.045931
H1    H     H_    0.579401 0.429976 0.115333 0.148089
H2    H     H_    0.901888 0.442365 0.178461 0.114518
H3    H     H_    0.772907 0.241138 0.420092 0.136725
H4    H     H_    0.179092 0.725995 0.104049 0.142401
H5    H     H_    0.232894 0.770208 0.177166 0.114282
H6    H     H_    0.267949 0.774618 0.297806 0.112946
H7    H     H_    0.303560 0.771245 0.369049 0.128356
H8    H     H_    0.108786 0.984943 0.189118 0.107642
H9    H     H_    0.055622 0.942315 0.115745 0.124250
H10   H     H_    0.896950 0.465396 0.106908 0.133939
H11   H     H_    0.144870 0.984585 0.331624 0.095152
H12   H     H_    0.880653 0.939831 0.125220 0.130901
H13   H     H_    0.855116 0.956754 0.197785 0.118703
H14   H     H_    0.824564 0.973976 0.327056 0.107088
H15   H     H_    0.803504 0.002125 0.399946 0.132583
H16   H     H_    0.477026 0.747090 0.380332 0.123575
H17   H     H_    0.522121 0.725212 0.173227 0.135694
H18   H     H_    0.499386 0.720243 0.307462 0.110290
H19   H     H_    0.850717 0.609225 0.895331 0.095368
H20   H     H_    0.832650 0.317725 0.359064 0.111974
H21   H     H_    0.838200 0.578290 0.820969 0.121876
H22   H     H_    0.742952 0.246998 0.698175 0.123765
H23   H     H_    0.701245 0.171057 0.626370 0.130131
H24   H     H_    0.574515 0.268721 0.820431 0.162857
H25   H     H_    0.615601 0.449607 0.679339 0.111545
H26   H     H_    0.059933 0.899109 0.911642 0.133403
H27   H     H_    0.088881 0.651918 0.632934 0.119170
H28   H     H_    0.746062 0.250394 0.291039 0.117698
H29   H     H_    0.218972 0.733583 0.699610 0.106095
H30   H     H_    0.211117 0.722866 0.771968 0.109294
H31   H     H_    0.084648 0.916055 0.840618 0.112715
H32   H     H_    0.997552 0.853680 0.705796 0.155795
H33   H     H_    0.982876 0.835800 0.778039 0.121012
H34   H     H_    0.167818 0.973531 0.667723 0.111049
H35   H     H_    0.248670 0.015412 0.603309 0.134151
H36   H     H_    0.107772 0.634220 0.820585 0.091330
H37   H     H_    0.168904 0.692697 0.568632 0.135106
H38   H     H_    0.565930 0.561644 0.894567 0.143226
H39   H     H_    0.763070 0.279975 0.220407 0.122075
H40   H     H_    0.852286 0.858318 0.895896 0.120933
H41   H     H_    0.796119 0.912628 0.670444 0.140888
H42   H     H_    0.510292 0.745950 0.707473 0.117932
H43   H     H_    0.517005 0.714098 0.777711 0.124759
H44   H     H_    0.534042 0.549803 0.820625 0.119948
H45   H     H_    0.787164 0.666250 0.755962 0.124546
H46   H     H_    0.502931 0.630581 0.625801 0.108650
H47   H     H_    0.489354 0.705669 0.566446 0.136723
H48   H     H_    0.585931 0.407707 0.186686 0.134443
H49   H     H_    0.782413 0.990650 0.610998 0.127767
H50   H     H_    0.724009 0.530950 0.324005 0.140475
H51   H     H_    0.585960 0.404973 0.359610 0.092006
O1    O     O_R   0.318160 0.824460 0.443680 -0.529033
O2    O     O_R   0.645130 0.163230 0.552140 -0.509887
O3    O     O_R   0.498360 0.178430 0.555780 -0.468357
O4    O     O_R   0.328690 0.978040 0.538950 -0.492792
O5    O     O_3   0.499990 0.999990 0.500010 -0.261747
O6    O     O_R   0.828710 0.851830 0.052170 -0.512694
O7    O     O_R   0.005980 0.823990 0.047210 -0.498657
O8    O     O_R   0.031900 0.688850 0.050170 -0.504174
O9    O     O_R   0.830940 0.518420 0.048680 -0.497481
O10   O     O_R   0.668160 0.499860 0.053480 -0.499834
O11   O     O_R   0.689170 0.693840 0.050110 -0.471722
O12   O     O_R   0.525040 0.857250 0.449830 -0.504081
O13   O     O_R   0.803860 0.812940 0.962540 -0.504048
O14   O     O_R   0.982950 0.787950 0.964120 -0.535108
O15   O     O_R   0.007050 0.649970 0.960540 -0.460220
O16   O     O_R   0.807910 0.482370 0.965590 -0.487922
O17   O     O_R   0.643310 0.460980 0.963840 -0.526644
O18   O     O_R   0.666140 0.657800 0.967020 -0.499086
O19   O     O_3   0.830520 0.660760 0.007110 -0.289787
O20   O     O_R   0.684760 0.998800 0.456360 -0.516167
O21   O     O_R   0.647540 0.166310 0.470260 -0.517336
O22   O     O_R   0.500960 0.181750 0.467450 -0.452436
O23   O     O_R   0.331100 0.981120 0.457080 -0.457722
O24   O     O_R   0.315560 0.821140 0.532010 -0.520331
O25   O     O_R   0.522630 0.854180 0.531710 -0.501556
O26   O     O_R   0.682160 0.995480 0.544690 -0.512528
C109  C     C_2   0.511758 0.349326 0.430123 0.244900
H52   H     H_    0.453178 0.356410 0.411758 0.082022
O27   O     O_2   0.512328 0.363798 0.467208 -0.430365
C110  C     C_2   0.159171 0.991372 0.412212 0.235116
H53   H     H_    0.146167 0.053090 0.403736 0.090521
O28   O     O_2   0.137680 0.966483 0.446001 -0.486703
O29   O     O_3   0.522188 0.697081 0.094566 -0.690989
H54   H     H_    0.535053 0.717389 0.067007 0.336824
C111  C     C_2   0.569719 0.396058 0.598928 0.242949
H55   H     H_    0.535390 0.442959 0.612544 0.088354
O30   O     O_2   0.576962 0.388036 0.562159 -0.436966
C112  C     C_2   0.570182 0.271606 0.902143 0.246023
H56   H     H_    0.584796 0.276301 0.934640 0.148150
O31   O     O_2   0.494209 0.192496 0.883887 -0.505613
C113  C     C_2   0.110810 0.604658 0.896741 0.254834
H57   H     H_    0.086433 0.531450 0.876764 0.093766
O32   O     O_2   0.159261 0.620945 0.929670 -0.463597
O33   O     O_3   0.797231 0.692623 0.680020 -0.723676
H58   H     H_    0.781253 0.698632 0.651739 0.335435
C114  C     C_2   0.837858 0.880425 0.819614 0.203706
H59   H     H_    0.914276 0.937027 0.836026 0.091129
O34   O     O_2   0.814507 0.897747 0.787120 -0.505415
O35   O     O_3   0.742892 0.583057 0.252126 -0.706001
H60   H     H_    0.767650 0.595951 0.224634 0.335203

loop_
_geom_bond_atom_site_label_1
_geom_bond_atom_site_label_2
_ccdc_geom_bond_type
C65   C92   S    
C21   C26   S    
C99   H40   S    
Cr2   O20   S    
C101  C102  A    
C16   C25   S    
C32   O1    A    
C95   H44   S    
C88   H35   S    
C68   H24   S    
C95   C96   A    
C54   O2    A    
C55   C56   T    
C2    C12   A    
C103  O33   S    
C81   C82   A    
C47   H14   S    
Cr4   O19   S    
C6    O7    A    
C77   C78   A    
C75   H31   S    
C20   H51   S    
C112  O31   D    
C100  C105  A    
C37   C38   A    
C42   C44   A    
C83   C84   A    
C106  C107  A    
Cr5   O8    S    
C28   C29   A    
C51   O29   S    
C34   C35   A    
C29   H11   S    
C86   C91   A    
C54   C58   S    
C38   C39   S    
C86   C88   A    
Cr5   O19   S    
C20   C25   A    
C50   C57   A    
C44   H16   S    
C15   C16   A    
C66   H19   S    
C7    O9    A    
Cr2   O26   S    
C58   C63   A    
C28   C110  S    
C18   C19   A    
C73   C74   A    
C23   C26   A    
C62   H22   S    
C98   H48   S    
C15   H28   S    
C1    O12   A    
C100  H43   S    
Cr5   O16   S    
C88   C92   A    
C18   O35   S    
Cr1   O24   S    
C16   C17   A    
C80   H30   S    
C6    C41   S    
C4    C102  S    
C111  H55   S    
C23   C24   A    
C31   C33   A    
C70   C71   T    
C51   C57   A    
C29   C30   A    
C59   C111  S    
C87   H1    S    
C9    O14   A    
C8    O6    A    
C87   C98   A    
C11   C93   S    
Cr6   O11   S    
C5    C43   S    
C64   H21   S    
C77   C85   S    
C59   C60   A    
C33   H7    S    
C63   H23   S    
C36   C41   A    
C102  C103  A    
C9    C73   S    
Cr4   O7    S    
C104  C105  A    
C97   C99   A    
C21   O22   A    
C53   C55   S    
Cr1   O5    S    
C49   H13   S    
C108  H49   S    
C66   C72   A    
C37   H8    S    
C74   C75   A    
C32   O23   A    
C67   C68   A    
C107  H47   S    
C67   C72   A    
C36   H9    S    
C11   O18   A    
C84   C85   A    
C43   O25   A    
O33   H58   S    
C54   O3    A    
C39   C40   T    
C13   H10   S    
C113  H57   S    
C68   C69   A    
C101  H42   S    
C58   C59   A    
C45   C46   A    
C4    C106  A    
C27   C33   A    
C82   C91   S    
C51   C52   A    
C7    O10   A    
C60   C61   A    
Cr3   O4    S    
C109  O27   D    
C114  H59   S    
C80   C85   A    
C17   H50   S    
C8    C57   S    
C83   H32   S    
Cr2   O2    S    
C47   C48   A    
C13   C76   A    
C81   H29   S    
Cr1   O25   S    
C96   C97   A    
C62   C63   A    
C3    H41   S    
C17   C18   A    
C73   C79   A    
C30   C40   S    
C94   C95   A    
C11   O13   A    
C42   C48   A    
C64   C69   A    
C24   C25   A    
C89   C92   A    
C75   C77   A    
C76   C87   A    
Cr2   O21   S    
O29   H54   S    
C9    O15   A    
Cr4   O14   S    
Cr3   O23   S    
Cr2   O5    S    
C50   H12   S    
Cr6   O10   S    
C114  O34   D    
C65   O24   A    
C82   C83   A    
C14   H39   S    
C10   O17   A    
C48   H15   S    
C104  H45   S    
C22   C109  S    
C3    C4    A    
Cr6   O19   S    
C103  C104  A    
C52   C53   A    
C78   H36   S    
C96   C105  S    
Cr4   O13   S    
C5    C107  A    
C84   H33   S    
C24   H20   S    
C34   H5    S    
C93   C99   A    
C46   C47   A    
C36   C37   A    
C97   C114  S    
C2    C19   S    
C34   C38   A    
C52   H17   S    
C14   C19   A    
C44   C45   A    
C20   C22   A    
C80   C81   A    
C86   H34   S    
C23   H3    S    
C8    O11   A    
C7    C76   S    
C6    O8    A    
C1    O20   A    
C3    C108  A    
C79   C113  S    
C21   O21   A    
C93   C94   A    
C46   C56   S    
Cr3   O22   S    
Cr3   O5    S    
C109  H52   S    
C106  H46   S    
Cr6   O17   S    
C78   C79   A    
C61   C71   S    
C90   C91   A    
C30   C31   A    
C74   H26   S    
C49   C53   A    
O35   H60   S    
C100  C101  A    
C113  O32   D    
C61   C62   A    
C35   C41   A    
C69   C70   S    
C31   H6    S    
C90   H27   S    
C67   C112  S    
Cr1   O1    S    
C27   C32   S    
C60   H25   S    
C43   O26   A    
C110  H53   S    
Cr4   O6    S    
Cr1   O12   S    
C1    C42   S    
C89   H37   S    
Cr5   O15   S    
C12   C13   A    
C2    C98   A    
C45   H18   S    
C111  O30   D    
C49   C50   A    
C22   C26   A    
C65   O4    A    
C27   C28   A    
C10   O16   A    
C14   C15   A    
C35   H4    S    
Cr3   O3    S    
C112  H56   S    
C110  O28   D    
C89   C90   A    
C94   H38   S    
Cr6   O18   S    
C64   C66   A    
Cr5   O9    S    
C12   H2    S    
C5    C108  A    
C10   C72   S    
