data_mof_unit_304.cif
_audit_creation_date              2012-12-10T21:00:37-0500
_audit_creation_method            fapswitch 2.2
_symmetry_space_group_name_H-M    P1
_symmetry_Int_Tables_number       1
_space_group_crystal_system       triclinic
_cell_length_a                    18.117845
_cell_length_b                    18.212021
_cell_length_c                    18.342847
_cell_angle_alpha                 120.065943
_cell_angle_beta                  89.827013
_cell_angle_gamma                 119.684104
_cell_volume                      4302.14516046

loop_
_atom_site_label
_atom_site_type_symbol
_atom_type_description
_atom_site_fract_x
_atom_site_fract_y
_atom_site_fract_z
_atom_type_partial_charge
C1    C     C_R   0.108508 0.220173 0.609699 0.827926
C2    C     C_3   0.449829 0.896979 0.946360 -0.220615
C3    C     C_1   0.090094 0.691816 0.665008 0.230319
C4    C     C_1   0.465056 0.303596 0.391493 0.213620
C5    C     C_1   0.534944 0.696404 0.608507 0.213620
C6    C     C_3   0.451911 0.031777 0.044156 0.391011
C7    C     C_3   0.548089 0.968223 0.955844 0.391011
C8    C     C_3   0.412901 0.430764 0.448051 -0.120554
C9    C     C_3   0.587099 0.569236 0.551949 -0.120554
C10   C     C_3   0.483112 0.406654 0.448857 -0.013963
C11   C     C_3   0.516888 0.593346 0.551143 -0.013963
C12   C     C_3   0.551157 0.500346 0.449265 -0.039367
C13   C     C_3   0.448843 0.499654 0.550735 -0.039367
C14   C     C_3   0.482127 0.526044 0.448491 -0.184753
C15   C     C_R   0.891492 0.779827 0.390301 0.827927
C16   C     C_3   0.517873 0.473956 0.551509 -0.184753
C17   C     C_R   0.171586 0.177371 0.828324 -0.233202
C18   C     C_R   0.828414 0.822629 0.171676 -0.233202
C19   C     C_R   0.392664 0.781039 0.887594 0.901759
C20   C     C_R   0.607336 0.218961 0.112406 0.901759
C21   C     C_R   0.147296 0.132207 0.736650 0.375075
C22   C     C_R   0.852704 0.867793 0.263350 0.375075
C23   C     C_R   0.065116 0.104076 0.691468 0.009093
C24   C     C_R   0.934884 0.895924 0.308532 0.009093
C25   C     C_R   0.008366 0.122614 0.740004 -0.061375
C26   C     C_3   0.957004 0.409208 0.420988 -0.010610
C27   C     C_R   0.991634 0.877386 0.259996 -0.061375
C28   C     C_R   0.034135 0.168813 0.831859 -0.225453
C29   C     C_R   0.965865 0.831186 0.168141 -0.225452
C30   C     C_R   0.115408 0.196045 0.875871 0.405720
C31   C     C_R   0.884592 0.803955 0.124129 0.405720
C32   C     C_R   0.991490 0.946068 0.537674 -0.069383
C33   C     C_R   0.008510 0.053932 0.462326 -0.069383
C34   C     C_R   0.950766 0.892357 0.445378 -0.111074
C35   C     C_R   0.049233 0.107643 0.554622 -0.111074
C36   C     C_R   0.963063 0.947130 0.407123 0.034248
C37   C     C_3   0.042996 0.590792 0.579012 -0.010610
C38   C     C_R   0.036937 0.052870 0.592877 0.034248
C39   C     C_R   0.674876 0.683441 0.856117 0.464425
C40   C     C_R   0.325124 0.316559 0.143883 0.464425
C41   C     C_R   0.626011 0.612803 0.877260 -0.135028
C42   C     C_R   0.373989 0.387197 0.122740 -0.135028
C43   C     C_R   0.110578 0.500680 0.889346 0.794085
C44   C     C_R   0.889422 0.499320 0.110654 0.794085
C45   C     C_R   0.595825 0.641396 0.950923 0.072085
C46   C     C_R   0.404175 0.358604 0.049077 0.072085
C47   C     C_R   0.615352 0.741220 0.003545 -0.144010
C48   C     C_3   0.428169 0.966849 0.942139 0.379789
C49   C     C_R   0.384648 0.258781 0.996455 -0.144010
C50   C     C_R   0.664048 0.811494 0.982183 -0.112128
C51   C     C_R   0.335952 0.188506 0.017817 -0.112128
C52   C     C_R   0.693789 0.782730 0.908570 -0.076728
C53   C     C_R   0.306211 0.217270 0.091431 -0.076727
C54   C     C_R   0.593445 0.562917 0.026780 -0.213854
C55   C     C_R   0.406555 0.437083 0.973220 -0.213854
C56   C     C_R   0.550083 0.497293 0.053783 -0.054816
C57   C     C_R   0.449917 0.502707 0.946217 -0.054816
C58   C     C_R   0.455364 0.432755 0.026186 0.005900
C59   C     C_3   0.571831 0.033151 0.057861 0.379789
C60   C     C_R   0.544636 0.567245 0.973813 0.005900
C61   C     C_R   0.145798 0.833895 0.017677 -0.132628
C62   C     C_R   0.854202 0.166106 0.982324 -0.132628
C63   C     C_R   0.126052 0.756709 0.029360 -0.189867
C64   C     C_R   0.873948 0.243292 0.970641 -0.189866
C65   C     C_R   0.058262 0.652962 0.962769 0.139775
C66   C     C_R   0.941739 0.347038 0.037231 0.139774
C67   C     C_R   0.392147 0.499893 0.607816 0.807374
C68   C     C_R   0.607853 0.500107 0.392184 0.807373
C69   C     C_R   0.010638 0.627140 0.884177 -0.084145
C70   C     C_3   0.526772 0.038562 0.951059 -0.373103
C71   C     C_R   0.989362 0.372860 0.115823 -0.084146
C72   C     C_R   0.030660 0.704404 0.872421 -0.106628
C73   C     C_R   0.969340 0.295596 0.127579 -0.106628
C74   C     C_R   0.097814 0.808041 0.939476 0.081926
C75   C     C_R   0.902186 0.191959 0.060524 0.081926
C76   C     C_R   0.977003 0.570591 0.034333 -0.229707
C77   C     C_R   0.022997 0.429409 0.965668 -0.229706
C78   C     C_R   0.946297 0.498130 0.054588 -0.058675
C79   C     C_R   0.053703 0.501870 0.945412 -0.058675
C80   C     C_R   0.969894 0.426537 0.019912 -0.005347
C81   C     C_3   0.473228 0.961438 0.048941 -0.373103
C82   C     C_R   0.030106 0.573463 0.980088 -0.005346
C83   C     C_R   0.393954 0.500768 0.889272 0.819388
C84   C     C_R   0.606046 0.499232 0.110728 0.819389
C85   C     C_R   0.110034 0.501307 0.608066 0.806127
C86   C     C_R   0.889966 0.498693 0.391934 0.806126
C87   C     C_3   0.059450 0.487282 0.462433 -0.014055
C88   C     C_3   0.940549 0.512718 0.537567 -0.014055
C89   C     C_3   0.050223 0.576919 0.489447 -0.266152
C90   C     C_3   0.949777 0.423081 0.510553 -0.266152
C91   C     C_3   0.947022 0.497728 0.448103 -0.053033
C92   C     C_3   0.550171 0.103021 0.053640 -0.220615
C93   C     C_3   0.052978 0.502272 0.551897 -0.053033
C94   C     C_1   0.923657 0.095096 0.696704 0.185085
C95   C     C_1   0.076343 0.904904 0.303296 0.185085
C96   C     C_1   0.990794 0.893826 0.577540 0.275990
C97   C     C_1   0.009206 0.106174 0.422460 0.275991
C98   C     C_1   0.124940 0.473334 0.420714 0.185871
C99   C     C_1   0.875060 0.526666 0.579286 0.185872
C100  C     C_1   0.115768 0.888082 0.929191 0.261499
C101  C     C_1   0.884232 0.111918 0.070809 0.261498
C102  C     C_1   0.909906 0.308184 0.334992 0.230319
Cl1   Cl    Cl    0.146587 0.253628 0.990917 -0.621124
Cl2   Cl    Cl    0.613279 0.927737 0.896666 -0.620425
Cl3   Cl    Cl    0.853413 0.746372 0.009083 -0.621124
Cl4   Cl    Cl    0.221410 0.112669 0.680195 -0.608473
Cl5   Cl    Cl    0.778590 0.887331 0.319805 -0.608473
Cl6   Cl    Cl    0.713627 0.648062 0.764788 -0.619946
Cl7   Cl    Cl    0.286373 0.351938 0.235212 -0.619946
Cl8   Cl    Cl    0.333043 0.924661 0.865349 -0.579778
Cl9   Cl    Cl    0.666957 0.075339 0.134651 -0.579778
Cl10  Cl    Cl    0.386721 0.072263 0.103334 -0.620426
H1    H     H_    0.091013 0.639745 0.480464 0.162399
H2    H     H_    0.388359 0.463934 0.163334 0.162624
H3    H     H_    0.592734 0.764298 0.060795 0.163277
H4    H     H_    0.407266 0.235702 0.939205 0.163277
H5    H     H_    0.678821 0.888311 0.022796 0.223024
H6    H     H_    0.321179 0.111689 0.977204 0.223024
H7    H     H_    0.666105 0.611768 0.046981 0.196693
H8    H     H_    0.333895 0.388232 0.953019 0.196693
H9    H     H_    0.197099 0.913802 0.070349 0.192301
H10   H     H_    0.802901 0.086198 0.929651 0.192301
H11   H     H_    0.161994 0.777914 0.091113 0.153378
H12   H     H_    0.908987 0.360255 0.519536 0.162399
H13   H     H_    0.838006 0.222086 0.908888 0.153378
H14   H     H_    0.957004 0.547581 0.832980 0.132059
H15   H     H_    0.042997 0.452419 0.167019 0.132059
H16   H     H_    0.992689 0.683542 0.811875 0.150007
H17   H     H_    0.007311 0.316458 0.188125 0.150007
H18   H     H_    0.959348 0.625779 0.060572 0.185234
H19   H     H_    0.040652 0.374221 0.939428 0.185234
H20   H     H_    0.548558 0.069890 0.910580 0.205857
H21   H     H_    0.451442 0.930110 0.089420 0.205857
H22   H     H_    0.340921 0.373309 0.406462 0.207540
H23   H     H_    0.234251 0.197985 0.862610 0.185834
H24   H     H_    0.659079 0.626691 0.593538 0.207540
H25   H     H_    0.468942 0.548132 0.406112 0.183313
H26   H     H_    0.531058 0.451868 0.593888 0.183313
H27   H     H_    0.765749 0.802015 0.137390 0.185834
H28   H     H_    0.990924 0.183359 0.869286 0.170631
H29   H     H_    0.009075 0.816641 0.130714 0.170631
H30   H     H_    0.731737 0.837682 0.892570 0.187524
H31   H     H_    0.268264 0.162318 0.107430 0.187524
H32   H     H_    0.611641 0.536066 0.836665 0.162624
N1    N     N_1   0.855785 0.073049 0.661948 -0.170487
N2    N     N_1   0.127154 0.771776 0.732590 -0.115706
N3    N     N_1   0.450844 0.222333 0.346194 -0.124959
N4    N     N_1   0.549156 0.777667 0.653806 -0.124959
N5    N     N_1   0.144215 0.926951 0.338052 -0.170487
N6    N     N_1   0.990656 0.852864 0.609616 -0.148556
N7    N     N_1   0.009344 0.147136 0.390384 -0.148556
N8    N     N_1   0.176511 0.462266 0.387831 -0.124946
N9    N     N_1   0.823489 0.537734 0.612169 -0.124946
N10   N     N_1   0.129964 0.952334 0.920880 -0.149347
N11   N     N_1   0.870036 0.047666 0.079121 -0.149347
N12   N     N_1   0.872846 0.228223 0.267410 -0.115706
O1    O     O_3   0.251620 0.500000 0.748430 -0.506534
O2    O     O_R   0.570330 0.268390 0.136490 -0.607067
O3    O     O_R   0.134680 0.268390 0.572240 -0.641901
O4    O     O_R   0.865320 0.731610 0.427760 -0.641901
O5    O     O_R   0.306670 0.731630 0.863510 -0.608260
O6    O     O_R   0.693330 0.268370 0.136490 -0.608260
O7    O     O_R   0.135450 0.439270 0.865360 -0.645150
O8    O     O_R   0.864550 0.560730 0.134640 -0.645149
O9    O     O_R   0.429670 0.560710 0.692610 -0.623693
O10   O     O_R   0.570330 0.439290 0.307390 -0.623692
O11   O     O_R   0.308540 0.439240 0.865360 -0.641668
O12   O     O_3   0.748380 0.500000 0.251570 -0.506534
O13   O     O_R   0.691460 0.560760 0.134640 -0.641668
O14   O     O_R   0.133580 0.439310 0.571150 -0.631203
O15   O     O_R   0.866420 0.560690 0.428850 -0.631202
O16   O     O_R   0.430770 0.560690 0.864590 -0.645789
O17   O     O_R   0.569230 0.439310 0.135410 -0.645789
O18   O     O_R   0.133580 0.560760 0.692610 -0.638738
O19   O     O_R   0.866420 0.439240 0.307390 -0.638738
O20   O     O_R   0.134680 0.560740 0.864590 -0.644359
O21   O     O_R   0.865320 0.439260 0.135410 -0.644359
O22   O     O_R   0.306670 0.439270 0.571150 -0.638105
O23   O     O_R   0.693330 0.560730 0.428850 -0.638105
O24   O     O_R   0.135450 0.268370 0.694460 -0.638244
O25   O     O_R   0.864550 0.731630 0.305540 -0.638244
O26   O     O_R   0.429670 0.731610 0.863510 -0.607068
Zn1   Zn    Zn3+2 0.207400 0.586780 0.791530 1.004253
Zn2   Zn    Zn3+2 0.792600 0.413220 0.208470 1.004253
Zn3   Zn    Zn3+2 0.208510 0.413230 0.792630 0.984201
Zn4   Zn    Zn3+2 0.791490 0.586770 0.207370 0.984201
Zn5   Zn    Zn3+2 0.383150 0.586740 0.791530 1.012933
Zn6   Zn    Zn3+2 0.616850 0.413260 0.208470 1.012933
Zn7   Zn    Zn3+2 0.207400 0.413250 0.618010 1.003535
Zn8   Zn    Zn3+2 0.792600 0.586750 0.381990 1.003535

loop_
_geom_bond_atom_site_label_1
_geom_bond_atom_site_label_2
_ccdc_geom_bond_type
O20   Zn1   S    
C48   Cl8   S    
C63   C65   A    
C45   C60   S    
C19   O5    A    
C8    C13   S    
O12   Zn6   S    
C27   C29   A    
C50   H5    S    
C31   Cl3   S    
O3    Zn7   S    
C37   C88   S    
C27   C95   S    
C2    C7    S    
C28   H28   S    
C24   C27   A    
C1    O24   A    
C33   C36   A    
C7    C70   S    
O17   Zn6   S    
C98   N8    T    
C25   C28   A    
C47   H3    S    
C20   C92   S    
O14   Zn7   S    
O9    Zn5   S    
C6    C48   S    
C72   H16   S    
O10   Zn6   S    
C48   C70   S    
C9    C16   S    
C76   C78   A    
O13   Zn4   S    
C5    C11   S    
O8    Zn4   S    
C86   C91   S    
C42   C46   A    
C11   C14   S    
C78   C80   A    
C99   N9    T    
C101  N11   T    
O16   Zn5   S    
C43   C79   S    
C22   Cl5   S    
O11   Zn3   S    
C15   O25   A    
C51   H6    S    
O12   Zn8   S    
C61   H9    S    
C86   O19   A    
C77   H19   S    
C61   C63   A    
C62   C64   A    
C76   H18   S    
C42   H2    S    
C56   C58   A    
C26   C87   S    
O12   Zn2   S    
C30   Cl1   S    
C17   H23   S    
C50   C52   A    
C88   C91   S    
C95   N5    T    
C32   C38   A    
C89   C91   S    
O1    Zn7   S    
C15   C34   S    
C33   C97   S    
C21   Cl4   S    
C59   C92   S    
C87   C98   S    
C67   O9    A    
C94   N1    T    
C40   C42   A    
C39   C52   A    
C29   H29   S    
C25   C94   S    
C5    N4    T    
C20   O2    A    
C54   H7    S    
C46   C58   S    
C17   C30   A    
C73   C75   A    
C71   H15   S    
C6    Cl10  S    
C68   O10   A    
C19   O26   A    
C7    C59   S    
C56   C84   S    
C47   C50   A    
C73   H17   S    
C55   H8    S    
C45   C47   A    
C39   Cl6   S    
C89   H1    S    
O12   Zn4   S    
C8    H22   S    
C86   O15   A    
C59   C81   S    
C1    O3    A    
C35   C38   A    
C41   H32   S    
C72   C74   A    
C84   O13   A    
C6    C92   S    
C76   C82   A    
C71   C73   A    
O22   Zn7   S    
C57   C60   A    
C54   C60   A    
C49   C51   A    
C26   C91   S    
C4    N3    T    
C83   O11   A    
C52   H30   S    
O15   Zn8   S    
C53   H31   S    
C32   C34   A    
O5    Zn1   S    
C69   C72   A    
O6    Zn2   S    
C12   C68   S    
C43   O20   A    
C59   Cl9   S    
C66   C71   A    
C46   C49   A    
C14   H25   S    
C96   N6    T    
C83   O16   A    
C70   H20   S    
C85   O18   A    
C97   N7    T    
C77   C79   A    
C37   C93   S    
C24   C36   S    
C57   C83   S    
C9    C11   S    
C3    C37   S    
C10   C12   S    
C32   C96   S    
C12   C14   S    
C69   H14   S    
C64   H13   S    
C7    Cl2   S    
C21   C23   A    
C20   O6    A    
O1    Zn1   S    
C22   C24   A    
C62   C75   A    
C55   C58   A    
C4    C10   S    
C84   O17   A    
C23   C38   S    
C102  N12   T    
C62   H10   S    
C1    C35   S    
C90   C93   S    
C13   C67   S    
C77   C80   A    
C100  N10   T    
C8    C14   S    
C2    C19   S    
C18   C22   A    
C90   H12   S    
C16   H26   S    
O1    Zn5   S    
O1    Zn3   S    
C67   O22   A    
O2    Zn6   S    
C44   O21   A    
C79   C82   A    
C63   H11   S    
O25   Zn4   S    
C54   C56   A    
C81   H21   S    
C40   Cl7   S    
C61   C74   A    
C26   C90   S    
O21   Zn2   S    
C66   C80   S    
C6    C81   S    
C68   O23   A    
C85   O14   A    
C70   C92   S    
C37   C89   S    
O7    Zn3   S    
C2    C48   S    
C55   C57   A    
C88   C90   S    
O4    Zn8   S    
C15   O4    A    
C29   C31   A    
C10   C16   S    
C26   C102  S    
C11   C13   S    
C65   C82   S    
O23   Zn8   S    
C65   C69   A    
C87   C93   S    
C44   C78   S    
C33   C35   A    
C28   C30   A    
C34   C36   A    
O26   Zn5   S    
C23   C25   A    
C18   H27   S    
C9    C12   S    
C17   C21   A    
C88   C99   S    
O24   Zn3   S    
C85   C93   S    
C9    H24   S    
C49   H4    S    
C74   C100  S    
C39   C41   A    
C3    N2    T    
C8    C10   S    
C40   C53   A    
C13   C16   S    
C75   C101  S    
C87   C89   S    
C41   C45   A    
C2    C81   S    
C18   C31   A    
C44   O8    A    
C51   C53   A    
O18   Zn1   S    
C64   C66   A    
O19   Zn2   S    
C43   O7    A    
