data_mof_unit_3060.cif
_audit_creation_date              2012-12-11T15:44:53-0500
_audit_creation_method            fapswitch 2.2
_symmetry_space_group_name_H-M    P1
_symmetry_Int_Tables_number       1
_space_group_crystal_system       triclinic
_cell_length_a                    6.931694
_cell_length_b                    16.792308
_cell_length_c                    17.080667
_cell_angle_alpha                 100.311857
_cell_angle_beta                  88.21042
_cell_angle_gamma                 91.645238
_cell_volume                      1954.56746178

loop_
_atom_site_label
_atom_site_type_symbol
_atom_type_description
_atom_site_fract_x
_atom_site_fract_y
_atom_site_fract_z
_atom_type_partial_charge
O1    O     O_R   0.494370 0.415690 0.413450 -0.538227
O2    O     O_R   0.819420 0.429360 0.578420 -0.532576
O3    O     O_R   0.994280 0.584310 0.586550 -0.547736
C1    C     C_R   0.646663 0.413607 0.604966 0.738503
O4    O     O_R   0.823790 0.406230 0.413570 -0.507532
O5    O     O_R   0.998670 0.561000 0.420530 -0.538518
C2    C     C_R   0.655386 0.381991 0.385816 0.749530
O6    O     O_R   0.489970 0.439000 0.579470 -0.541570
O7    O     O_3   0.662300 0.550810 0.502470 -0.385005
V1    V     V_3+5 0.935380 0.490570 0.499540 1.515283
O8    O     O_R   0.328650 0.570640 0.421580 -0.549605
C3    C     C_R   0.164209 0.586645 0.394867 0.713606
O9    O     O_R   0.324290 0.593770 0.586430 -0.546769
C4    C     C_R   0.155075 0.616653 0.615182 0.700185
V2    V     V_3+5 0.435930 0.509430 0.500460 1.456206
O10   O     O_3   0.159140 0.449190 0.497530 -0.344280
C5    C     C_R   0.301975 0.736956 0.705114 -0.126715
H1    H     H_    0.435313 0.730049 0.670050 0.135537
C6    C     C_R   0.288932 0.800471 0.770378 -0.147609
H2    H     H_    0.412604 0.841091 0.783196 0.162549
C7    C     C_R   0.118609 0.812249 0.817824 -0.130038
C8    C     C_R   0.960685 0.757258 0.798230 0.385076
C9    C     C_R   0.974067 0.694945 0.731867 -0.174792
H3    H     H_    0.851595 0.653753 0.718234 0.158194
C10   C     C_R   0.143833 0.684013 0.684581 -0.116936
C11   C     C_R   0.172495 0.639618 0.333391 -0.126993
C12   C     C_R   0.091568 0.862793 0.169137 -0.162470
C13   C     C_R   0.913621 0.810709 0.276111 -0.115820
C14   C     C_R   0.932113 0.865871 0.223715 0.406777
C15   C     C_R   0.234437 0.805365 0.171512 -0.167194
C16   C     C_R   0.216470 0.749624 0.224797 0.063796
C17   C     C_R   0.052247 0.751912 0.276697 0.049220
C18   C     C_R   0.029885 0.696391 0.329639 -0.178106
C19   C     C_R   0.335308 0.637790 0.281779 -0.194988
C20   C     C_R   0.357423 0.691216 0.227586 0.403853
H4    H     H_    0.905056 0.699281 0.369827 0.126436
H5    H     H_    0.447219 0.594476 0.283705 0.160256
H6    H     H_    0.789532 0.813910 0.316708 0.152092
H7    H     H_    0.356306 0.803111 0.130058 0.208787
C21   C     C_R   0.621813 0.362079 0.666969 -0.115557
C22   C     C_R   0.641786 0.139672 0.834508 -0.095357
C23   C     C_R   0.828478 0.179590 0.724146 -0.061683
C24   C     C_R   0.796765 0.127937 0.779081 -0.113222
C25   C     C_R   0.518168 0.204466 0.834051 -0.133768
C26   C     C_R   0.549628 0.258312 0.779495 0.030132
C27   C     C_R   0.707971 0.245237 0.724160 0.118734
C28   C     C_R   0.744330 0.297687 0.669355 -0.166186
C29   C     C_R   0.465564 0.375033 0.721738 -0.241024
C30   C     C_R   0.429249 0.325084 0.778534 0.414196
H8    H     H_    0.864533 0.286920 0.626939 0.140984
H9    H     H_    0.371926 0.425211 0.720325 0.160410
H10   H     H_    0.949668 0.168852 0.682281 0.115203
H11   H     H_    0.894358 0.078544 0.778337 0.110072
H12   H     H_    0.401706 0.213243 0.877988 0.195557
C31   C     C_R   0.798325 0.256945 0.297962 0.380733
C32   C     C_R   0.784843 0.194448 0.231796 -0.134082
H13   H     H_    0.902942 0.152886 0.218093 0.167547
C33   C     C_R   0.620299 0.183852 0.184744 -0.117149
C34   C     C_R   0.467481 0.237313 0.205372 -0.104733
H14   H     H_    0.338317 0.230736 0.170479 0.146911
C35   C     C_R   0.480891 0.300944 0.270499 -0.126232
H15   H     H_    0.361600 0.341919 0.283407 0.171675
C36   C     C_R   0.646084 0.312375 0.317720 -0.138562
O11   O     O_R   0.774880 0.061150 0.920630 -0.541937
O12   O     O_R   0.440980 0.093710 0.086500 -0.547468
O13   O     O_R   0.266190 0.938890 0.079390 -0.534971
C37   C     C_R   0.609430 0.116519 0.115289 0.754402
O14   O     O_R   0.445420 0.070740 0.921670 -0.550280
O15   O     O_R   0.270660 0.915760 0.913380 -0.543057
C38   C     C_R   0.618118 0.086829 0.895396 0.681026
O16   O     O_R   0.770400 0.084270 0.086640 -0.538910
O17   O     O_3   0.602590 0.949210 0.997500 -0.337837
V3    V     V_3+5 0.329470 0.009420 0.000470 1.514950
O18   O     O_R   0.940650 0.906250 0.913470 -0.515274
C39   C     C_R   0.109467 0.881913 0.885816 0.725175
O19   O     O_R   0.936210 0.929220 0.078300 -0.504611
C40   C     C_R   0.100207 0.914583 0.106275 0.776938
V4    V     V_3+5 0.828930 0.990510 0.999490 1.598492
O20   O     O_3   0.105680 0.050790 0.002500 -0.384365
S1    S     S_3+6 0.234811 0.349617 0.847923 0.021659
O21   O     O_2   0.097428 0.278317 0.843851 -0.329225
O22   O     O_2   0.312225 0.369719 0.930556 -0.307616
O23   O     O_3   0.113273 0.429035 0.828798 -0.478505
H16   H     H_    0.192083 0.477408 0.851260 0.358538
Cl1   Cl    Cl    0.005945 0.259375 0.355526 -0.655463
Cl2   Cl    Cl    0.745161 0.759935 0.856242 -0.627012
Cl3   Cl    Cl    0.566180 0.683105 0.165273 -0.604918
Cl4   Cl    Cl    0.752837 0.939598 0.231199 -0.646736

loop_
_geom_bond_atom_site_label_1
_geom_bond_atom_site_label_2
_ccdc_geom_bond_type
C21   C28   A    
C31   C32   A    
C12   C14   A    
C19   H5    S    
C6    H2    S    
C1    O6    A    
C26   C27   A    
O23   H16   S    
C13   C14   A    
C6    C7    A    
O19   V4    S    
O5    C3    A    
C15   C16   A    
V2    O10   S    
C18   H4    S    
O12   V3    S    
C32   H13   S    
C19   C20   A    
C23   C27   A    
C35   C36   A    
C14   Cl4   S    
O17   V4    S    
C20   Cl3   S    
C11   C19   A    
C29   H9    S    
C1    C21   S    
O12   C37   A    
C31   C36   A    
C9    H3    S    
O15   V3    S    
O1    V2    S    
C13   H6    S    
O7    V1    S    
O14   V3    S    
C8    Cl2   S    
C34   H14   S    
O9    C4    A    
C12   C15   A    
C22   C24   A    
O8    V2    S    
S1    O23   S    
C24   H11   S    
C28   H8    S    
C34   C35   A    
O18   C39   A    
C13   C17   A    
O19   C40   A    
S1    O22   D    
O4    C2    A    
V4    O20   S    
O17   V3    S    
C33   C34   A    
O13   V3    S    
C3    C11   S    
C31   Cl1   S    
O2    C1    A    
C11   C18   A    
C16   C17   A    
C26   C30   A    
C5    H1    S    
V3    O20   S    
C2    C36   S    
O3    C4    A    
C29   C30   A    
O6    V2    S    
O11   C38   A    
O9    V2    S    
C22   C25   A    
C16   C20   A    
C23   C24   A    
O2    V1    S    
C25   C26   A    
C21   C29   A    
O13   C40   A    
C27   C28   A    
O1    C2    A    
O11   V4    S    
S1    O21   D    
C12   C40   S    
O5    V1    S    
O8    C3    A    
C7    C39   S    
C30   S1    S    
C5    C10   A    
C17   C18   A    
O7    V2    S    
O4    V1    S    
O3    V1    S    
V1    O10   S    
C5    C6    A    
C32   C33   A    
C15   H7    S    
O15   C39   A    
C37   O16   A    
C9    C10   A    
C4    C10   S    
C35   H15   S    
C25   H12   S    
C33   C37   S    
O14   C38   A    
O18   V4    S    
C8    C9    A    
C7    C8    A    
O16   V4    S    
C23   H10   S    
C22   C38   S    
