data_mof_unit_4103.cif
_audit_creation_date              2013-03-05T15:40:46-0500
_audit_creation_method            fapswitch 2.2
_symmetry_space_group_name_H-M    P1
_symmetry_Int_Tables_number       1
_space_group_crystal_system       triclinic
_cell_length_a                    6.923354
_cell_length_b                    17.29205
_cell_length_c                    24.115187
_cell_angle_alpha                 104.506305
_cell_angle_beta                  90.464731
_cell_angle_gamma                 89.979435
_cell_volume                      2794.91078266

loop_
_atom_site_label
_atom_site_type_symbol
_atom_site_description
_atom_site_fract_x
_atom_site_fract_y
_atom_site_fract_z
_atom_type_partial_charge
O1    O     O_R   0.494290 0.391990 0.999150 -0.555539
O2    O     O_R   0.827170 0.534410 0.082350 -0.562495
O3    O     O_R   0.994360 0.608010 0.000850 -0.556489
C1    C     C_R   0.658681 0.549966 0.106135 0.830922
O4    O     O_R   0.824210 0.388010 0.004470 -0.563087
O5    O     O_R   0.991370 0.460560 0.922410 -0.561310
C2    C     C_R   0.654539 0.354867 0.001466 0.863733
O6    O     O_R   0.497270 0.539440 0.077590 -0.560399
O7    O     O_3   0.659770 0.523970 0.973170 -0.274585
V1    V     V_3+5 0.935840 0.495550 0.004980 1.133219
O8    O     O_R   0.320910 0.465590 0.917650 -0.560230
C3    C     C_R   0.151260 0.449914 0.893911 0.846621
O9    O     O_R   0.323870 0.611990 0.995530 -0.564165
C4    C     C_R   0.154396 0.645127 0.998526 0.860082
V2    V     V_3+5 0.435470 0.504450 0.995020 1.134392
O10   O     O_3   0.161670 0.476030 0.026830 -0.274399
C5    C     C_2   0.142779 0.730270 0.998105 -0.254209
H1    H     H_    0.277220 0.761111 0.994736 0.103019
C6    C     C_2   0.972773 0.769772 0.002027 -0.254287
H2    H     H_    0.838333 0.738932 0.005397 0.103012
C7    C     C_R   0.181889 0.254572 0.623381 0.562711
N1    N     N_R   0.100477 0.327107 0.648519 -0.457623
C8    C     C_R   0.007028 0.370758 0.616154 0.556806
C9    C     C_R   0.989260 0.341073 0.556314 -0.044836
C10   C     C_R   0.070348 0.266277 0.530008 -0.041658
C11   C     C_R   0.168456 0.222688 0.563655 -0.029980
C12   C     C_R   0.891605 0.384015 0.522283 -0.021141
C13   C     C_R   0.874272 0.353025 0.463042 0.011114
C14   C     C_R   0.954342 0.278355 0.436307 -0.041721
C15   C     C_R   0.052931 0.234913 0.469935 -0.044226
C16   C     C_R   0.133900 0.160121 0.443639 -0.023647
C17   C     C_R   0.231958 0.117246 0.477652 -0.053603
C18   C     C_R   0.249083 0.148151 0.536901 -0.068147
C19   C     C_R   0.939176 0.246089 0.376640 0.573125
N2    N     N_R   0.018700 0.173076 0.351486 -0.451035
C20   C     C_R   0.114431 0.130013 0.383879 0.562315
O11   O     O_2   0.273902 0.213029 0.656103 -0.527468
O12   O     O_2   0.930799 0.442478 0.641817 -0.533210
H3    H     H_    0.827871 0.441680 0.541300 0.144976
H4    H     H_    0.798012 0.387857 0.438282 0.175380
O13   O     O_2   0.847557 0.287880 0.344010 -0.524974
O14   O     O_2   0.189390 0.057937 0.358466 -0.541331
H5    H     H_    0.295729 0.059589 0.458630 0.136253
H6    H     H_    0.325301 0.113298 0.561662 0.136784
C21   C     C_R   0.171232 0.129671 0.256385 -0.001846
H7    H     H_    0.311747 0.144080 0.276339 0.083446
C22   C     C_R   0.158107 0.099693 0.196913 -0.124795
H8    H     H_    0.290068 0.091516 0.172350 0.095104
C23   C     C_R   0.977267 0.081023 0.169581 -0.104766
C24   C     C_R   0.809978 0.093065 0.203544 -0.122340
H9    H     H_    0.668445 0.079431 0.184141 0.091770
C25   C     C_R   0.823486 0.123054 0.263126 -0.003600
H10   H     H_    0.693147 0.131638 0.288441 0.085537
C26   C     C_R   0.004238 0.141685 0.290040 0.275390
C27   C     C_R   0.285689 0.388305 0.736097 -0.016898
H11   H     H_    0.411468 0.389431 0.709932 0.141783
C28   C     C_R   0.299920 0.418119 0.795598 -0.112505
H12   H     H_    0.437536 0.441336 0.814173 0.121180
C29   C     C_R   0.138010 0.418593 0.830511 -0.183681
C30   C     C_R   0.962140 0.387789 0.804374 -0.094283
H13   H     H_    0.835480 0.386622 0.830251 0.116067
C31   C     C_R   0.946827 0.356359 0.744960 0.442013
C32   C     C_R   0.110529 0.357308 0.710094 0.197647
C33   C     C_R   0.607702 0.869934 0.616720 0.570898
N3    N     N_R   0.506573 0.827975 0.648320 -0.444476
C34   C     C_R   0.423403 0.755848 0.622363 0.576955
C35   C     C_R   0.441371 0.723292 0.562792 -0.065818
C36   C     C_R   0.545667 0.765349 0.529867 -0.044526
C37   C     C_R   0.629302 0.839430 0.557094 -0.086442
C38   C     C_R   0.360630 0.648962 0.535933 -0.101754
C39   C     C_R   0.383548 0.615315 0.477169 0.352803
C40   C     C_R   0.484476 0.658045 0.442988 -0.093594
C41   C     C_R   0.566844 0.733300 0.469874 -0.113382
C42   C     C_R   0.670369 0.776701 0.437052 -0.071175
C43   C     C_R   0.746834 0.853153 0.464978 0.392719
C44   C     C_R   0.730508 0.882063 0.524272 -0.057573
C45   C     C_R   0.502158 0.629415 0.382758 0.600096
N4    N     N_R   0.608461 0.670557 0.351813 -0.452576
C46   C     C_R   0.696213 0.741533 0.377832 0.566669
O15   O     O_2   0.686032 0.941372 0.642765 -0.547582
O16   O     O_2   0.326101 0.714976 0.654140 -0.547867
H14   H     H_    0.283154 0.615121 0.560899 0.162176
O17   O     O_2   0.413024 0.561273 0.354950 -0.482256
O18   O     O_2   0.808466 0.777532 0.346276 -0.533655
H15   H     H_    0.792947 0.939880 0.544279 0.148875
C47   C     C_R   0.457056 0.633688 0.255541 -0.013835
H16   H     H_    0.318137 0.652112 0.274686 0.087844
C48   C     C_R   0.469189 0.604308 0.196086 -0.120352
H17   H     H_    0.337978 0.600683 0.170809 0.095669
C49   C     C_R   0.647935 0.580599 0.169656 -0.104863
C50   C     C_R   0.814271 0.587004 0.204592 -0.125925
H18   H     H_    0.954152 0.569332 0.185890 0.094850
C51   C     C_R   0.801609 0.616085 0.264281 0.011206
H19   H     H_    0.931062 0.620086 0.290360 0.103296
C52   C     C_R   0.622768 0.639770 0.290266 0.266967
C53   C     C_R   0.659682 0.869901 0.744166 -0.006860
H20   H     H_    0.799735 0.854841 0.724783 0.083059
C54   C     C_R   0.647574 0.899572 0.803601 -0.122364
H21   H     H_    0.779940 0.906844 0.828605 0.095787
C55   C     C_R   0.467513 0.919078 0.830345 -0.104452
C56   C     C_R   0.299808 0.908088 0.795741 -0.122064
H22   H     H_    0.158874 0.922386 0.814678 0.092204
C57   C     C_R   0.312317 0.878434 0.736101 -0.001172
H23   H     H_    0.181697 0.870748 0.710289 0.089469
C58   C     C_R   0.492489 0.859052 0.709800 0.272577
C59   C     C_2   0.642898 0.269706 0.001877 -0.250764
H24   H     H_    0.777523 0.238821 0.005236 0.103179
C60   C     C_2   0.472615 0.230245 0.997965 -0.250601
H25   H     H_    0.337989 0.261130 0.994607 0.103503
O19   O     O_R   0.618210 0.960470 0.922400 -0.560215
O20   O     O_R   0.291310 0.111960 0.995450 -0.562510
O21   O     O_R   0.124210 0.039530 0.077580 -0.560071
C61   C     C_R   0.460979 0.145098 0.998418 0.862529
O22   O     O_R   0.288310 0.965490 0.917650 -0.562268
O23   O     O_R   0.121180 0.892010 0.999220 -0.556470
C62   C     C_R   0.456794 0.949886 0.893860 0.831917
O24   O     O_R   0.621230 0.107990 0.000760 -0.555903
O25   O     O_3   0.455770 0.976060 0.026840 -0.274964
V3    V     V_3+5 0.179680 0.004440 0.995020 1.132789
O26   O     O_R   0.791670 0.888040 0.004570 -0.563497
C63   C     C_R   0.961149 0.854904 0.001579 0.860684
O27   O     O_R   0.794680 0.034510 0.082370 -0.563349
C64   C     C_R   0.964326 0.050125 0.106116 0.831681
V4    V     V_3+5 0.680070 0.995560 0.005010 1.132069
O28   O     O_3   0.953840 0.023940 0.973160 -0.273545
O29   O     O_3   0.770762 0.324663 0.723233 -0.715713
H26   H     H_    0.782727 0.298722 0.681917 0.316889
N5    N     N_R   0.309804 0.536246 0.454041 0.121354
O30   O     O_R   0.429627 0.477693 0.435342 -0.317133
O31   O     O_R   0.131545 0.519967 0.463586 -0.365026
O32   O     O_3   0.834667 0.902461 0.435944 -0.679744
H27   H     H_    0.746205 0.906347 0.404241 0.341731

loop_
_geom_bond_atom_site_label_1
_geom_bond_atom_site_label_2
_geom_bond_distance
_ccdc_geom_bond_type
C27   H11   1.082554 S    
O29   H26   0.989041 S    
O23   C63   1.289303 A    
C41   C42   1.417976 A    
C20   O14   1.349185 S    
N2    C20   1.373548 A    
C55   C62   1.492774 S    
C9    C12   1.406377 A    
C1    O6    1.296420 A    
N5    O30   1.301326 A    
C49   C50   1.409200 A    
C22   C23   1.409436 A    
C45   N4    1.371105 A    
O26   C63   1.300181 A    
C31   C32   1.419199 A    
C30   C31   1.402477 A    
C13   C14   1.406549 A    
O24   V4    2.013637 S    
C16   C20   1.409651 A    
O5    C3    1.296310 A    
C46   O18   1.348274 S    
C54   H21   1.082760 S    
C47   C48   1.399230 A    
C28   C29   1.406177 A    
C59   H24   1.086562 S    
C45   O17   1.347920 S    
V2    O10   2.153239 S    
C23   C64   1.491302 S    
C60   H25   1.086563 S    
C37   C44   1.400927 A    
O20   V3    2.011324 S    
C19   N2    1.373456 A    
O25   V3    2.155819 S    
C40   C45   1.418558 A    
O19   V4    1.975110 S    
N1    C32   1.446499 S    
C3    C29   1.490709 S    
O8    V2    1.977388 S    
C16   C17   1.406628 A    
C12   H3    1.083150 S    
C36   C37   1.407255 A    
C27   C32   1.403888 A    
C24   C25   1.402391 A    
C8    C9    1.409660 A    
C38   C39   1.400877 A    
O1    V2    2.013276 S    
O7    V1    2.155819 S    
O22   V3    1.973141 S    
C25   C26   1.404787 A    
C34   C35   1.412027 A    
C29   C30   1.408337 A    
C56   C57   1.404080 A    
O9    C4    1.300162 A    
N2    C26   1.447431 S    
C33   O15   1.349377 S    
C4    C5    1.477022 S    
C19   O13   1.349134 S    
N3    C58   1.448978 S    
C7    C11   1.409650 A    
C43   O32   1.375978 S    
C24   H9    1.082662 S    
C1    C49   1.492623 S    
C21   C22   1.399761 A    
C42   C43   1.424855 A    
C35   C36   1.406998 A    
C56   H22   1.082696 S    
C9    C10   1.408773 A    
O21   C64   1.296718 A    
C57   C58   1.405932 A    
C50   H18   1.082830 S    
O4    C2    1.300733 A    
N4    C46   1.370279 A    
C36   C41   1.422455 A    
C21   H7    1.082848 S    
C14   C19   1.409996 A    
C53   C54   1.399301 A    
C30   H13   1.083505 S    
C60   C61   1.477376 S    
O2    C1    1.302093 A    
C43   C44   1.397060 A    
C14   C15   1.408433 A    
C50   C51   1.404225 A    
C11   C18   1.406353 A    
C22   H8    1.082725 S    
N4    C52   1.450044 S    
C53   H20   1.082915 S    
C5    H1    1.086578 S    
C2    C59   1.477363 S    
O20   C61   1.300736 A    
C51   H19   1.082902 S    
O25   V4    1.704383 S    
C33   C37   1.411246 A    
O3    C4    1.289288 A    
C61   O24   1.289376 A    
V3    O28   1.706355 S    
C48   C49   1.409711 A    
C21   C26   1.403242 A    
N3    C34   1.372044 A    
O6    V2    1.974034 S    
C54   C55   1.409811 A    
C42   C46   1.417835 A    
O9    V2    2.010685 S    
C39   N5    1.433526 S    
O27   V4    1.977482 S    
O32   H27   0.991076 S    
O2    V1    1.973087 S    
O19   C62   1.296395 A    
C57   H23   1.082798 S    
C25   H10   1.082796 S    
C47   H16   1.083038 S    
C53   C58   1.403079 A    
C31   O29   1.380957 S    
C10   C15   1.418086 A    
C6    C63   1.477022 S    
O1    C2    1.289391 A    
C18   H6    1.083140 S    
C40   C41   1.418050 A    
N5    O31   1.301035 A    
O5    V1    1.971656 S    
O21   V3    1.971439 S    
O22   C62   1.302179 A    
O8    C3    1.300896 A    
C8    O12   1.349040 S    
O23   V3    2.013424 S    
C35   C38   1.400586 A    
C17   C18   1.398513 A    
C6    H2    1.086578 S    
C27   C28   1.400522 A    
C10   C11   1.408889 A    
O4    V1    2.011203 S    
O3    V1    2.013466 S    
V1    O10   1.706301 S    
C33   N3    1.372372 A    
C34   O16   1.349286 S    
C28   H12   1.082991 S    
C15   C16   1.408338 A    
C59   C60   1.353109 D    
C55   C56   1.409111 A    
C5    C6    1.352682 D    
C17   H5    1.083161 S    
O7    V2    1.704655 S    
C38   H14   1.083779 S    
C47   C52   1.403200 A    
C39   C40   1.424240 A    
C7    O11   1.349088 S    
C48   H17   1.082884 S    
C51   C52   1.406115 A    
C23   C24   1.409039 A    
C12   C13   1.398649 A    
C13   H4    1.083016 S    
N1    C8    1.372610 A    
O27   C64   1.300838 A    
C7    N1    1.372044 A    
C44   H15   1.083738 S    
O26   V4    2.010744 S    
V4    O28   2.153241 S    
