data_mof_unit_4068.cif
_audit_creation_date              2012-12-11T16:08:59-0500
_audit_creation_method            fapswitch 2.2
_symmetry_space_group_name_H-M    P1
_symmetry_Int_Tables_number       1
_space_group_crystal_system       triclinic
_cell_length_a                    12.980382
_cell_length_b                    13.2744
_cell_length_c                    27.733096
_cell_angle_alpha                 94.90398
_cell_angle_beta                  90.266313
_cell_angle_gamma                 119.330441
_cell_volume                      4144.81946661

loop_
_atom_site_label
_atom_site_type_symbol
_atom_type_description
_atom_site_fract_x
_atom_site_fract_y
_atom_site_fract_z
_atom_type_partial_charge
C1    C     C_R   0.628500 0.894270 0.427920 0.574072
C2    C     C_R   0.175582 0.745694 0.299213 0.009840
C3    C     C_R   0.163692 0.738321 0.198614 0.009491
C4    C     C_R   0.600832 0.221714 0.440473 0.543167
C5    C     C_R   0.166915 0.648555 0.220436 -0.137271
C6    C     C_R   0.170822 0.651280 0.270573 -0.138882
C7    C     C_R   0.149621 0.730756 0.148746 -0.129392
C8    C     C_R   0.126503 0.809883 0.127083 -0.005203
C9    C     C_R   0.203333 0.943273 0.356687 -0.125187
C10   C     C_R   0.184797 0.935236 0.306477 0.013254
C11   C     C_R   0.175312 0.837913 0.277614 0.062263
C12   C     C_R   0.579877 0.258397 0.220089 -0.104370
C13   C     C_R   0.182085 0.025154 0.284342 -0.136606
C14   C     C_R   0.168476 0.017813 0.233908 -0.139912
C15   C     C_R   0.159922 0.921670 0.205049 0.013036
C16   C     C_R   0.268966 0.876066 0.425623 0.548072
C17   C     C_R   0.166977 0.833083 0.227082 0.062700
C18   C     C_R   0.137937 0.908758 0.154845 -0.137876
C19   C     C_R   0.210714 0.854212 0.377692 -0.001893
C20   C     C_R   0.763230 0.921157 0.361134 0.230514
C21   C     C_R   0.771500 0.910887 0.310693 0.017222
C22   C     C_R   0.777450 0.902491 0.209839 0.010449
C23   C     C_R   0.568356 0.242646 0.269388 -0.104327
C24   C     C_R   0.876587 0.984264 0.238716 -0.134015
C25   C     C_R   0.875277 0.985973 0.288698 -0.121268
C26   C     C_R   0.781609 0.897965 0.160092 -0.124083
C27   C     C_R   0.691593 0.804619 0.130471 -0.004352
C28   C     C_R   0.627674 0.898283 0.564637 0.548608
C29   C     C_R   0.559027 0.762246 0.352272 -0.179128
C30   C     C_R   0.567345 0.748416 0.302415 -0.000382
C31   C     C_R   0.671677 0.826300 0.281366 0.025766
C32   C     C_R   0.470592 0.662494 0.272981 -0.115140
C33   C     C_R   0.476876 0.653952 0.222658 -0.122732
C34   C     C_R   0.663184 0.312884 0.302966 0.035590
C35   C     C_R   0.578925 0.733017 0.201184 0.018796
C36   C     C_R   0.675839 0.820529 0.230797 0.065449
C37   C     C_R   0.588393 0.723890 0.150861 -0.136279
C38   C     C_R   0.653383 0.853266 0.381054 0.031118
C39   C     C_R   0.741934 0.300029 0.651367 -0.138827
C40   C     C_R   0.603511 0.227808 0.578273 0.544312
C41   C     C_R   0.756070 0.324225 0.701780 0.005969
C42   C     C_R   0.770711 0.352826 0.803633 0.005809
C43   C     C_R   0.859747 0.344295 0.778199 -0.139570
C44   C     C_R   0.851693 0.328583 0.727546 -0.139676
C45   C     C_R   0.686566 0.344136 0.203991 0.035644
C46   C     C_R   0.778488 0.370955 0.854277 -0.138289
C47   C     C_R   0.689131 0.381192 0.878818 -0.005783
C48   C     C_R   0.564011 0.317575 0.651686 -0.134882
C49   C     C_R   0.573593 0.336070 0.701798 0.001313
C50   C     C_R   0.668596 0.337118 0.727131 0.056276
C51   C     C_R   0.484940 0.345370 0.726959 -0.142658
C52   C     C_R   0.271939 0.879488 0.563458 0.549161
C53   C     C_R   0.488310 0.352150 0.777229 -0.142534
C54   C     C_R   0.582158 0.353063 0.802721 0.000320
C55   C     C_R   0.673956 0.347691 0.777845 0.055424
C56   C     C_1   0.695442 0.367380 0.153920 -0.057734
C57   C     C_R   0.587988 0.364568 0.852859 -0.133545
C58   C     C_R   0.642053 0.290066 0.626703 -0.006875
C59   C     C_1   0.222460 0.862955 0.610184 -0.010284
C60   C     C_R   0.074800 0.748334 0.717921 -0.103271
C61   C     C_R   0.059368 0.738293 0.767509 -0.103244
C62   C     C_R   0.235162 0.926154 0.786102 -0.104866
C63   C     C_R   0.250533 0.936247 0.736493 -0.104295
C64   C     C_1   0.632122 0.267764 0.394480 -0.013395
C65   C     C_R   0.170750 0.847135 0.702286 0.036188
C66   C     C_R   0.140079 0.826666 0.801719 0.036436
C67   C     C_1   0.649989 0.293443 0.353454 -0.058173
C68   C     C_1   0.123087 0.814255 0.852604 -0.057875
C69   C     C_1   0.193717 0.854065 0.651572 -0.056137
C70   C     C_1   0.099840 0.797132 0.894201 -0.014083
C71   C     C_1   0.647703 0.860897 0.608997 -0.011619
C72   C     C_R   0.688330 0.902813 0.735086 -0.104392
C73   C     C_R   0.698730 0.885938 0.783438 -0.102126
C74   C     C_R   0.683413 0.699350 0.758112 -0.106721
C75   C     C_R   0.672746 0.716206 0.709524 -0.104900
C76   C     C_R   0.770293 0.398123 0.286880 -0.104501
C77   C     C_R   0.675345 0.818237 0.698002 0.036875
C78   C     C_1   0.703910 0.394871 0.113156 -0.013991
C79   C     C_R   0.696098 0.784263 0.795124 0.036425
C80   C     C_1   0.709949 0.769869 0.845120 -0.058880
C81   C     C_1   0.661461 0.837231 0.648657 -0.056739
C82   C     C_1   0.724950 0.761611 0.887189 -0.011922
C83   C     C_R   0.065343 0.772829 0.079148 0.549344
C84   C     C_R   0.717149 0.441545 0.067340 0.548994
C85   C     C_R   0.721495 0.782597 0.081407 0.557768
C86   C     C_R   0.056338 0.766198 0.941195 0.538549
C87   C     C_R   0.710311 0.434644 0.928806 0.536750
C88   C     C_R   0.781818 0.413918 0.237504 -0.104078
C89   C     C_R   0.187685 0.752249 0.349140 -0.131365
C90   C     C_R   0.748504 0.754331 0.936935 0.563463
Cr1   Cr    Cr6+3 0.416430 0.829200 0.492370 1.021927
Cr2   Cr    Cr6+3 0.674630 0.087020 0.504170 1.044998
Cr3   Cr    Cr6+3 0.408920 0.083740 0.503490 1.028586
Cr4   Cr    Cr6+3 0.914010 0.832750 0.013970 1.017378
Cr5   Cr    Cr6+3 0.922310 0.578600 0.003000 1.016772
Cr6   Cr    Cr6+3 0.656280 0.574630 0.003870 1.022282
H1    H     H_    0.844429 0.452465 0.312408 0.113862
H2    H     H_    0.389939 0.602305 0.288889 0.103776
H3    H     H_    0.864362 0.481467 0.225551 0.120487
H4    H     H_    0.475463 0.708184 0.367965 0.133504
H5    H     H_    0.856492 0.383299 0.874236 0.128552
H6    H     H_    0.803521 0.280707 0.631979 0.129398
H7    H     H_    0.934797 0.348548 0.797464 0.114040
H8    H     H_    0.919654 0.319048 0.708559 0.114115
H9    H     H_    0.517816 0.371087 0.871423 0.138714
H10   H     H_    0.418233 0.357845 0.796185 0.114469
H11   H     H_    0.411362 0.344092 0.707736 0.114575
H12   H     H_    0.164582 0.087119 0.217486 0.098711
H13   H     H_    0.488234 0.312748 0.632702 0.136376
H14   H     H_    0.013187 0.678464 0.691894 0.114272
H15   H     H_    0.505215 0.204854 0.194679 0.114275
H16   H     H_    0.985113 0.661133 0.779190 0.117143
H17   H     H_    0.297746 0.995206 0.812160 0.114518
H18   H     H_    0.325689 0.012655 0.724811 0.119576
H19   H     H_    0.690036 0.981816 0.726602 0.116830
H20   H     H_    0.709100 0.952329 0.811714 0.116374
H21   H     H_    0.681965 0.620614 0.766790 0.121729
H22   H     H_    0.662256 0.649999 0.681149 0.114164
H23   H     H_    0.190045 0.100771 0.306005 0.107176
H24   H     H_    0.485289 0.175940 0.281360 0.119447
H25   H     H_    0.143873 0.655591 0.127427 0.134678
H26   H     H_    0.191178 0.682213 0.365205 0.129960
H27   H     H_    0.163574 0.575011 0.198740 0.103011
H28   H     H_    0.172313 0.580710 0.286951 0.099154
H29   H     H_    0.121963 0.971000 0.138043 0.119094
H30   H     H_    0.892100 0.076631 0.378221 0.315182
H31   H     H_    0.220024 0.021729 0.378775 0.134047
H32   H     H_    0.861614 0.961893 0.144947 0.135115
H33   H     H_    0.956070 0.045762 0.222557 0.102439
H34   H     H_    0.955301 0.048511 0.309493 0.120920
H35   H     H_    0.518596 0.652038 0.128064 0.120857
H36   H     H_    0.401757 0.586376 0.200574 0.103181
O1    O     O_R   0.296680 0.802170 0.437540 -0.523956
O2    O     O_R   0.637200 0.461990 0.052510 -0.507622
O3    O     O_R   0.664790 0.681920 0.057970 -0.492735
O4    O     O_R   0.525380 0.838530 0.443500 -0.521558
O5    O     O_R   0.815840 0.852920 0.961840 -0.503114
O6    O     O_R   0.012100 0.822630 0.963670 -0.511573
O7    O     O_R   0.037010 0.668460 0.953040 -0.507618
O8    O     O_R   0.813390 0.478970 0.949660 -0.503274
O9    O     O_R   0.632250 0.456930 0.945520 -0.528256
O10   O     O_R   0.660200 0.677230 0.958780 -0.491987
O11   O     O_3   0.830870 0.661990 0.006950 -0.265387
O12   O     O_R   0.662610 0.183990 0.557860 -0.503843
O13   O     O_R   0.702130 0.995190 0.446810 -0.455834
O14   O     O_R   0.661770 0.181390 0.458760 -0.496081
O15   O     O_R   0.499820 0.198480 0.455280 -0.510043
O16   O     O_R   0.311660 0.976250 0.449080 -0.498957
O17   O     O_R   0.297580 0.804960 0.544440 -0.506356
O18   O     O_R   0.526220 0.841130 0.542590 -0.495459
O19   O     O_R   0.703030 0.997990 0.553710 -0.506484
O20   O     O_3   0.858677 0.000345 0.391374 -0.680550
O21   O     O_R   0.500730 0.201280 0.562180 -0.518692
O22   O     O_R   0.312500 0.978850 0.548170 -0.492144
O23   O     O_3   0.499990 0.999990 0.500010 -0.250450
O24   O     O_R   0.820790 0.857990 0.068830 -0.520769
O25   O     O_R   0.016700 0.827330 0.062850 -0.501468
O26   O     O_R   0.041970 0.673520 0.060040 -0.518339
O27   O     O_R   0.817980 0.483660 0.048840 -0.492016

loop_
_geom_bond_atom_site_label_1
_geom_bond_atom_site_label_2
_ccdc_geom_bond_type
C15   C18   A    
C66   C68   S    
C63   C65   A    
C28   O18   A    
C8    C83   S    
C1    O13   A    
C35   C36   A    
C6    H28   S    
C87   O8    A    
C44   H8    S    
C7    C8    A    
C39   C41   A    
C53   C54   A    
Cr5   O11   S    
C21   C31   A    
C12   C23   A    
C84   O2    A    
Cr5   O8    S    
C29   C30   A    
C73   H20   S    
Cr5   O27   S    
Cr4   O11   S    
Cr3   O22   S    
C35   C37   A    
C3    C7    A    
C18   H29   S    
C30   C31   A    
C89   H26   S    
C25   H34   S    
C52   O22   A    
Cr5   O26   S    
C56   C78   T    
Cr3   O16   S    
C15   C17   A    
C42   C46   A    
C27   C85   S    
Cr6   O9    S    
C46   C47   A    
C63   H18   S    
H30   O20   S    
C24   H33   S    
C9    C19   A    
Cr1   O4    S    
C45   C56   S    
C52   O17   A    
C49   C51   A    
C83   O25   A    
C29   C38   A    
Cr3   O15   S    
C1    O4    A    
C9    C10   A    
C76   C88   A    
C29   H4    S    
Cr4   O24   S    
C14   H12   S    
C48   H13   S    
C13   C14   A    
C4    C64   S    
C2    C6    A    
C75   H22   S    
C7    H25   S    
C16   O1    A    
C53   H10   S    
C13   H23   S    
C84   O27   A    
Cr6   O3    S    
C46   H5    S    
C40   C58   S    
C74   C75   A    
C62   C66   A    
Cr2   O14   S    
C64   C67   T    
Cr3   O23   S    
C45   C88   A    
C24   C25   A    
C62   H17   S    
C80   C82   T    
C23   H24   S    
Cr1   O17   S    
C72   C73   A    
Cr6   O2    S    
C76   H1    S    
C4    O15   A    
C8    C18   A    
C20   O20   S    
C60   C61   A    
C51   C53   A    
C85   O24   A    
C47   C87   S    
C2    C89   A    
C43   C44   A    
Cr1   O23   S    
C72   C77   A    
C19   C89   A    
C52   C59   S    
C78   C84   S    
C42   C55   A    
C47   C57   A    
C20   C38   A    
Cr1   O1    S    
C77   C81   S    
C23   C34   A    
C4    O14   A    
Cr2   O19   S    
C73   C79   A    
C26   H32   S    
C87   O9    A    
C75   C77   A    
C90   O10   A    
C1    C38   S    
C59   C69   T    
C86   O7    A    
C33   H36   S    
C68   C70   T    
C48   C49   A    
C85   O3    A    
C60   C65   A    
Cr4   O25   S    
C74   C79   A    
C40   O12   A    
C26   C27   A    
Cr4   O6    S    
C41   C44   A    
C22   C24   A    
C40   O21   A    
C28   C71   S    
C42   C43   A    
C70   C86   S    
C41   C50   A    
C90   O5    A    
C39   H6    S    
C9    H31   S    
C74   H21   S    
C21   C25   A    
C54   C55   A    
C11   C17   A    
C61   C66   A    
Cr2   O13   S    
C14   C15   A    
C12   C45   A    
C3    C5    A    
C10   C13   A    
C34   C67   S    
Cr1   O18   S    
C48   C58   A    
C22   C36   A    
C5    H27   S    
Cr5   O7    S    
C50   C55   A    
C82   C90   S    
C16   O16   A    
C32   C33   A    
Cr3   O21   S    
Cr6   O11   S    
C30   C32   A    
C39   C58   A    
C5    C6    A    
C83   O26   A    
C57   H9    S    
C27   C37   A    
C16   C19   S    
C65   C69   S    
C33   C35   A    
C32   H2    S    
C3    C17   A    
Cr2   O23   S    
Cr2   O12   S    
C43   H7    S    
C88   H3    S    
C60   H14   S    
C10   C11   A    
C86   O6    A    
Cr6   O10   S    
C79   C80   S    
C37   H35   S    
C20   C21   A    
C28   O19   A    
C51   H11   S    
C49   C50   A    
C22   C26   A    
C34   C76   A    
Cr4   O5    S    
C31   C36   A    
C2    C11   A    
C62   C63   A    
C61   H16   S    
C12   H15   S    
C72   H19   S    
C71   C81   T    
C54   C57   A    
