data_mof_unit_4711.cif
_audit_creation_date              2012-12-11T17:06:36-0500
_audit_creation_method            fapswitch 2.2
_symmetry_space_group_name_H-M    P1
_symmetry_Int_Tables_number       1
_space_group_crystal_system       triclinic
_cell_length_a                    6.977901
_cell_length_b                    14.511256
_cell_length_c                    15.960302
_cell_angle_alpha                 90.538131
_cell_angle_beta                  90.127869
_cell_angle_gamma                 89.895407
_cell_volume                      1616.03204369

loop_
_atom_site_label
_atom_site_type_symbol
_atom_type_description
_atom_site_fract_x
_atom_site_fract_y
_atom_site_fract_z
_atom_type_partial_charge
O1    O     O_R   0.494400 0.415450 0.412630 -0.534574
O2    O     O_R   0.823940 0.405730 0.586760 -0.553824
O3    O     O_R   0.994240 0.584550 0.587370 -0.537226
C1    C     C_R   0.655344 0.383062 0.614812 0.711897
O4    O     O_R   0.824110 0.404430 0.413240 -0.543864
O5    O     O_R   0.994420 0.583240 0.412620 -0.539429
C2    C     C_R   0.655375 0.382068 0.384457 0.700787
O6    O     O_R   0.494230 0.416760 0.587380 -0.527478
O7    O     O_3   0.660800 0.558670 0.500000 -0.370459
V1    V     V_3+5 0.935650 0.489120 0.500000 1.374180
O8    O     O_R   0.324140 0.594270 0.413240 -0.539227
C3    C     C_R   0.154955 0.616198 0.384438 0.691795
O9    O     O_R   0.323960 0.595570 0.586760 -0.543302
C4    C     C_R   0.155248 0.617728 0.615485 0.673888
V2    V     V_3+5 0.435660 0.510880 0.500000 1.398561
O10   O     O_3   0.160640 0.441330 0.500000 -0.374472
C5    C     C_3   0.057160 0.667925 0.772165 -0.144001
C6    C     C_3   0.229788 0.716772 0.814590 -0.141224
H1    H     H_    0.309411 0.691219 0.870025 0.099355
H2    H     H_    0.994724 0.601202 0.791709 0.096440
C7    C     C_3   0.121048 0.808985 0.810086 -0.003921
C8    C     C_3   0.948224 0.760941 0.768442 -0.114354
C9    C     C_3   0.036224 0.779721 0.681214 -0.141590
C10   C     C_3   0.208846 0.828585 0.723649 -0.144347
C11   C     C_3   0.317785 0.735557 0.727363 -0.114474
C12   C     C_3   0.144953 0.687494 0.685732 -0.003971
H3    H     H_    0.795718 0.771620 0.785718 0.106007
H4    H     H_    0.956607 0.805286 0.625782 0.098387
H5    H     H_    0.271203 0.895339 0.704107 0.094093
H6    H     H_    0.470290 0.724882 0.710085 0.105670
C13   C     C_R   0.275237 0.750454 0.187639 0.100316
C14   C     C_R   0.118749 0.810225 0.178944 -0.111664
C15   C     C_R   0.965919 0.799772 0.235605 -0.178847
H7    H     H_    0.842507 0.844528 0.231616 0.131534
C16   C     C_R   0.977108 0.736257 0.301828 -0.182158
H8    H     H_    0.861026 0.733251 0.346443 0.130144
C17   C     C_R   0.142100 0.681739 0.313765 -0.110381
C18   C     C_R   0.286731 0.687937 0.253367 0.099807
C19   C     C_3   0.495642 0.704690 0.264920 -0.414867
C20   C     C_3   0.483172 0.772431 0.193101 -0.398355
H9    H     H_    0.582951 0.642583 0.249848 0.171922
H10   H     H_    0.527627 0.738191 0.326273 0.169989
H11   H     H_    0.562725 0.749345 0.136380 0.173452
H12   H     H_    0.508584 0.845133 0.212675 0.166559
C21   C     C_R   0.483205 0.308058 0.733733 0.058149
C22   C     C_R   0.646891 0.316051 0.684154 -0.076172
C23   C     C_R   0.799906 0.256254 0.701211 -0.204986
H13   H     H_    0.922617 0.255861 0.661197 0.147832
C24   C     C_R   0.788563 0.190807 0.765326 -0.191142
H14   H     H_    0.905880 0.143017 0.773599 0.133853
C25   C     C_R   0.622221 0.182658 0.814289 -0.094087
C26   C     C_R   0.471323 0.243939 0.798390 0.036262
C27   C     C_3   0.268104 0.221252 0.777588 -0.421911
C28   C     C_3   0.283662 0.289061 0.705281 0.158620
H15   H     H_    0.170198 0.245995 0.827848 0.145279
H16   H     H_    0.248221 0.147567 0.760713 0.171678
H17   H     H_    0.190559 0.350970 0.712295 0.076683
C29   C     C_R   0.492168 0.250425 0.309464 0.102433
C30   C     C_R   0.647591 0.310815 0.317515 -0.111208
C31   C     C_R   0.799676 0.299829 0.260398 -0.180477
H18   H     H_    0.922591 0.344818 0.264162 0.131098
C32   C     C_R   0.788068 0.235427 0.193962 -0.180532
H19   H     H_    0.903426 0.231923 0.148933 0.130331
C33   C     C_R   0.623454 0.180624 0.182407 -0.109012
C34   C     C_R   0.480265 0.187014 0.243528 0.095958
C35   C     C_3   0.270494 0.202597 0.233388 -0.415387
C36   C     C_3   0.283415 0.271307 0.305610 -0.395145
H20   H     H_    0.185410 0.140284 0.248579 0.171568
H21   H     H_    0.235610 0.235166 0.172472 0.170935
H22   H     H_    0.206662 0.248510 0.362733 0.173576
H23   H     H_    0.255141 0.343624 0.286736 0.166776
O11   O     O_R   0.771650 0.079500 0.908680 -0.540901
O12   O     O_R   0.441690 0.091800 0.082800 -0.539104
O13   O     O_R   0.271460 0.912980 0.083410 -0.536578
C37   C     C_R   0.610676 0.114109 0.111656 0.693333
O14   O     O_R   0.441930 0.090510 0.909280 -0.539675
O15   O     O_R   0.271690 0.911670 0.908660 -0.537351
C38   C     C_R   0.610464 0.112253 0.880517 0.696327
O16   O     O_R   0.771410 0.080810 0.083440 -0.539824
O17   O     O_3   0.605100 0.937580 0.996050 -0.369452
V3    V     V_3+5 0.330220 0.007110 0.996030 1.392252
O18   O     O_R   0.941980 0.900620 0.909250 -0.542511
C39   C     C_R   0.110696 0.878592 0.880448 0.674404
O19   O     O_R   0.941740 0.901920 0.082770 -0.542317
C40   C     C_R   0.110634 0.880203 0.111759 0.693843
V4    V     V_3+5 0.830220 0.985300 0.996000 1.387967
O20   O     O_3   0.105210 0.054870 0.996020 -0.370048
N1    N     N_2   0.278919 0.249679 0.620448 -0.487848
H24   H     H_    0.177180 0.276010 0.580367 0.261673
C41   C     C_3   0.337195 0.155500 0.603250 -0.555252
H25   H     H_    0.369240 0.147678 0.535445 0.187265
H26   H     H_    0.219252 0.107518 0.619154 0.178906
H27   H     H_    0.468580 0.137461 0.638805 0.217144

loop_
_geom_bond_atom_site_label_1
_geom_bond_atom_site_label_2
_ccdc_geom_bond_type
C35   H20   S    
C6    C7    S    
C16   H8    S    
C1    O6    A    
C23   C24   A    
C1    C22   S    
C21   C22   A    
C17   C18   A    
C5    C12   S    
C16   C17   A    
O14   C38   A    
O5    C3    A    
C18   C19   S    
C35   H21   S    
O15   C39   A    
V2    O10   S    
C5    H2    S    
C13   C20   S    
C31   C32   A    
C6    H1    S    
C9    C12   S    
O12   V3    S    
C3    C17   S    
C10   H5    S    
C32   C33   A    
O8    V2    S    
C20   H11   S    
C13   C14   A    
C24   C25   A    
O17   V4    S    
C9    C10   S    
O1    V2    S    
O7    V1    S    
C35   C36   S    
C30   C31   A    
O9    C4    A    
O12   C37   A    
C6    C11   S    
C2    C30   S    
C15   H7    S    
C19   H10   S    
C27   H15   S    
C25   C26   A    
C7    C39   S    
C10   C11   S    
C19   H9    S    
C19   C20   S    
O4    C2    A    
V4    O20   S    
C21   C26   A    
C29   C30   A    
O18   V4    S    
C4    C12   S    
C31   H18   S    
O2    C1    A    
C32   H19   S    
C29   C34   A    
C41   H26   S    
C23   H13   S    
O15   V3    S    
C5    C6    S    
C9    H4    S    
O19   C40   A    
V3    O20   S    
O3    C4    A    
N1    C41   S    
C21   C28   S    
O18   C39   A    
O6    V2    S    
C8    H3    S    
O9    V2    S    
O13   V3    S    
O2    V1    S    
C26   C27   S    
C41   H27   S    
C27   H16   S    
C11   H6    S    
C22   C23   A    
O1    C2    A    
O19   V4    S    
O17   V3    S    
O14   V3    S    
O5    V1    S    
O11   V4    S    
O8    C3    A    
C27   C28   S    
C5    C8    S    
C13   C18   A    
C36   H22   S    
C14   C15   A    
C11   C12   S    
C25   C38   S    
O4    V1    S    
O3    V1    S    
V1    O10   S    
C33   C34   A    
C28   N1    S    
C41   H25   S    
C14   C40   S    
C15   C16   A    
C33   C37   S    
C36   H23   S    
C34   C35   S    
O13   C40   A    
O7    V2    S    
C29   C36   S    
C20   H12   S    
N1    H24   S    
C24   H14   S    
C7    C10   S    
O11   C38   A    
C8    C9    S    
C7    C8    S    
C37   O16   A    
O16   V4    S    
C28   H17   S    
