data_mof_unit_596.cif
_audit_creation_date              2012-10-26T20:57:27-0400
_audit_creation_method            fapswitch 2.2
_symmetry_space_group_name_H-M    P1
_symmetry_Int_Tables_number       1
_space_group_crystal_system       triclinic
_cell_length_a                    14.68895
_cell_length_b                    14.718455
_cell_length_c                    15.864443
_cell_angle_alpha                 76.993125
_cell_angle_beta                  102.843451
_cell_angle_gamma                 115.259208
_cell_volume                      2991.16325277

loop_
_atom_site_label
_atom_site_type_symbol
_atom_type_description
_atom_site_fract_x
_atom_site_fract_y
_atom_site_fract_z
_atom_type_partial_charge
C1    C     C_R   0.880100 0.312491 0.516294 0.596311
C2    C     C_R   0.356589 0.933894 0.523867 0.010931
C3    C     C_R   0.668655 0.040321 0.632042 0.042296
C4    C     C_R   0.320316 0.003206 0.464623 0.047220
C5    C     C_R   0.529690 0.065686 0.526436 0.016682
C6    C     C_R   0.459860 0.972617 0.565027 0.024889
C7    C     C_R   0.494669 0.926254 0.646032 -0.133427
C8    C     C_R   0.490717 0.133666 0.470280 -0.143037
C9    C     C_R   0.597437 0.960092 0.679210 -0.120262
C10   C     C_R   0.386927 0.103662 0.442162 -0.108159
C11   C     C_R   0.714723 0.665288 0.349872 0.029879
C12   C     C_R   0.120378 0.687957 0.489851 0.560885
C13   C     C_R   0.283169 0.331624 0.647894 0.030222
C14   C     C_R   0.796663 0.635788 0.375667 0.056217
C15   C     C_R   0.202459 0.363041 0.623433 0.064058
C16   C     C_R   0.999644 0.500007 0.659983 0.553957
C17   C     C_R   0.000284 0.499874 0.340026 0.569562
C18   C     C_R   0.715535 0.511494 0.488992 0.039005
C19   C     C_R   0.284223 0.487854 0.510683 0.043960
C20   C     C_R   0.628656 0.535725 0.466650 -0.011513
C21   C     C_R   0.369727 0.461440 0.531567 -0.012102
C22   C     C_R   0.628385 0.612925 0.394262 0.021298
C23   C     C_R   0.772099 0.071324 0.665291 -0.123782
C24   C     C_R   0.369290 0.383303 0.603209 0.020190
C25   C     C_R   0.542314 0.485303 0.512894 0.030715
C26   C     C_R   0.455511 0.510797 0.484674 0.030775
C27   C     C_R   0.456627 0.583686 0.409633 -0.137347
C28   C     C_R   0.540309 0.410938 0.586959 -0.135877
C29   C     C_R   0.540654 0.633214 0.365851 -0.093773
C30   C     C_R   0.456103 0.361278 0.630530 -0.092296
C31   C     C_3   0.962790 0.403053 0.041051 -0.128292
C32   C     C_3   0.036725 0.596167 0.958988 -0.128864
C33   C     C_3   0.903819 0.449754 0.962437 -0.133257
C34   C     C_R   0.218369 0.971407 0.426731 -0.120010
C35   C     C_3   0.095697 0.549466 0.037593 -0.133645
C36   C     C_1   0.998982 0.500059 0.749492 0.030881
C37   C     C_1   0.000775 0.499542 0.250528 0.035122
C38   C     C_3   0.057882 0.453316 0.994209 0.082857
C39   C     C_3   0.941632 0.545905 0.005822 0.083558
C40   C     C_3   0.999666 0.499418 0.916968 0.012949
C41   C     C_3   0.999850 0.499807 0.083069 0.013231
C42   C     C_1   0.998977 0.499887 0.825056 0.018429
C43   C     C_1   0.000640 0.499493 0.174976 0.019895
C44   C     C_R   0.812533 0.207486 0.543594 0.026175
C45   C     C_R   0.843024 0.156712 0.623117 -0.150192
C46   C     C_R   0.189026 0.796763 0.489504 0.003944
C47   C     C_2   0.724287 0.752567 0.278804 0.546370
C48   C     C_2   0.272352 0.242856 0.717587 0.546787
C49   C     C_2   0.875550 0.598523 0.010403 0.589742
C50   C     C_2   0.123929 0.400680 0.989584 0.589403
C51   C     C_2   0.330797 0.751742 0.583338 0.223770
C52   C     C_2   0.687168 0.190803 0.405203 0.223118
C53   C     C_R   0.153357 0.869652 0.439690 -0.141681
C54   C     C_R   0.710863 0.167462 0.502376 -0.009961
C55   C     C_R   0.290639 0.828661 0.534378 -0.005360
C56   C     C_R   0.635941 0.091968 0.552331 -0.003025
Cu1   Cu    Cu3+1 0.081740 0.475690 0.522610 1.003223
Cu2   Cu    Cu3+1 0.918260 0.524310 0.477390 0.992563
H1    H     H_    0.825103 0.409447 0.930693 0.136770
H2    H     H_    0.066421 0.675298 0.924430 0.142371
H3    H     H_    0.621300 0.922750 0.741812 0.131681
H4    H     H_    0.359440 0.157860 0.398937 0.128204
H5    H     H_    0.075955 0.847236 0.406221 0.144091
H6    H     H_    0.921101 0.186039 0.654912 0.138223
H7    H     H_    0.797450 0.033332 0.726833 0.135403
H8    H     H_    0.189698 0.024915 0.383833 0.131676
H9    H     H_    0.442739 0.867366 0.687318 0.159901
H10   H     H_    0.539779 0.211681 0.450174 0.122476
H11   H     H_    0.534408 0.686074 0.307605 0.170013
H12   H     H_    0.174417 0.589769 0.069327 0.136048
H13   H     H_    0.461644 0.307137 0.687959 0.171370
H14   H     H_    0.705844 0.884178 0.234224 0.351189
H15   H     H_    0.288109 0.109613 0.759348 0.350954
H16   H     H_    0.815851 0.646346 0.085769 0.367277
H17   H     H_    0.183467 0.352746 0.914164 0.366976
H18   H     H_    0.398110 0.750806 0.566594 0.104604
H19   H     H_    0.614441 0.145785 0.371003 0.119667
H20   H     H_    0.279086 0.547669 0.459121 0.121157
H21   H     H_    0.721733 0.452985 0.541516 0.125031
H22   H     H_    0.135870 0.324892 0.656418 0.152391
H23   H     H_    0.863290 0.674219 0.342742 0.156948
H24   H     H_    0.392583 0.603511 0.381499 0.097933
H25   H     H_    0.603421 0.389397 0.614179 0.100355
H26   H     H_    0.933095 0.323922 0.075608 0.144532
N1    N     N_R   0.795440 0.560790 0.443380 -0.254221
N2    N     N_R   0.204560 0.439210 0.556620 -0.246761
O1    O     O_R   0.977900 0.338120 0.529810 -0.517285
O2    O     O_R   0.694095 0.828209 0.286359 -0.702447
O3    O     O_2   0.234542 0.234258 0.781817 -0.508849
O4    O     O_R   0.300572 0.166605 0.708025 -0.702436
O5    O     O_2   0.833623 0.631630 0.942838 -0.499579
O6    O     O_R   0.862095 0.609546 0.091427 -0.678197
O7    O     O_2   0.165929 0.367619 0.057127 -0.500345
O8    O     O_R   0.137253 0.389571 0.908541 -0.677569
O9    O     O_2   0.291733 0.692352 0.645200 -0.469073
O10   O     O_2   0.749892 0.256399 0.361248 -0.480515
O11   O     O_R   0.022100 0.661880 0.470190 -0.518143
O12   O     O_R   0.839850 0.379180 0.491620 -0.474791
O13   O     O_R   0.160150 0.620820 0.508380 -0.473000
O14   O     O_R   0.069010 0.479460 0.640020 -0.463942
O15   O     O_R   0.930990 0.520540 0.359980 -0.467001
O16   O     O_R   0.930960 0.520530 0.601820 -0.516113
O17   O     O_R   0.069040 0.479470 0.398180 -0.512244
O18   O     O_2   0.762740 0.760527 0.215149 -0.509936

loop_
_geom_bond_atom_site_label_1
_geom_bond_atom_site_label_2
_ccdc_geom_bond_type
C1    O1    A    
C21   C26   A    
C23   C45   A    
C22   C29   A    
C27   C29   A    
C5    C56   A    
C36   C42   T    
Cu2   O12   S    
C19   N2    A    
C34   H8    S    
C30   H13   S    
C39   C41   S    
C10   H4    S    
C25   C28   A    
C26   C27   A    
C33   C39   S    
C9    H3    S    
C19   C21   A    
C45   H6    S    
H15   O4    S    
C2    C55   A    
C5    C6    A    
C11   C14   A    
C20   C25   A    
Cu1   O13   S    
Cu1   N2    S    
C32   C39   S    
H16   O6    S    
C3    C23   A    
C17   O15   A    
C12   O13   A    
C11   C47   S    
C35   H12   S    
C18   H21   S    
C46   C55   A    
C31   C33   S    
Cu2   O16   S    
C51   C55   S    
C40   C42   S    
C33   H1    S    
C48   O4    S    
C28   H25   S    
C41   C43   S    
C2    C6    A    
Cu2   O11   S    
C49   O5    D    
H14   O2    S    
C52   C54   S    
C29   H11   S    
Cu1   O17   S    
C54   C56   A    
C18   N1    A    
C33   C40   S    
C32   C35   S    
C35   C38   S    
C51   H18   S    
C12   C46   S    
C50   O8    S    
C25   C26   A    
Cu1   O14   S    
C31   H26   S    
Cu1   O1    S    
C13   C24   A    
C37   C43   T    
C19   H20   S    
C2    C4    A    
C3    C9    A    
C5    C8    A    
C3    C56   A    
C1    C44   S    
C15   H22   S    
Cu2   O15   S    
C17   C37   S    
C12   O11   A    
C15   N2    A    
C16   O16   A    
C39   C49   S    
C20   C22   A    
C8    H10   S    
C48   O3    D    
C13   C15   A    
C32   H2    S    
C49   O6    S    
C4    C10   A    
C52   H19   S    
Cu2   N1    S    
C44   C45   A    
C7    C9    A    
C47   O18   D    
C31   C41   S    
C27   H24   S    
C16   O14   A    
C14   N1    A    
C1    O12   A    
C13   C48   S    
C50   O7    D    
C6    C7    A    
C38   C50   S    
C11   C22   A    
C31   C38   S    
C47   O2    S    
C23   H7    S    
C28   C30   A    
C17   O17   A    
C16   C36   S    
C38   C40   S    
C53   H5    S    
Cu1   Cu2   S    
C46   C53   A    
C52   O10   D    
C18   C20   A    
C32   C40   S    
C4    C34   A    
C35   C41   S    
C24   C30   A    
C7    H9    S    
C44   C54   A    
C34   C53   A    
C8    C10   A    
C21   C24   A    
C14   H23   S    
H17   O8    S    
C51   O9    D    
