data_mof_unit_2049.cif
_audit_creation_date              2012-10-26T20:02:33-0400
_audit_creation_method            fapswitch 2.2
_symmetry_space_group_name_H-M    P1
_symmetry_Int_Tables_number       1
_space_group_crystal_system       triclinic
_cell_length_a                    19.027747
_cell_length_b                    18.499717
_cell_length_c                    12.357661
_cell_angle_alpha                 90.409524
_cell_angle_beta                  129.165826
_cell_angle_gamma                 88.957462
_cell_volume                      3372.03243222

loop_
_atom_site_label
_atom_site_type_symbol
_atom_type_description
_atom_site_fract_x
_atom_site_fract_y
_atom_site_fract_z
_atom_type_partial_charge
C1    C     C_R   0.612803 0.898070 0.653372 0.537143
C2    C     C_R   0.656202 0.714251 0.003249 0.021347
C3    C     C_R   0.180134 0.750794 0.062522 0.021128
C4    C     C_R   0.156182 0.214149 0.003080 0.021307
C5    C     C_R   0.607991 0.207133 0.964866 -0.148255
C6    C     C_R   0.578782 0.745614 0.882029 -0.143238
C7    C     C_R   0.107986 0.707128 0.964869 -0.148261
C8    C     C_R   0.078772 0.245493 0.881818 -0.143250
C9    C     C_R   0.592611 0.189788 0.842137 -0.129425
C10   C     C_R   0.585620 0.787009 0.795841 -0.124141
C11   C     C_R   0.092597 0.689786 0.842132 -0.129421
C12   C     C_R   0.607488 0.104467 0.648068 0.537970
C13   C     C_R   0.085646 0.286947 0.795729 -0.124170
C14   C     C_R   0.283902 0.842776 0.108094 0.119765
C15   C     C_R   0.320406 0.198951 0.169672 0.125862
C16   C     C_R   0.783940 0.342750 0.108127 0.119776
C17   C     C_R   0.820425 0.698973 0.169686 0.125906
C18   C     C_R   0.269279 0.812188 0.284129 -0.172916
C19   C     C_R   0.224577 0.137704 0.205685 -0.170907
C20   C     C_R   0.769266 0.312202 0.284121 -0.172924
C21   C     C_R   0.724628 0.637819 0.205874 -0.170868
C22   C     C_R   0.660019 0.170007 0.723274 -0.007081
C23   C     C_R   0.112825 0.398089 0.653402 0.537138
C24   C     C_R   0.679205 0.839973 0.742464 -0.006858
C25   C     C_R   0.159992 0.670024 0.723244 -0.007084
C26   C     C_R   0.179287 0.340048 0.742583 -0.006819
C27   C     C_R   0.683847 0.994801 0.283595 -0.137345
C28   C     C_R   0.183844 0.494784 0.283589 -0.137382
C29   C     C_R   0.343541 0.001283 0.627238 0.043695
C30   C     C_R   0.843541 0.501291 0.627237 0.043700
C31   C     C_R   0.309085 0.002897 0.698735 -0.159931
C32   C     C_R   0.809084 0.502918 0.698734 -0.159927
C33   C     C_R   0.384795 0.099608 0.343720 0.525513
C34   C     C_R   0.107482 0.604471 0.648062 0.537923
C35   C     C_R   0.383003 0.902712 0.340381 0.544320
C36   C     C_R   0.884799 0.599615 0.343729 0.525362
C37   C     C_R   0.883004 0.402712 0.340382 0.544345
C38   C     C_R   0.367835 0.003328 0.844264 -0.137387
C39   C     C_R   0.867834 0.503351 0.844263 -0.137386
C40   C     C_R   0.462364 0.001928 0.920780 -0.003320
C41   C     C_R   0.962362 0.501937 0.920779 -0.003319
C42   C     C_R   0.494557 0.000208 0.842500 0.174364
C43   C     C_R   0.994556 0.500211 0.842499 0.174366
C44   C     C_R   0.526114 0.001289 0.071369 -0.026191
C45   C     C_R   0.230701 0.783451 0.028651 0.058961
C46   C     C_R   0.026112 0.501294 0.071367 -0.026193
C47   C     C_R   0.619747 0.997279 0.138447 0.008745
C48   C     C_R   0.119745 0.497276 0.138443 0.008744
C49   C     C_R   0.649685 0.996422 0.060890 -0.168946
C50   C     C_R   0.149683 0.496418 0.060887 -0.168961
C51   C     C_R   0.588654 0.998643 0.916626 -0.091646
C52   C     C_R   0.088653 0.498642 0.916624 -0.091640
C53   C     C_R   0.501854 0.004081 0.159482 0.000093
C54   C     C_R   0.001853 0.504087 0.159483 0.000124
C55   C     C_R   0.656289 0.997274 0.364795 0.286970
C56   C     C_R   0.242138 0.223325 0.037548 0.052727
C57   C     C_R   0.156287 0.497253 0.364789 0.286985
C58   C     C_R   0.699756 0.265279 0.190339 -0.150283
C59   C     C_R   0.648535 0.672835 0.089575 -0.149558
C60   C     C_R   0.199766 0.765268 0.190347 -0.150257
C61   C     C_R   0.148482 0.172683 0.089320 -0.149570
C62   C     C_R   0.311756 0.851585 0.243695 0.010873
C63   C     C_R   0.310227 0.148938 0.243814 0.007803
C64   C     C_R   0.811762 0.351583 0.243703 0.010911
C65   C     C_R   0.810256 0.648980 0.243873 0.007656
C66   C     C_R   0.719184 0.194881 0.701050 -0.145589
C67   C     C_R   0.730740 0.283424 0.028694 0.058959
C68   C     C_R   0.757902 0.833354 0.755672 -0.132002
C69   C     C_R   0.219132 0.694920 0.700984 -0.145593
C70   C     C_R   0.258065 0.333561 0.755997 -0.132014
C71   C     C_R   0.283237 0.746356 0.787707 -0.154427
C72   C     C_R   0.328131 0.286687 0.853688 -0.152356
C73   C     C_R   0.783316 0.246293 0.787811 -0.154422
C74   C     C_R   0.827933 0.786431 0.853294 -0.152366
C75   C     C_R   0.289023 0.774336 0.897493 -0.095758
C76   C     C_R   0.323342 0.249257 0.945820 -0.102288
C77   C     C_R   0.789099 0.274273 0.897595 -0.095742
C78   C     C_R   0.742129 0.723348 0.037577 0.052748
C79   C     C_R   0.823195 0.749079 0.945550 -0.102548
C80   C     C_R   0.725068 0.256287 0.915543 0.048128
C81   C     C_R   0.746591 0.756802 0.939146 0.036294
C82   C     C_R   0.225018 0.756324 0.915482 0.048106
C83   C     C_R   0.246664 0.256867 0.939248 0.036493
C84   C     C_R   0.657877 0.204975 0.824879 0.015143
C85   C     C_R   0.669853 0.795635 0.825651 0.013184
C86   C     C_R   0.157847 0.704993 0.824847 0.015166
C87   C     C_R   0.169913 0.295660 0.825687 0.013168
C88   C     C_3   0.233988 0.963563 0.008770 -0.292206
C89   C     C_R   0.680146 0.250788 0.062535 0.021110
C90   C     C_3   0.412252 0.305820 0.273744 -0.316971
C91   C     C_3   0.734076 0.463550 0.008817 -0.292410
C92   C     C_3   0.912294 0.805916 0.272892 -0.317133
C93   C     C_3   0.791000 0.049648 0.574291 -0.316238
C94   C     C_3   0.290957 0.549628 0.574313 -0.316129
Cu1   Cu    Cu3+1 0.526340 0.000000 0.421010 0.949315
Cu2   Cu    Cu3+1 0.026340 0.500000 0.421010 0.949379
Cu3   Cu    Cu3+1 0.473640 0.000000 0.578990 0.897391
Cu4   Cu    Cu3+1 0.973640 0.500000 0.578990 0.897403
H1    H     H_    0.287257 0.819754 0.385868 0.128808
H2    H     H_    0.932357 0.510738 0.116595 0.115674
H3    H     H_    0.297301 0.001315 0.514344 0.123058
H4    H     H_    0.797301 0.501323 0.514343 0.123060
H5    H     H_    0.337767 0.004353 0.894340 0.102999
H6    H     H_    0.837766 0.504390 0.894339 0.102994
H7    H     H_    0.236496 0.003876 0.641077 0.103079
H8    H     H_    0.736496 0.503906 0.641076 0.103071
H9    H     H_    0.618719 0.998931 0.867544 0.188524
H10   H     H_    0.118719 0.498929 0.867543 0.188528
H11   H     H_    0.561757 0.188184 0.981309 0.113279
H12   H     H_    0.216132 0.100081 0.263355 0.121176
H13   H     H_    0.512692 0.738587 0.854194 0.102104
H14   H     H_    0.061770 0.688164 0.981335 0.113291
H15   H     H_    0.012661 0.238407 0.853876 0.102097
H16   H     H_    0.663151 0.238918 0.219008 0.115667
H17   H     H_    0.582999 0.664298 0.062815 0.112572
H18   H     H_    0.163180 0.738892 0.219035 0.115691
H19   H     H_    0.082926 0.164088 0.062455 0.112562
H20   H     H_    0.718578 0.172365 0.619764 0.128438
H21   H     H_    0.766172 0.865062 0.691876 0.119818
H22   H     H_    0.218524 0.672408 0.619694 0.128393
H23   H     H_    0.787224 0.319783 0.385843 0.128824
H24   H     H_    0.266373 0.365345 0.692322 0.119882
H25   H     H_    0.346532 0.807672 0.970445 0.128378
H26   H     H_    0.378687 0.212345 0.018017 0.152237
H27   H     H_    0.846626 0.307586 0.970580 0.128331
H28   H     H_    0.878519 0.712148 0.017733 0.152381
H29   H     H_    0.331609 0.762140 0.773762 0.110635
H30   H     H_    0.387571 0.280771 0.860552 0.115204
H31   H     H_    0.831708 0.262057 0.773898 0.110640
H32   H     H_    0.887311 0.780422 0.860012 0.115235
H33   H     H_    0.528850 0.164654 0.763253 0.163192
H34   H     H_    0.716194 0.600226 0.263596 0.121243
H35   H     H_    0.523213 0.808636 0.701680 0.147067
H36   H     H_    0.028844 0.664640 0.763264 0.163197
H37   H     H_    0.023248 0.308561 0.701533 0.147027
H38   H     H_    0.354069 0.911530 0.074110 0.258361
H39   H     H_    0.235203 0.001608 0.941080 0.128883
H40   H     H_    0.259443 0.991871 0.106638 0.149774
H41   H     H_    0.162643 0.947537 0.952816 0.153895
H42   H     H_    0.462944 0.201639 0.313503 0.270083
H43   H     H_    0.479585 0.327050 0.316784 0.139056
H44   H     H_    0.403898 0.310387 0.354822 0.141889
H45   H     H_    0.721597 0.994364 0.112495 0.106533
H46   H     H_    0.359464 0.339535 0.181936 0.163690
H47   H     H_    0.854109 0.411463 0.074073 0.258333
H48   H     H_    0.734935 0.501406 0.940557 0.128971
H49   H     H_    0.759832 0.492057 0.106624 0.149886
H50   H     H_    0.662820 0.447537 0.953507 0.153872
H51   H     H_    0.962940 0.701700 0.313822 0.270093
H52   H     H_    0.979805 0.826950 0.316417 0.138914
H53   H     H_    0.903433 0.810942 0.353341 0.141981
H54   H     H_    0.859840 0.839498 0.180613 0.163812
H55   H     H_    0.750598 0.944155 0.547265 0.224160
H56   H     H_    0.221596 0.494355 0.112492 0.106527
H57   H     H_    0.845984 0.032433 0.571243 0.109419
H58   H     H_    0.820841 0.057283 0.684962 0.147958
H59   H     H_    0.761753 0.102034 0.517978 0.140321
H60   H     H_    0.250653 0.444097 0.547166 0.224051
H61   H     H_    0.345966 0.532470 0.571283 0.109381
H62   H     H_    0.320775 0.557241 0.684979 0.147985
H63   H     H_    0.261674 0.602012 0.518009 0.140330
H64   H     H_    0.755486 0.990985 0.334074 0.092708
H65   H     H_    0.255484 0.490957 0.334070 0.092691
H66   H     H_    0.432359 0.010736 0.116593 0.115633
N1    N     N_R   0.566260 0.000000 0.302220 -0.212419
N2    N     N_2   0.222065 0.494920 0.512357 -0.448251
N3    N     N_R   0.066260 0.500000 0.302220 -0.212381
N4    N     N_R   0.434410 0.000000 0.697680 -0.239946
N5    N     N_R   0.934410 0.500000 0.697680 -0.239941
N6    N     N_2   0.290018 0.900511 0.038725 -0.531756
N7    N     N_2   0.406662 0.230913 0.234577 -0.539065
N8    N     N_2   0.790062 0.400472 0.038741 -0.531701
N9    N     N_2   0.906718 0.730859 0.234508 -0.538955
N10   N     N_2   0.722062 0.994982 0.512369 -0.448256
O1    O     O_R   0.608610 0.924520 0.551740 -0.473703
O2    O     O_R   0.435880 0.924530 0.314850 -0.503648
O3    O     O_R   0.935880 0.575470 0.314850 -0.514489
O4    O     O_R   0.935880 0.424530 0.314850 -0.503658
O5    O     O_R   0.391380 0.075460 0.448260 -0.510948
O6    O     O_R   0.391380 0.924540 0.448260 -0.518674
O7    O     O_R   0.891380 0.575460 0.448260 -0.510955
O8    O     O_R   0.891380 0.424540 0.448260 -0.518657
O9    O     O_R   0.608610 0.075480 0.551740 -0.468475
O10   O     O_R   0.108610 0.424520 0.551740 -0.473632
O11   O     O_R   0.108610 0.575480 0.551740 -0.468503
O12   O     O_R   0.564110 0.924510 0.685150 -0.523546
O13   O     O_R   0.564110 0.075490 0.685150 -0.535172
O14   O     O_R   0.064110 0.424510 0.685150 -0.523530
O15   O     O_R   0.064110 0.575490 0.685150 -0.535180
O16   O     O_R   0.435880 0.075470 0.314850 -0.514566

loop_
_geom_bond_atom_site_label_1
_geom_bond_atom_site_label_2
_ccdc_geom_bond_type
C83   C87   A    
C13   C87   A    
C10   C85   A    
C20   C64   A    
C8    C13   A    
C33   O5    A    
C13   H37   S    
C6    H13   S    
C31   H7    S    
C45   C82   A    
C10   H35   S    
C54   N3    A    
C80   C84   A    
C54   H2    S    
C94   N2    S    
C91   H49   S    
C43   N5    A    
C39   H6    S    
C55   N10   S    
C1    O12   A    
C7    C11   A    
C37   O4    A    
C94   H61   S    
C91   N8    S    
C72   H30   S    
C75   H25   S    
C35   O2    A    
C29   N4    A    
C38   C40   A    
C19   C61   A    
C21   C59   A    
C21   H34   S    
C3    C7    A    
C27   H64   S    
C23   O14   A    
C27   C55   A    
C43   C52   A    
C32   C39   A    
C12   O9    A    
C11   C86   A    
C68   C74   A    
C14   C62   A    
C12   C22   S    
C93   N10   S    
C67   C89   A    
C7    H14   S    
C23   C26   S    
C69   C71   A    
Cu1   O1    S    
C22   C66   A    
Cu4   O14   S    
Cu1   O16   S    
Cu4   N5    S    
C44   C53   A    
C73   C77   A    
C1    O1    A    
C42   N4    A    
C26   C87   A    
C49   C51   A    
Cu2   Cu4   S    
C90   N7    S    
C92   H54   S    
C50   C52   A    
C41   C46   A    
C51   H9    S    
Cu2   O3    S    
C24   C85   A    
C46   C54   A    
C93   H58   S    
C44   C47   A    
C4    C8    A    
C42   C51   A    
C3    C60   A    
C40   C42   A    
C49   H45   S    
H47   N8    S    
C32   H8    S    
C4    C56   A    
C29   C31   A    
C41   C43   A    
C71   H29   S    
C2    C6    A    
Cu2   O10   S    
Cu4   O15   S    
Cu1   N1    S    
C76   C83   A    
C91   H50   S    
C17   N9    S    
C14   C45   A    
C46   C48   A    
C9    H33   S    
C5    C89   A    
Cu3   O12   S    
C73   H31   S    
C71   C75   A    
C88   N6    S    
C36   O3    A    
C61   H19   S    
C76   H26   S    
C93   H57   S    
C39   C41   A    
C11   H36   S    
C19   C63   A    
C79   C81   A    
C2    C59   A    
C18   C62   A    
Cu3   O6    S    
C57   N2    S    
C28   C57   A    
C66   C73   A    
H55   N10   S    
C3    C45   A    
C33   O16   A    
C22   C84   A    
Cu4   O8    S    
C34   O11   A    
Cu1   O2    S    
C30   N5    A    
C5    C9    A    
C38   H5    S    
C2    C78   A    
C70   H24   S    
C33   C63   S    
C30   H4    S    
C92   H53   S    
Cu2   N3    S    
C15   N7    S    
C72   C76   A    
C53   H66   S    
C16   C67   A    
C93   H59   S    
C94   H63   S    
C88   H40   S    
C20   H23   S    
C90   H44   S    
C88   H41   S    
C8    H15   S    
C29   H3    S    
C18   C60   A    
C79   H28   S    
H38   N6    S    
H42   N7    S    
C74   C79   A    
C74   H32   S    
C92   H52   S    
C26   C70   A    
C25   C86   A    
C60   H18   S    
C25   C69   A    
C18   H1    S    
C55   N1    A    
C20   C58   A    
C37   C64   S    
C77   H27   S    
H60   N2    S    
C56   C83   A    
C77   C80   A    
C53   N1    A    
C35   O6    A    
Cu3   O13   S    
C28   C48   A    
C94   H62   S    
C21   C65   A    
C36   C65   S    
Cu2   O11   S    
C34   O15   A    
C67   C80   A    
C6    C10   A    
Cu1   Cu3   S    
C75   C82   A    
C57   N3    A    
C92   N9    S    
C47   C49   A    
Cu3   N4    S    
C25   C34   S    
C69   H22   S    
C17   C65   A    
C27   C47   A    
C31   C38   A    
C19   H12   S    
C15   C56   A    
Cu4   O7    S    
C23   O10   A    
C68   H21   S    
C82   C86   A    
C30   C32   A    
C12   O13   A    
C78   C81   A    
Cu1   O9    S    
C5    H11   S    
C14   N6    S    
C50   H56   S    
C37   O8    A    
C4    C61   A    
C48   C50   A    
C17   C78   A    
C35   C62   S    
H51   N9    S    
C58   C89   A    
C90   H46   S    
C88   H39   S    
C90   H43   S    
Cu3   O5    S    
C24   C68   A    
C9    C84   A    
C40   C44   A    
C52   H10   S    
C1    C24   S    
C59   H17   S    
C66   H20   S    
C58   H16   S    
C15   C63   A    
C70   C72   A    
C36   O7    A    
C16   C64   A    
Cu2   O4    S    
C91   H48   S    
C81   C85   A    
C28   H65   S    
C16   N8    S    
