data_mof_unit_3590.cif
_audit_creation_date              2012-10-26T19:46:27-0400
_audit_creation_method            fapswitch 2.2
_symmetry_space_group_name_H-M    P1
_symmetry_Int_Tables_number       1
_space_group_crystal_system       triclinic
_cell_length_a                    10.906878
_cell_length_b                    9.514093
_cell_length_c                    15.126253
_cell_angle_alpha                 90.047759
_cell_angle_beta                  90.146886
_cell_angle_gamma                 90.156151
_cell_volume                      1569.62538679

loop_
_atom_site_label
_atom_site_type_symbol
_atom_type_description
_atom_site_fract_x
_atom_site_fract_y
_atom_site_fract_z
_atom_type_partial_charge
C1    C     C_R   0.261789 0.499856 0.501405 0.567048
C2    C     C_R   0.936289 0.624132 0.481067 0.199275
C3    C     C_R   0.934859 0.380656 0.530358 0.207369
C4    C     C_R   0.062236 0.628364 0.494723 0.210734
C5    C     C_R   0.465354 0.619159 0.094901 -0.126770
C6    C     C_R   0.470330 0.378720 0.904999 -0.126893
C7    C     C_R   0.541556 0.620565 0.904679 -0.125466
C8    C     C_R   0.545267 0.381348 0.095675 -0.127223
C9    C     C_R   0.463894 0.619240 0.186759 -0.142477
C10   C     C_R   0.469171 0.378608 0.813147 -0.142847
C11   C     C_R   0.538997 0.620960 0.812805 -0.137581
C12   C     C_R   0.737595 0.500391 0.501072 0.560679
C13   C     C_R   0.542414 0.380850 0.187524 -0.140721
C14   C     C_R   0.502028 0.499928 0.233507 0.012380
C15   C     C_R   0.502817 0.499955 0.766573 0.011351
C16   C     C_R   0.506179 0.500257 0.048637 0.034167
C17   C     C_R   0.506509 0.499706 0.951494 0.034933
C18   C     C_R   0.870948 0.501574 0.503673 -0.096224
C19   C     C_R   0.127311 0.500194 0.504016 -0.095687
C20   C     C_3   0.139269 0.180947 0.446763 0.035933
C21   C     C_3   0.023924 0.118314 0.403841 -0.251772
C22   C     C_3   0.057506 0.044825 0.317422 -0.493672
C23   C     C_R   0.500422 0.499969 0.329934 0.534825
C24   C     C_3   0.857138 0.738063 0.362120 0.034242
C25   C     C_3   0.759896 0.845859 0.336026 -0.246275
C26   C     C_3   0.736434 0.845123 0.236519 -0.499762
C27   C     C_3   0.844319 0.300453 0.656757 0.031525
C28   C     C_3   0.855840 0.169338 0.713960 -0.265785
C29   C     C_3   0.800108 0.191693 0.805324 -0.498570
C30   C     C_3   0.146944 0.796566 0.584910 0.044821
C31   C     C_3   0.034312 0.849899 0.635376 -0.267580
C32   C     C_3   0.066904 0.879819 0.731829 -0.503821
C33   C     C_R   0.500690 0.500031 0.670095 0.526536
C34   C     C_R   0.445241 0.074054 0.433129 -0.006267
C35   C     C_R   0.557361 0.925876 0.565811 0.016652
C36   C     C_R   0.556656 0.074642 0.566093 0.029423
C37   C     C_R   0.443534 0.925354 0.433816 -0.007395
C38   C     C_R   0.060713 0.373770 0.517508 0.219305
Cu1   Cu    Cu3+1 0.500000 0.640660 0.500000 0.930561
Cu2   Cu    Cu3+1 0.500000 0.359340 0.500000 0.946037
H1    H     H_    0.401184 0.129608 0.379480 0.095351
H2    H     H_    0.440418 0.284233 0.778655 0.123512
H3    H     H_    0.566619 0.715307 0.778013 0.112306
H4    H     H_    0.573341 0.288127 0.222530 0.119348
H5    H     H_    0.203783 0.093257 0.458734 0.162027
H6    H     H_    0.184066 0.254294 0.399309 0.123652
H7    H     H_    0.980349 0.041715 0.449466 0.228083
H8    H     H_    0.957105 0.202772 0.388603 0.160724
H9    H     H_    0.108708 0.117478 0.273370 0.131654
H10   H     H_    0.973342 0.011594 0.282084 0.144605
H11   H     H_    0.114854 0.950925 0.331038 0.172321
H12   H     H_    0.603816 0.870256 0.618393 0.107485
H13   H     H_    0.823567 0.632364 0.340598 0.112006
H14   H     H_    0.944290 0.761425 0.327013 0.138746
H15   H     H_    0.673047 0.820421 0.370324 0.215212
H16   H     H_    0.788834 0.952663 0.357302 0.167509
H17   H     H_    0.821014 0.874241 0.200123 0.137954
H18   H     H_    0.663521 0.922178 0.220262 0.139585
H19   H     H_    0.705925 0.739234 0.214588 0.162265
H20   H     H_    0.747983 0.337547 0.658518 0.157599
H21   H     H_    0.903598 0.383904 0.686965 0.103447
H22   H     H_    0.809280 0.079044 0.681305 0.162945
H23   H     H_    0.601731 0.130729 0.619170 0.111544
H24   H     H_    0.954643 0.144636 0.721405 0.179596
H25   H     H_    0.845398 0.281476 0.839336 0.152795
H26   H     H_    0.813066 0.095585 0.845834 0.139242
H27   H     H_    0.700323 0.212784 0.799482 0.150775
H28   H     H_    0.216271 0.882316 0.583049 0.163278
H29   H     H_    0.189739 0.708563 0.622439 0.132183
H30   H     H_    0.999256 0.947089 0.603629 0.206295
H31   H     H_    0.960388 0.769542 0.634503 0.170434
H32   H     H_    0.106993 0.785001 0.763367 0.146062
H33   H     H_    0.982886 0.908155 0.768940 0.141525
H34   H     H_    0.397515 0.869348 0.381025 0.117108
H35   H     H_    0.133745 0.967883 0.736143 0.157638
H36   H     H_    0.432842 0.711294 0.060114 0.100715
H37   H     H_    0.441036 0.284911 0.939589 0.100781
H38   H     H_    0.571909 0.714348 0.939047 0.098294
H39   H     H_    0.579122 0.289274 0.061511 0.099341
H40   H     H_    0.431771 0.711984 0.221147 0.115012
N1    N     N_R   0.500000 0.852070 0.500000 -0.236400
N2    N     N_R   0.500000 0.147930 0.500000 -0.218915
O1    O     O_R   0.319640 0.618740 0.499990 -0.472350
O2    O     O_3   0.876873 0.745303 0.454469 -0.528318
O3    O     O_3   0.876367 0.266513 0.568424 -0.530135
O4    O     O_3   0.118986 0.758977 0.496119 -0.538827
O5    O     O_R   0.680360 0.381260 0.500010 -0.471687
O6    O     O_R   0.680360 0.618740 0.500010 -0.466881
O7    O     O_R   0.319640 0.381260 0.499990 -0.473926
O8    O     O_R   0.499990 0.618780 0.371460 -0.524196
O9    O     O_R   0.500010 0.381220 0.628540 -0.519746
O10   O     O_R   0.500010 0.618780 0.628540 -0.521069
O11   O     O_R   0.499990 0.381220 0.371460 -0.518432
O12   O     O_3   0.116950 0.244974 0.529876 -0.525084

loop_
_geom_bond_atom_site_label_1
_geom_bond_atom_site_label_2
_ccdc_geom_bond_type
C37   H34   S    
C8    C13   A    
C2    C18   A    
C34   C37   A    
C2    O2    S    
C35   C36   A    
C25   H16   S    
Cu2   O11   S    
C32   H35   S    
C35   N1    A    
C32   H32   S    
C7    C11   A    
Cu2   O5    S    
C28   C29   S    
C27   H20   S    
C33   O9    A    
C30   C31   S    
C10   H2    S    
C24   H14   S    
C3    C18   A    
C27   O3    S    
C5    C16   A    
C27   H21   S    
C29   H27   S    
C4    C19   A    
C11   C15   A    
C31   H30   S    
C3    C38   A    
C36   N2    A    
C16   C17   S    
C7    C17   A    
C8    H39   S    
C11   H3    S    
Cu2   O7    S    
C30   O4    S    
C36   H23   S    
C26   H19   S    
Cu1   O8    S    
C20   H5    S    
C22   H10   S    
C21   H8    S    
C31   H31   S    
C8    C16   A    
C13   C14   A    
C37   N1    A    
C34   H1    S    
Cu1   O6    S    
C1    C19   S    
C12   O6    A    
Cu2   N2    S    
C24   C25   S    
Cu1   N1    S    
C33   O10   A    
Cu1   Cu2   S    
C6    H37   S    
C24   H13   S    
C23   O11   A    
C9    H40   S    
C14   C23   S    
C2    C4    A    
C9    C14   A    
C5    C9    A    
C19   C38   A    
C31   C32   S    
C38   O12   S    
C23   O8    A    
C26   H18   S    
C7    H38   S    
C29   H25   S    
C28   H24   S    
C22   H9    S    
C3    O3    S    
Cu1   O10   S    
C32   H33   S    
C30   H29   S    
C6    C17   A    
C20   O12   S    
C1    O7    A    
C12   O5    A    
C25   H15   S    
C6    C10   A    
C1    O1    A    
C10   C15   A    
C5    H36   S    
C25   C26   S    
Cu1   O1    S    
C35   H12   S    
Cu2   O9    S    
C24   O2    S    
C26   H17   S    
C30   H28   S    
C29   H26   S    
C4    O4    S    
C20   C21   S    
C12   C18   S    
C27   C28   S    
C34   N2    A    
C21   C22   S    
C15   C33   S    
C13   H4    S    
C20   H6    S    
C22   H11   S    
C21   H7    S    
C28   H22   S    
