data_mof_unit_1511.cif
_audit_creation_date              2012-12-11T15:35:40-0500
_audit_creation_method            fapswitch 2.2
_symmetry_space_group_name_H-M    P1
_symmetry_Int_Tables_number       1
_space_group_crystal_system       triclinic
_cell_length_a                    17.55082
_cell_length_b                    24.470848
_cell_length_c                    14.998351
_cell_angle_alpha                 89.905738
_cell_angle_beta                  125.123528
_cell_angle_gamma                 90.303607
_cell_volume                      5268.54385035

loop_
_atom_site_label
_atom_site_type_symbol
_atom_type_description
_atom_site_fract_x
_atom_site_fract_y
_atom_site_fract_z
_atom_type_partial_charge
C1    C     C_R   0.312164 0.126973 0.905488 -0.215886
C2    C     C_R   0.308212 0.878923 0.906454 -0.211395
C3    C     C_R   0.812953 0.627592 0.906418 -0.218447
C4    C     C_R   0.808636 0.378540 0.907283 -0.214235
C5    C     C_R   0.656574 0.148134 0.092549 -0.097019
C6    C     C_R   0.657033 0.852730 0.093328 -0.002554
C7    C     C_R   0.154443 0.649025 0.092713 -0.091674
C8    C     C_R   0.153693 0.351418 0.093668 0.011812
C9    C     C_R   0.566989 0.850970 0.911104 -0.020422
C10   C     C_R   0.566288 0.149259 0.910729 0.002538
C11   C     C_R   0.061947 0.348614 0.912343 -0.037322
C12   C     C_R   0.061890 0.651116 0.911581 0.003669
C13   C     C_R   0.461724 0.000240 0.648408 -0.105615
C14   C     C_R   0.042817 0.500156 0.717965 -0.089695
C15   C     C_R   0.823858 0.001053 0.287871 0.233556
C16   C     C_R   0.323740 0.501075 0.287487 0.218872
C17   C     C_R   0.633785 0.176685 0.002028 0.081833
C18   C     C_R   0.633633 0.824026 0.003211 0.181956
C19   C     C_R   0.128707 0.678967 0.002544 0.074991
C20   C     C_R   0.126694 0.320771 0.004325 0.177587
C21   C     C_3   0.038343 0.975800 0.575223 0.061677
C22   C     C_3   0.066662 0.060906 0.503781 0.107266
C23   C     C_3   0.537343 0.477527 0.576268 0.053208
C24   C     C_3   0.567112 0.560886 0.501968 0.107633
C25   C     C_3   0.939142 0.967456 0.474498 0.248263
C26   C     C_3   0.961263 0.061983 0.417223 0.135914
C27   C     C_3   0.437897 0.469299 0.475745 0.258119
C28   C     C_3   0.461760 0.562267 0.414854 0.139478
C29   C     C_3   0.087289 0.968186 0.440604 0.749530
C30   C     C_3   0.586524 0.466742 0.442383 0.750932
C31   C     C_3   0.100151 0.000449 0.539723 -0.131126
C32   C     C_3   0.599617 0.500506 0.540161 -0.134281
C33   C     C_3   0.924117 0.001817 0.377151 -0.267143
C34   C     C_3   0.423808 0.501999 0.377130 -0.257466
C35   C     C_R   0.400149 0.874189 0.089092 0.521550
C36   C     C_R   0.403660 0.129885 0.088907 0.501817
C37   C     C_R   0.902045 0.373398 0.090249 0.481181
C38   C     C_R   0.906542 0.631243 0.090335 0.472129
C39   C     C_3   0.981735 0.974134 0.338190 0.602047
C40   C     C_3   0.481308 0.472701 0.339579 0.596330
C41   C     C_R   0.257497 0.772196 0.944500 -0.286079
C42   C     C_R   0.183256 0.179947 0.978778 -0.192208
C43   C     C_R   0.765127 0.270398 0.949655 -0.280455
C44   C     C_R   0.688558 0.682683 0.982863 -0.211448
C45   C     C_R   0.724433 0.223958 0.953929 0.526177
C46   C     C_R   0.642008 0.726407 0.986871 0.466447
C47   C     C_R   0.216613 0.726064 0.949781 0.534424
C48   C     C_R   0.135966 0.223069 0.983957 0.462427
C49   C     C_R   0.674384 0.226337 0.000188 -0.277421
C50   C     C_R   0.681566 0.778318 0.004192 -0.266743
C51   C     C_R   0.169741 0.728570 0.000055 -0.269201
C52   C     C_R   0.175569 0.275205 0.004955 -0.260277
C53   C     C_R   0.664543 0.275450 0.042644 0.348099
C54   C     C_R   0.765282 0.788325 0.015647 0.474414
C55   C     C_R   0.163610 0.777679 0.045648 0.339476
C56   C     C_R   0.260073 0.285897 0.018428 0.472039
C57   C     C_R   0.208452 0.824416 0.042006 0.563713
C58   C     C_R   0.306049 0.242798 0.009021 0.431966
C59   C     C_R   0.709300 0.322468 0.040385 0.555080
C60   C     C_R   0.810567 0.744516 0.007424 0.436227
C61   C     C_R   0.254276 0.820515 0.990876 -0.121580
C62   C     C_R   0.267413 0.189837 0.992196 -0.142936
C63   C     C_R   0.758063 0.318775 0.992896 -0.110883
C64   C     C_R   0.771861 0.691842 0.994017 -0.132499
C65   C     C_R   0.583554 0.006494 0.620728 -0.245831
C66   C     C_R   0.422422 0.994749 0.465142 -0.040207
C67   C     C_R   0.110540 0.451717 0.634821 -0.181223
C68   C     C_R   0.111005 0.548718 0.634752 -0.139908
C69   C     C_R   0.613086 0.006178 0.553270 0.589553
C70   C     C_R   0.450669 0.994718 0.396314 0.421554
C71   C     C_R   0.096008 0.450220 0.534073 0.521548
C72   C     C_R   0.097048 0.550049 0.534282 0.511020
C73   C     C_R   0.546755 0.999934 0.441140 -0.215437
C74   C     C_R   0.090930 0.500077 0.481015 -0.142222
C75   C     C_R   0.559584 0.044786 0.307488 0.497459
C76   C     C_R   0.559620 0.955264 0.307450 0.514837
C77   C     C_R   0.060872 0.544731 0.307800 0.534528
C78   C     C_R   0.060085 0.455199 0.307475 0.548348
C79   C     C_R   0.488933 0.000603 0.576061 0.035713
C80   C     C_R   0.095717 0.500223 0.669639 -0.006802
C81   C     C_R   0.246002 0.954652 0.695898 0.005035
C82   C     C_R   0.246211 0.045965 0.697849 -0.157135
C83   C     C_R   0.745342 0.454594 0.696461 0.018566
C84   C     C_R   0.745814 0.545994 0.698199 -0.148761
C85   C     C_R   0.318233 0.144267 0.996049 0.001746
C86   C     C_R   0.311433 0.863812 0.996655 0.092745
C87   C     C_R   0.821026 0.645778 0.997896 -0.013883
C88   C     C_R   0.813207 0.362885 0.998266 0.076963
C89   C     C_R   0.576580 0.999996 0.370351 -0.021190
C90   C     C_R   0.069059 0.499968 0.369245 -0.151668
C91   C     C_R   0.197433 0.000456 0.636925 0.261157
C92   C     C_R   0.696776 0.500450 0.637553 0.269699
C93   C     C_R   0.466006 0.045373 0.704586 0.436470
C94   C     C_R   0.465713 0.954870 0.704256 0.401126
C95   C     C_R   0.009633 0.545866 0.741442 0.429260
C96   C     C_R   0.009395 0.454295 0.741414 0.396975
C97   C     C_R   0.768423 0.954373 0.256068 0.011647
C98   C     C_R   0.767112 0.046523 0.251000 0.019112
C99   C     C_R   0.268373 0.454360 0.256026 0.023720
C100  C     C_R   0.266977 0.546502 0.250083 0.030988
H1    H     H_    0.258323 0.136213 0.821272 0.159226
H2    H     H_    0.251754 0.871979 0.822152 0.178554
H3    H     H_    0.758857 0.637008 0.822366 0.158045
H4    H     H_    0.751951 0.371329 0.823182 0.176850
H5    H     H_    0.038184 0.006022 0.630914 0.191700
H6    H     H_    0.081571 0.084295 0.576033 0.144305
H7    H     H_    0.537769 0.508644 0.631027 0.187381
H8    H     H_    0.582010 0.585221 0.573215 0.142414
H9    H     H_    0.929319 0.923454 0.451950 0.151679
H10   H     H_    0.946039 0.087445 0.347364 0.145028
H11   H     H_    0.427020 0.425078 0.454821 0.153275
H12   H     H_    0.447045 0.586650 0.344029 0.143622
H13   H     H_    0.296364 0.769690 0.908760 0.224690
H14   H     H_    0.155392 0.138811 0.965700 0.212052
H15   H     H_    0.806229 0.268297 0.916699 0.224885
H16   H     H_    0.660749 0.641682 0.972289 0.204053
H17   H     H_    0.634037 0.011097 0.707991 0.190110
H18   H     H_    0.349287 0.990529 0.432719 0.198244
H19   H     H_    0.115602 0.413715 0.674433 0.218950
H20   H     H_    0.116461 0.586769 0.674323 0.241324
H21   H     H_    0.232992 0.912654 0.668693 0.197059
H22   H     H_    0.236142 0.088185 0.672568 0.165037
H23   H     H_    0.731888 0.412540 0.669685 0.188934
H24   H     H_    0.735688 0.588222 0.672959 0.155590
H25   H     H_    0.790647 0.912473 0.276312 0.149975
H26   H     H_    0.786714 0.088877 0.260498 0.139740
H27   H     H_    0.290403 0.412422 0.276379 0.155134
H28   H     H_    0.286427 0.588843 0.258398 0.141862
H29   H     H_    0.698136 0.162570 0.175899 0.169155
H30   H     H_    0.700704 0.839452 0.177247 0.137790
H31   H     H_    0.196622 0.662908 0.176427 0.171145
H32   H     H_    0.197736 0.338821 0.178005 0.139519
H33   H     H_    0.529235 0.835558 0.829052 0.188012
H34   H     H_    0.526246 0.165059 0.828994 0.182688
H35   H     H_    0.020289 0.331908 0.831181 0.191538
H36   H     H_    0.018217 0.667931 0.830772 0.180728
N1    N     N_R   0.392140 0.102630 0.941800 -0.077677
N2    N     N_R   0.392140 0.897370 0.941800 -0.074616
N3    N     N_R   0.892140 0.602630 0.941800 -0.077966
N4    N     N_R   0.892140 0.397370 0.941800 -0.075068
N5    N     N_R   0.450890 0.896450 0.057150 -0.103643
N6    N     N_R   0.450890 0.103550 0.057150 -0.105932
N7    N     N_R   0.950890 0.396450 0.057150 -0.101137
N8    N     N_R   0.950890 0.603550 0.057150 -0.104167
N9    N     N_R   0.525160 0.027960 0.206160 -0.133749
N10   N     N_R   0.525160 0.972040 0.206160 -0.133939
N11   N     N_R   0.025160 0.527960 0.206160 -0.149834
N12   N     N_R   0.025160 0.472040 0.206160 -0.151412
N13   N     N_R   0.317870 0.971120 0.792790 -0.077056
N14   N     N_R   0.317870 0.028880 0.792790 -0.058719
N15   N     N_R   0.817870 0.471120 0.792790 -0.078337
N16   N     N_R   0.817870 0.528880 0.792790 -0.059357
N17   N     N_R   0.473480 0.027920 0.793480 -0.120544
N18   N     N_R   0.473480 0.972080 0.793480 -0.121156
N19   N     N_R   0.973480 0.527920 0.793480 -0.108165
N20   N     N_R   0.973480 0.472080 0.793480 -0.108266
N21   N     N_R   0.681610 0.971120 0.207570 -0.073227
N22   N     N_R   0.681610 0.028880 0.207570 -0.064436
N23   N     N_R   0.181610 0.471120 0.207570 -0.066119
N24   N     N_R   0.181610 0.528880 0.207570 -0.056836
N25   N     N_R   0.605410 0.102620 0.056870 -0.065237
N26   N     N_R   0.605410 0.897380 0.056870 -0.075053
N27   N     N_R   0.105410 0.602620 0.056870 -0.065972
N28   N     N_R   0.105410 0.397380 0.056870 -0.075874
N29   N     N_R   0.549680 0.896430 0.944180 -0.065314
N30   N     N_R   0.549680 0.103570 0.944180 -0.060138
N31   N     N_R   0.049680 0.396430 0.944180 -0.072358
N32   N     N_R   0.049680 0.603570 0.944180 -0.067465
Ni1   Ni    Ni4+2 0.433410 0.064680 0.868830 0.254325
Ni2   Ni    Ni4+2 0.433410 0.935320 0.868830 0.273290
Ni3   Ni    Ni4+2 0.933410 0.564680 0.868830 0.250245
Ni4   Ni    Ni4+2 0.933410 0.435320 0.868830 0.267845
Ni5   Ni    Ni4+2 0.565650 0.934380 0.131170 0.312395
Ni6   Ni    Ni4+2 0.565650 0.065620 0.131170 0.311395
Ni7   Ni    Ni4+2 0.065650 0.434380 0.131170 0.305750
Ni8   Ni    Ni4+2 0.065650 0.565620 0.131170 0.305901
Cl1   Cl    Cl    0.857485 0.979645 0.508228 -0.436558
Cl2   Cl    Cl    0.908120 0.097922 0.473718 -0.490939
Cl3   Cl    Cl    0.356475 0.484154 0.509023 -0.485756
Cl4   Cl    Cl    0.409102 0.600386 0.469567 -0.504510
O1    O     O_3   0.112419 0.912725 0.468440 -0.715869
H37   H     H_    0.065916 0.893880 0.475050 0.364019
O2    O     O_3   0.148207 0.990507 0.417367 -0.656757
H38   H     H_    0.144522 0.966882 0.361193 0.364526
O3    O     O_3   0.610572 0.411320 0.472046 -0.721026
H39   H     H_    0.563718 0.393440 0.479258 0.363020
O4    O     O_3   0.648010 0.487582 0.418732 -0.640181
H40   H     H_    0.643966 0.463095 0.363378 0.367934
O5    O     O_3   0.944104 0.921975 0.294823 -0.747713
H41   H     H_    0.974910 0.908120 0.260830 0.386125
O6    O     O_3   0.972874 0.005214 0.252934 -0.694479
H42   H     H_    0.010441 0.039063 0.282744 0.365779
O7    O     O_3   0.443148 0.420413 0.297980 -0.751038
H43   H     H_    0.473783 0.405600 0.264459 0.384560
O8    O     O_3   0.473179 0.502486 0.253415 -0.703384
H44   H     H_    0.511394 0.536152 0.282163 0.364095
Cl5   Cl    Cl    0.742628 0.162886 0.905788 -0.504879
Cl6   Cl    Cl    0.535847 0.715240 0.971888 -0.532046
Cl7   Cl    Cl    0.231484 0.665051 0.898313 -0.547338
Cl8   Cl    Cl    0.028846 0.210843 0.965985 -0.514298
O9    O     O_3   0.612919 0.279010 0.085605 -0.699398
H45   H     H_    0.575056 0.245567 0.068567 0.349700
O10   O     O_3   0.798576 0.841501 0.031588 -0.704132
H46   H     H_    0.859355 0.842221 0.041389 0.388371
O11   O     O_3   0.115684 0.781519 0.093194 -0.695065
H47   H     H_    0.079291 0.747810 0.079719 0.355602
O12   O     O_3   0.293389 0.339170 0.037112 -0.713485
H48   H     H_    0.354461 0.340480 0.047704 0.385890
O13   O     O_3   0.209531 0.873933 0.087130 -0.663094
H49   H     H_    0.176288 0.870357 0.122280 0.389296
O14   O     O_3   0.387903 0.253561 0.018287 -0.722464
H50   H     H_    0.402124 0.223337 0.986554 0.322322
O15   O     O_3   0.707110 0.372112 0.082870 -0.700945
H51   H     H_    0.671835 0.368320 0.115503 0.385429
O16   O     O_3   0.891603 0.754350 0.014302 -0.722323
H52   H     H_    0.905916 0.723032 0.984919 0.323350
Cl9   Cl    Cl    0.443559 0.844623 0.216350 -0.508345
Cl10  Cl    Cl    0.447299 0.155664 0.219020 -0.511814
Cl11  Cl    Cl    0.950498 0.341505 0.216485 -0.479071
Cl12  Cl    Cl    0.957965 0.660476 0.219481 -0.479504
Cl13  Cl    Cl    0.732776 0.013851 0.611544 -0.383699
Cl14  Cl    Cl    0.363366 0.988991 0.255142 -0.568638
Cl15  Cl    Cl    0.050964 0.386432 0.470062 -0.417735
Cl16  Cl    Cl    0.054532 0.614023 0.470945 -0.401636
Cl17  Cl    Cl    0.638039 0.100089 0.366629 -0.418650
Cl18  Cl    Cl    0.636145 0.899600 0.366421 -0.485899
Cl19  Cl    Cl    0.151651 0.593762 0.363120 -0.426467
Cl20  Cl    Cl    0.148316 0.405149 0.361945 -0.491621
Cl21  Cl    Cl    0.430092 0.110571 0.646903 -0.573950
Cl22  Cl    Cl    0.429521 0.889563 0.646391 -0.579795
Cl23  Cl    Cl    0.969569 0.606689 0.665159 -0.572382
Cl24  Cl    Cl    0.968314 0.393450 0.664768 -0.579246
O17   O     O_3   0.072100 0.925927 0.631518 -0.755763
H53   H     H_    0.041993 0.919865 0.670075 0.376729
O18   O     O_3   0.114156 0.086548 0.464874 -0.672398
H54   H     H_    0.104462 0.126488 0.464980 0.361195
O19   O     O_3   0.570383 0.428041 0.634220 -0.758045
H55   H     H_    0.539812 0.422953 0.672484 0.372882
O20   O     O_3   0.615438 0.585084 0.462814 -0.672897
H56   H     H_    0.606105 0.625161 0.461197 0.357867

loop_
_geom_bond_atom_site_label_1
_geom_bond_atom_site_label_2
_ccdc_geom_bond_type
C58   C62   A    
C38   C87   A    
N5    Ni5   S    
N1    N6    A    
C13   C79   S    
C68   C80   A    
N21   N22   A    
C65   C79   A    
C99   N23   A    
C63   C88   S    
N2    Ni2   S    
N17   Ni1   S    
O9    H45   S    
C37   C88   A    
N11   N12   A    
N4    N7    A    
C41   C61   A    
C6    H30   S    
C82   H22   S    
N9    N10   A    
C53   C59   A    
C43   C63   A    
N6    Ni6   S    
N26   Ni5   S    
C54   C60   A    
O11   H47   S    
C44   C64   A    
C83   C92   A    
C21   C31   S    
C94   Cl22  S    
C50   C54   A    
C29   O1    S    
C48   Cl8   S    
N19   Ni3   S    
C34   C40   S    
C78   N12   A    
C60   O16   S    
C27   Cl3   S    
C28   H12   S    
C11   H35   S    
N23   N24   A    
C23   O19   S    
C35   C86   A    
C81   N13   A    
C46   Cl6   S    
N14   Ni1   S    
C5    C17   A    
C2    H2    S    
C10   C17   A    
C45   Cl5   S    
C54   O10   S    
C72   Cl16  S    
N10   Ni5   S    
O1    H37   S    
N29   Ni2   S    
C93   Cl21  S    
N18   Ni2   S    
N28   Ni7   S    
C36   N6    A    
C16   C34   S    
C42   H14   S    
N32   Ni3   S    
C21   O17   S    
O20   H56   S    
C68   H20   S    
C8    H32   S    
C12   H36   S    
O18   H54   S    
N3    Ni3   S    
C24   H8    S    
C23   C27   S    
C29   O2    S    
O17   H53   S    
C77   N11   A    
C64   C87   S    
C69   Cl13  S    
N25   N30   A    
C68   C72   A    
C76   C89   A    
C43   H15   S    
C95   N19   A    
C5    H29   S    
N15   N16   A    
C27   H11   S    
N4    Ni4   S    
N23   Ni7   S    
O19   H55   S    
C11   N31   A    
N24   Ni8   S    
C47   Cl7   S    
C15   C97   A    
C55   O11   S    
N27   Ni8   S    
C35   Cl9   S    
C14   C96   A    
C44   C46   A    
C83   N15   A    
C40   O7    S    
C26   Cl2   S    
C27   C34   S    
C78   Cl20  S    
C6    C18   A    
C62   C85   S    
C57   O13   S    
C77   C90   A    
N15   Ni4   S    
N12   Ni7   S    
C71   Cl15  S    
C22   C31   S    
C76   Cl18  S    
O12   H48   S    
C2    N2    A    
C30   O3    S    
C98   N22   A    
C75   Cl17  S    
C97   H25   S    
C8    N28   A    
C36   Cl10  S    
N16   Ni3   S    
N11   Ni8   S    
C16   C100  A    
C47   C51   A    
C51   C55   A    
O15   H51   S    
C3    C87   A    
C11   C20   A    
N20   Ni4   S    
C75   N9    A    
C82   C91   A    
N13   Ni2   S    
C13   C93   A    
C5    N25   A    
C42   C48   A    
O16   H52   S    
C24   C32   S    
O2    H38   S    
C66   C79   A    
C38   Cl12  S    
C4    N4    A    
N26   N29   A    
C39   O6    S    
N3    N8    A    
C100  N24   A    
C26   C33   S    
O14   H50   S    
C32   C92   S    
C45   C49   A    
C94   N18   A    
C23   H7    S    
N8    Ni8   S    
C70   C73   A    
O13   H49   S    
C41   C47   A    
C30   C40   S    
C33   C39   S    
N9    Ni6   S    
C69   C73   A    
C43   C45   A    
C28   Cl4   S    
C82   N14   A    
C24   O20   S    
C42   C62   A    
C26   H10   S    
C84   N16   A    
C72   C74   A    
C22   O18   S    
C8    C20   A    
C35   N5    A    
C77   Cl19  S    
C7    C19   A    
C14   C80   S    
C55   C57   A    
C66   H18   S    
C36   C85   A    
C59   C63   A    
C1    C85   A    
C3    N3    A    
C37   Cl11  S    
C15   C98   A    
C17   C49   S    
C1    H1    S    
C14   C95   A    
C1    N1    A    
C18   C50   S    
C98   H26   S    
C3    H3    S    
C29   C39   S    
C65   C69   A    
C21   C25   S    
C37   N7    A    
C100  H28   S    
C38   N8    A    
N1    Ni1   S    
N28   N31   A    
C6    N26   A    
C67   C80   A    
C24   C28   S    
C95   Cl23  S    
N2    N5    A    
N22   Ni6   S    
C12   N32   A    
C71   C74   A    
C99   H27   S    
C59   O15   S    
C16   C99   A    
C57   C61   A    
N31   Ni4   S    
C4    C88   A    
C25   H9    S    
C10   N30   A    
C84   H24   S    
C46   C50   A    
C31   C91   S    
C13   C94   A    
C60   C64   A    
C30   O4    S    
C74   C90   S    
C93   N17   A    
N27   N32   A    
C41   H13   S    
C73   C89   S    
O4    H40   S    
C29   C31   S    
C22   H6    S    
N13   N14   A    
C23   C32   S    
C30   C32   S    
N25   Ni6   S    
C81   H21   S    
O3    H39   S    
C96   N20   A    
C56   O12   S    
C7    N27   A    
C78   C90   A    
C39   O5    S    
N7    Ni7   S    
C4    H4    S    
C12   C19   A    
C9    N29   A    
C70   Cl14  S    
C56   C58   A    
C2    C86   A    
C67   C71   A    
C96   Cl24  S    
C58   O14   S    
O5    H41   S    
O6    H42   S    
C53   O9    S    
C49   C53   A    
C25   C33   S    
C61   C86   S    
C75   C89   A    
C28   C34   S    
O8    H44   S    
C81   C91   A    
C19   C51   S    
C9    C18   A    
C48   C52   A    
C10   H34   S    
C66   C70   A    
C44   H16   S    
N30   Ni1   S    
C20   C52   S    
O7    H43   S    
C22   C26   S    
N21   Ni5   S    
N19   N20   A    
C76   N10   A    
C65   H17   S    
C84   C92   A    
O10   H46   S    
C83   H23   S    
N17   N18   A    
C25   Cl1   S    
C67   H19   S    
C15   C33   S    
C21   H5    S    
C7    H31   S    
C52   C56   A    
C97   N21   A    
C40   O8    S    
C9    H33   S    
