data_mof_unit_3332.cif
_audit_creation_date              2013-03-05T16:06:01-0500
_audit_creation_method            fapswitch 2.2
_symmetry_space_group_name_H-M    P1
_symmetry_Int_Tables_number       1
_space_group_crystal_system       triclinic
_cell_length_a                    10.821769
_cell_length_b                    9.482394
_cell_length_c                    23.585772
_cell_angle_alpha                 89.988314
_cell_angle_beta                  90.437468
_cell_angle_gamma                 89.985365
_cell_volume                      2420.21344532

loop_
_atom_site_label
_atom_site_type_symbol
_atom_site_description
_atom_site_fract_x
_atom_site_fract_y
_atom_site_fract_z
_atom_type_partial_charge
O1    O     O_R   0.319640 0.618740 0.500000 -0.592821
O2    O     O_R   0.680360 0.381260 0.500000 -0.600057
O3    O     O_R   0.680360 0.618740 0.500000 -0.592757
O4    O     O_R   0.319640 0.381260 0.500000 -0.597746
C1    C     C_R   0.261960 0.499986 0.499976 0.777639
C2    C     C_R   0.738031 0.499966 0.499968 0.775223
O5    O     O_R   0.499960 0.618810 0.417880 -0.585345
O6    O     O_R   0.500040 0.381190 0.582120 -0.531969
O7    O     O_R   0.500040 0.618810 0.582120 -0.584777
O8    O     O_R   0.499960 0.381190 0.417880 -0.531350
C3    C     C_R   0.499520 0.500088 0.390677 0.857240
C4    C     C_R   0.500748 0.500006 0.609163 0.860425
Cu1   Cu    Cu3+1 0.500000 0.640660 0.500000 0.930087
Cu2   Cu    Cu3+1 0.500000 0.359340 0.500000 0.964472
C5    C     C_R   0.604624 0.451621 0.879367 0.612674
C6    C     C_R   0.390372 0.484123 0.119714 0.617498
N1    N     N_R   0.494819 0.474326 0.851735 -0.434595
N2    N     N_R   0.501689 0.475285 0.147422 -0.435472
C7    C     C_R   0.386589 0.489259 0.880351 0.523800
C8    C     C_R   0.609701 0.458400 0.118734 0.522009
C9    C     C_R   0.385791 0.485359 0.939647 -0.047678
C10   C     C_R   0.609290 0.451915 0.059454 -0.047579
C11   C     C_R   0.497723 0.466684 0.969537 -0.054342
C12   C     C_R   0.497011 0.467342 0.029556 -0.054709
C13   C     C_R   0.609993 0.448179 0.939454 -0.046339
C14   C     C_R   0.384608 0.484453 0.059634 -0.047074
C15   C     C_R   0.275082 0.502155 0.969158 -0.153811
C16   C     C_R   0.719604 0.431781 0.029956 -0.154570
C17   C     C_R   0.272234 0.502253 0.028443 0.143088
C18   C     C_R   0.722054 0.428251 0.970674 0.144495
O9    O     O_2   0.707234 0.432949 0.848237 -0.527358
O10   O     O_2   0.286561 0.491612 0.150759 -0.523220
O11   O     O_2   0.280121 0.510071 0.851305 -0.561712
O12   O     O_2   0.717602 0.449719 0.147653 -0.562689
H1    H     H_    0.189408 0.516372 0.945733 0.187489
H2    H     H_    0.805394 0.418591 0.053390 0.186755
C19   C     C_R   0.543115 0.370079 0.240387 -0.264557
C20   C     C_R   0.439147 0.378597 0.758784 -0.265657
H3    H     H_    0.571327 0.273816 0.219377 0.183596
H4    H     H_    0.397163 0.289117 0.779729 0.181386
C21   C     C_R   0.546178 0.377072 0.299367 0.364670
C22   C     C_R   0.437654 0.386203 0.699809 0.364427
C23   C     C_R   0.502285 0.499091 0.327640 -0.225576
C24   C     C_R   0.497829 0.498923 0.671908 -0.220815
C25   C     C_R   0.461512 0.616918 0.294822 -0.020146
C26   C     C_R   0.554979 0.607238 0.704636 -0.016895
C27   C     C_R   0.468928 0.611072 0.235122 0.487962
C28   C     C_R   0.547927 0.602013 0.764349 0.489223
C29   C     C_R   0.505047 0.485648 0.208224 0.162788
C30   C     C_R   0.493646 0.485187 0.791019 0.166939
C31   C     C_R   0.063832 0.372004 0.496437 -0.192398
C32   C     C_R   0.936137 0.627815 0.503286 -0.186154
C33   C     C_R   0.936068 0.371973 0.496474 -0.193513
C34   C     C_R   0.063892 0.627823 0.503295 -0.188021
H5    H     H_    0.111916 0.272080 0.493584 0.144574
H6    H     H_    0.888042 0.727762 0.506065 0.146395
H7    H     H_    0.887919 0.272031 0.493704 0.146434
H8    H     H_    0.112031 0.727775 0.506051 0.148116
C35   C     C_R   0.871795 0.499898 0.499906 -0.012463
C36   C     C_R   0.128181 0.499921 0.499925 -0.012615
C37   C     C_R   0.416850 0.074608 0.467646 -0.002521
C38   C     C_R   0.583459 0.925450 0.532181 -0.028481
C39   C     C_R   0.583211 0.074515 0.532323 -0.014228
C40   C     C_R   0.416636 0.925548 0.467771 -0.029702
H9    H     H_    0.350439 0.131071 0.441720 0.126247
H10   H     H_    0.650444 0.869064 0.557793 0.118708
H11   H     H_    0.649709 0.130910 0.558202 0.125765
H12   H     H_    0.349769 0.869249 0.442097 0.119270
N3    N     N_R   0.500000 0.852070 0.500000 -0.155542
N4    N     N_R   0.500000 0.147930 0.500000 -0.162530
C41   C     C_3   0.148011 0.524890 0.055923 -0.743204
H13   H     H_    0.150803 0.620454 0.083087 0.266314
H14   H     H_    0.073106 0.541944 0.024219 0.193783
H15   H     H_    0.122216 0.430679 0.081143 0.258201
C42   C     C_3   0.845993 0.403504 0.943229 -0.747124
H16   H     H_    0.872292 0.496507 0.917398 0.265438
H17   H     H_    0.920902 0.386957 0.974973 0.193849
H18   H     H_    0.842444 0.306927 0.916672 0.257845
O13   O     O_3   0.585617 0.259530 0.329112 -0.557133
C43   C     C_3   0.714447 0.270078 0.338001 0.105287
H19   H     H_    0.739236 0.370144 0.360185 0.127053
H20   H     H_    0.764289 0.264681 0.296905 0.152638
C44   C     C_3   0.757193 0.147800 0.375020 -0.770190
H21   H     H_    0.736361 0.046010 0.353699 0.240704
H22   H     H_    0.858363 0.155362 0.382641 0.191086
H23   H     H_    0.709171 0.150917 0.416449 0.260960
O14   O     O_3   0.383097 0.277508 0.669639 -0.556395
C45   C     C_3   0.257933 0.312005 0.659613 0.103576
H24   H     H_    0.249143 0.413043 0.635734 0.124429
H25   H     H_    0.206876 0.320586 0.700316 0.153732
C46   C     C_3   0.198467 0.196038 0.624197 -0.768141
H26   H     H_    0.202211 0.094361 0.647527 0.242653
H27   H     H_    0.100386 0.222961 0.615182 0.197547
H28   H     H_    0.248096 0.184326 0.583424 0.259271
C47   C     C_3   0.406509 0.746838 0.322136 -0.751668
H29   H     H_    0.331675 0.715702 0.351550 0.221032
H30   H     H_    0.479527 0.806247 0.345215 0.234290
H31   H     H_    0.364261 0.820263 0.290937 0.259876
C48   C     C_3   0.626717 0.725212 0.676896 -0.768650
H32   H     H_    0.681568 0.787905 0.707779 0.259786
H33   H     H_    0.693238 0.681150 0.645949 0.219741
H34   H     H_    0.561904 0.798541 0.655212 0.232600
O15   O     O_3   0.433569 0.725469 0.202366 -0.558213
C49   C     C_3   0.538658 0.809989 0.192540 0.041876
H35   H     H_    0.608816 0.751153 0.167594 0.163565
H36   H     H_    0.581181 0.846143 0.233213 0.151290
C50   C     C_3   0.500251 0.939735 0.158815 -0.750097
H37   H     H_    0.431395 0.001853 0.183001 0.253361
H38   H     H_    0.582226 0.007058 0.150741 0.201809
H39   H     H_    0.458956 0.907443 0.117557 0.251969
O16   O     O_3   0.600679 0.706961 0.797306 -0.559407
C51   C     C_3   0.510802 0.812021 0.807058 0.037835
H40   H     H_    0.430615 0.768217 0.830563 0.166414
H41   H     H_    0.477501 0.858902 0.766386 0.155520
C52   C     C_3   0.567818 0.929115 0.842698 -0.740972
H42   H     H_    0.647450 0.976280 0.820103 0.255953
H43   H     H_    0.498038 0.012659 0.850525 0.199928
H44   H     H_    0.600094 0.886160 0.884057 0.250378

loop_
_geom_bond_atom_site_label_1
_geom_bond_atom_site_label_2
_geom_bond_distance
_ccdc_geom_bond_type
C37   N4    1.365811 A    
O14   C45   1.411537 S    
C15   C17   1.398868 A    
C21   C23   1.419120 A    
C47   H29   1.110357 S    
C26   C48   1.513305 S    
O3    C2    1.287487 A    
C49   H36   1.114914 S    
C33   C35   1.400803 A    
C47   H31   1.108956 S    
C27   C29   1.404850 A    
C34   C36   1.400616 A    
O5    C3    1.295865 A    
O1    C1    1.287645 A    
C40   H12   1.081161 S    
C7    C9    1.399094 A    
C12   C14   1.422103 A    
C20   C22   1.392809 A    
C5    C13   1.418314 A    
C52   H42   1.110748 S    
C19   C29   1.393109 A    
O7    Cu1   1.947869 S    
C51   H40   1.113707 S    
C44   H21   1.110826 S    
C32   C34   1.382540 A    
C52   H43   1.110761 S    
C50   H37   1.110849 S    
C39   N4    1.365897 A    
C3    C23   1.487347 S    
C31   H5    1.083238 S    
O3    Cu1   1.962797 S    
C8    O12   1.350281 S    
C28   C30   1.404859 A    
C9    C15   1.399244 A    
C10   C16   1.399374 A    
Cu1   Cu2   2.667587 S    
O4    Cu2   1.962798 S    
Cu2   N4    2.004674 S    
O2    C2    1.287205 A    
C22   C24   1.416391 A    
C43   C44   1.521149 S    
C51   H41   1.114514 S    
C49   H35   1.113844 S    
C42   H18   1.110110 S    
C24   C26   1.423591 A    
C26   C28   1.411892 A    
C25   C27   1.412076 A    
C6    C14   1.417928 A    
C39   H11   1.081674 S    
C27   O15   1.383807 S    
C38   H10   1.081316 S    
O16   C51   1.412221 S    
C43   H20   1.114011 S    
O8    Cu2   1.947869 S    
C46   H26   1.110592 S    
C41   H14   1.110414 S    
C33   H7    1.083347 S    
C43   H19   1.115466 S    
C15   H1    1.084022 S    
C38   N3    1.366039 A    
C31   C33   1.382637 A    
C37   C40   1.413454 A    
C42   H16   1.110168 S    
C38   C39   1.413498 A    
C32   C35   1.400746 A    
C46   H27   1.110574 S    
C42   H17   1.110380 S    
C48   H32   1.109088 S    
C45   C46   1.521060 S    
O6    C4    1.294790 A    
C52   H44   1.110864 S    
C28   O16   1.383574 S    
C44   H23   1.110631 S    
C40   N3    1.366073 A    
C49   C50   1.520990 S    
C23   C25   1.426995 A    
C6    N2    1.368649 A    
C48   H33   1.110648 S    
C45   H25   1.114301 S    
C9    C11   1.407984 A    
C7    O11   1.350392 S    
C50   H39   1.110834 S    
C10   C12   1.407770 A    
C31   C36   1.400916 A    
O1    Cu1   1.962903 S    
C25   C47   1.514204 S    
C34   H8    1.083361 S    
C13   C18   1.426431 A    
C5    N1    1.367875 A    
O6    Cu2   1.947953 S    
C1    C36   1.447713 S    
C44   H22   1.110482 S    
C2    C35   1.447565 S    
C8    C10   1.399495 A    
O4    C1    1.287127 A    
N1    C30   1.435671 S    
C21   O13   1.382572 S    
C41   H15   1.110073 S    
C47   H30   1.109881 S    
C5    O9    1.347549 S    
C20   C30   1.393274 A    
C6    O10   1.347524 S    
C16   C18   1.399082 A    
C41   H13   1.110177 S    
C19   H3    1.083666 S    
C46   H28   1.110621 S    
C20   H4    1.083438 S    
C18   C42   1.512006 S    
C50   H38   1.110674 S    
Cu1   N3    2.004673 S    
N1    C7    1.363614 A    
N2    C8    1.364469 A    
C11   C13   1.422484 A    
C19   C21   1.392826 A    
O2    Cu2   1.962902 S    
O7    C4    1.294457 A    
O8    C3    1.297092 A    
C11   C12   1.415675 A    
O13   C43   1.411840 S    
C37   H9    1.081688 S    
O5    Cu1   1.947953 S    
C48   H34   1.109557 S    
C45   H24   1.114937 S    
C16   H2    1.084025 S    
C14   C17   1.426448 A    
C4    C24   1.480501 S    
O15   C49   1.412011 S    
C22   O14   1.382546 S    
C51   C52   1.520840 S    
C32   H6    1.083372 S    
N2    C29   1.437619 S    
C17   C41   1.512128 S    
