data_mof_unit_3971.cif
_audit_creation_date              2012-12-10T18:37:56-0500
_audit_creation_method            fapswitch 2.2
_symmetry_space_group_name_H-M    P1
_symmetry_Int_Tables_number       1
_space_group_crystal_system       triclinic
_cell_length_a                    14.962388
_cell_length_b                    15.499163
_cell_length_c                    27.69513
_cell_angle_alpha                 89.758595
_cell_angle_beta                  105.45875
_cell_angle_gamma                 81.8771
_cell_volume                      6122.26121634

loop_
_atom_site_label
_atom_site_type_symbol
_atom_type_description
_atom_site_fract_x
_atom_site_fract_y
_atom_site_fract_z
_atom_type_partial_charge
C1    C     C_R   0.441297 0.662243 0.493451 0.856123
C2    C     C_R   0.421966 0.575269 0.116435 -0.021344
C3    C     C_R   0.653418 0.223124 0.134175 -0.137091
C4    C     C_R   0.607735 0.611015 0.363948 0.200343
C5    C     C_R   0.705828 0.591290 0.375071 -0.118039
C6    C     C_R   0.762583 0.646039 0.404785 -0.151881
C7    C     C_R   0.721913 0.720554 0.423651 -0.112673
C8    C     C_R   0.624371 0.740836 0.412496 -0.132683
C9    C     C_R   0.567270 0.686233 0.382850 -0.128722
C10   C     C_R   0.667131 0.444978 0.676432 0.199347
C11   C     C_R   0.740186 0.494934 0.681699 -0.107071
C12   C     C_R   0.824609 0.458706 0.672272 -0.145663
C13   C     C_R   0.498401 0.515930 0.645854 -0.216465
C14   C     C_R   0.836871 0.372268 0.658189 -0.103964
C15   C     C_R   0.764613 0.322098 0.653371 -0.143709
C16   C     C_R   0.679452 0.358513 0.661790 -0.156698
C17   C     C_3   0.573896 0.695039 0.256162 -0.696886
C18   C     C_3   0.683481 0.370376 0.785362 -0.695286
C19   C     C_3   0.204794 0.101256 0.540898 -0.768262
C20   C     C_3   0.811050 0.848663 0.573625 -0.825340
C21   C     C_R   0.494498 0.499830 0.351855 -0.196694
C22   C     C_R   0.417653 0.584354 0.014119 0.056614
C23   C     C_R   0.466477 0.430455 0.966651 0.057413
C24   C     C_R   0.476639 0.427285 0.018951 0.028696
C25   C     C_R   0.424766 0.590023 0.964228 0.028574
C26   C     C_R   0.449859 0.503913 0.042261 0.072328
C27   C     C_R   0.447149 0.512663 0.940339 0.072185
C28   C     C_R   0.380049 0.656562 0.037103 -0.223534
C29   C     C_R   0.558763 0.337832 0.507167 0.868159
C30   C     C_R   0.475595 0.354113 0.939680 -0.224671
C31   C     C_R   0.381520 0.651683 0.087273 -0.154846
C32   C     C_R   0.474633 0.358797 0.889600 -0.157045
C33   C     C_R   0.500517 0.502903 0.593772 0.875560
C34   C     C_R   0.498368 0.499910 0.405724 0.885294
C35   C     C_R   0.411694 0.670791 0.937765 -0.267260
C36   C     C_R   0.514701 0.350130 0.048813 -0.268016
C37   C     C_R   0.405751 0.754699 0.494930 -0.073261
C38   C     C_R   0.595568 0.245231 0.515896 -0.076515
C39   C     C_R   0.282280 0.873509 0.496485 -0.001034
C40   C     C_R   0.451509 0.517232 0.889975 -0.065872
C41   C     C_R   0.720449 0.127680 0.553837 -0.009718
C42   C     C_R   0.312167 0.784649 0.492459 -0.262660
C43   C     C_R   0.689726 0.216012 0.539590 -0.254313
C44   C     C_R   0.470039 0.812623 0.503008 -0.259470
C45   C     C_R   0.531903 0.186710 0.505930 -0.245594
C46   C     C_R   0.445534 0.899875 0.511922 0.055584
C47   C     C_R   0.557877 0.099849 0.522942 0.068891
C48   C     C_R   0.348929 0.933390 0.505130 0.070967
C49   C     C_R   0.654814 0.067041 0.542452 0.027072
C50   C     C_R   0.515799 0.954778 0.524396 0.026484
C51   C     C_R   0.456107 0.500573 0.094179 -0.065615
C52   C     C_R   0.488557 0.045149 0.519179 0.043293
C53   C     C_R   0.392896 0.078860 0.511810 -0.289378
C54   C     C_R   0.612468 0.921422 0.541405 -0.263906
C55   C     C_R   0.323960 0.024816 0.506257 0.177596
C56   C     C_R   0.682264 0.975615 0.549207 0.187690
C57   C     C_R   0.459176 0.599490 0.816948 0.483945
C58   C     C_R   0.510496 0.426456 0.176253 0.486677
C59   C     C_R   0.847637 0.627425 0.579472 -0.353668
C60   C     C_R   0.158120 0.358823 0.428157 -0.320780
C61   C     C_R   0.756490 0.609150 0.565117 0.022709
C62   C     C_R   0.442080 0.598937 0.864693 -0.070509
C63   C     C_R   0.247285 0.382125 0.439953 -0.000685
C64   C     C_R   0.792993 0.511407 0.505044 -0.040662
C65   C     C_R   0.205774 0.490494 0.493580 -0.052984
C66   C     C_R   0.886666 0.527441 0.517640 -0.012840
C67   C     C_R   0.114653 0.468272 0.484384 -0.004922
C68   C     C_R   0.912633 0.588069 0.555206 0.187979
C69   C     C_R   0.091213 0.402077 0.450045 0.184566
C70   C     C_R   0.954712 0.485678 0.494606 0.071222
C71   C     C_R   0.046915 0.508855 0.507960 0.080230
C72   C     C_R   0.069010 0.570341 0.545188 -0.240200
C73   C     C_R   0.496842 0.423170 0.123882 -0.069934
C74   C     C_R   0.934131 0.420649 0.459355 -0.251463
C75   C     C_R   0.003212 0.608605 0.568522 -0.217189
C76   C     C_R   0.001553 0.379230 0.437979 -0.212082
C77   C     C_R   0.472141 0.444374 0.815742 0.524456
C78   C     C_R   0.428799 0.571879 0.167636 0.521602
C79   C     C_R   0.571103 0.489872 0.735598 0.221496
C80   C     C_R   0.543357 0.551933 0.280449 0.218129
C81   C     C_R   0.577427 0.483749 0.685936 -0.114378
C82   C     C_R   0.547471 0.553343 0.331915 -0.120087
C83   C     C_R   0.416409 0.561839 0.655597 0.200905
C84   C     C_R   0.419173 0.676191 0.888715 0.013761
C85   C     C_R   0.439714 0.444461 0.319582 0.174669
C86   C     C_R   0.409745 0.561568 0.705002 -0.159080
C87   C     C_R   0.435076 0.446021 0.268968 -0.166447
C88   C     C_R   0.485304 0.525429 0.744370 0.192650
C89   C     C_R   0.485439 0.499041 0.249290 0.200564
C90   C     C_3   0.273099 0.673050 0.627854 -0.846921
C91   C     C_3   0.446247 0.304848 0.361179 -0.757966
C92   C     C_R   0.181542 0.899067 0.492234 0.172407
C93   C     C_R   0.118525 0.924625 0.445351 -0.138538
C94   C     C_R   0.023082 0.948509 0.441369 -0.140850
C95   C     C_R   0.524533 0.346931 0.100313 0.012178
C96   C     C_R   0.990053 0.946065 0.483979 -0.102825
C97   C     C_R   0.052293 0.919190 0.530635 -0.138720
C98   C     C_R   0.147848 0.895344 0.534792 -0.162227
C99   C     C_R   0.817199 0.104977 0.586853 0.110114
C100  C     C_R   0.894356 0.124318 0.571196 -0.188737
C101  C     C_R   0.985004 0.104838 0.603114 -0.134765
C102  C     C_R   0.999366 0.066159 0.650742 -0.125138
C103  C     C_R   0.922958 0.047603 0.666809 -0.138531
C104  C     C_R   0.832128 0.067437 0.635204 -0.109065
C105  C     C_R   0.396595 0.763957 0.863332 0.191322
C106  C     C_R   0.466163 0.439583 0.865016 -0.021029
C107  C     C_R   0.314947 0.785140 0.823671 -0.089439
C108  C     C_R   0.293053 0.868328 0.800101 -0.138054
C109  C     C_R   0.351966 0.930964 0.816233 -0.105152
C110  C     C_R   0.432756 0.910582 0.856039 -0.131631
C111  C     C_R   0.454977 0.827433 0.879688 -0.140355
C112  C     C_R   0.559606 0.260856 0.127073 0.190170
C113  C     C_R   0.498447 0.215136 0.144120 -0.090315
C114  C     C_R   0.531339 0.133283 0.168781 -0.132177
C115  C     C_R   0.625060 0.096401 0.176184 -0.108851
C116  C     C_R   0.686000 0.141223 0.158830 -0.135551
H1    H     H_    0.461139 0.210118 0.484178 0.154243
H2    H     H_    0.765973 0.467234 0.476883 0.127821
H3    H     H_    0.300171 0.348264 0.424005 0.131595
H4    H     H_    0.705407 0.638963 0.583596 0.131375
H5    H     H_    0.867301 0.671612 0.609361 0.149699
H6    H     H_    0.141775 0.307212 0.402424 0.141236
H7    H     H_    0.137491 0.589098 0.558120 0.163251
H8    H     H_    0.866887 0.398572 0.448030 0.139417
H9    H     H_    0.346185 0.590033 0.713946 0.160424
H10   H     H_    0.391786 0.404911 0.244345 0.161741
H11   H     H_    0.352630 0.709034 0.103399 0.184447
H12   H     H_    0.539883 0.788616 0.500826 0.158683
H13   H     H_    0.483107 0.298453 0.870594 0.183367
H14   H     H_    0.346844 0.717358 0.016938 0.141505
H15   H     H_    0.481500 0.289602 0.956038 0.140825
H16   H     H_    0.397635 0.731792 0.954868 0.141464
H17   H     H_    0.540166 0.291058 0.033164 0.142045
H18   H     H_    0.365192 0.630119 0.586132 0.232092
H19   H     H_    0.227029 0.707434 0.592864 0.230248
H20   H     H_    0.307216 0.722203 0.652485 0.259482
H21   H     H_    0.228001 0.640865 0.646042 0.245138
H22   H     H_    0.338005 0.411349 0.352474 0.245953
H23   H     H_    0.738589 0.262643 0.549232 0.166428
H24   H     H_    0.400011 0.260256 0.369693 0.221275
H25   H     H_    0.496105 0.318811 0.396785 0.229436
H26   H     H_    0.486007 0.271569 0.336192 0.254973
H27   H     H_    0.143521 0.926787 0.412151 0.121973
H28   H     H_    0.974710 0.968960 0.405254 0.127657
H29   H     H_    0.916226 0.964862 0.480731 0.116410
H30   H     H_    0.026527 0.917027 0.563553 0.143537
H31   H     H_    0.195657 0.874919 0.571099 0.124938
H32   H     H_    0.884301 0.154069 0.534314 0.132758
H33   H     H_    0.044203 0.119859 0.591048 0.135817
H34   H     H_    0.262027 0.739025 0.487116 0.163011
H35   H     H_    0.069672 0.050974 0.675286 0.123196
H36   H     H_    0.934063 0.018190 0.703844 0.127130
H37   H     H_    0.773397 0.053571 0.648317 0.129042
H38   H     H_    0.268711 0.737136 0.810990 0.112764
H39   H     H_    0.230372 0.884277 0.769381 0.120975
H40   H     H_    0.334907 0.995342 0.797967 0.127512
H41   H     H_    0.478139 0.959238 0.868586 0.130675
H42   H     H_    0.517717 0.812315 0.910498 0.126054
H43   H     H_    0.425655 0.243083 0.138435 0.116580
H44   H     H_    0.484162 0.098397 0.182093 0.128260
H45   H     H_    0.369732 0.147952 0.512465 0.159424
H46   H     H_    0.650402 0.033019 0.195259 0.125276
H47   H     H_    0.758466 0.112462 0.164448 0.129621
H48   H     H_    0.701146 0.257290 0.120820 0.126005
H49   H     H_    0.738133 0.533491 0.360860 0.130169
H50   H     H_    0.838127 0.630501 0.413359 0.144138
H51   H     H_    0.765973 0.762740 0.446738 0.130021
H52   H     H_    0.593057 0.799184 0.426569 0.127997
H53   H     H_    0.491764 0.702556 0.374443 0.111778
H54   H     H_    0.731350 0.561925 0.692661 0.119569
H55   H     H_    0.880565 0.497564 0.675979 0.134922
H56   H     H_    0.634668 0.852760 0.549947 0.162622
H57   H     H_    0.902414 0.344059 0.651183 0.135623
H58   H     H_    0.774666 0.254926 0.643248 0.145825
H59   H     H_    0.623619 0.319273 0.657488 0.126082
H60   H     H_    0.622038 0.574951 0.230540 0.224461
H61   H     H_    0.634758 0.726033 0.276583 0.230680
H62   H     H_    0.513894 0.716630 0.272005 0.253291
H63   H     H_    0.553707 0.717887 0.216119 0.238646
H64   H     H_    0.654257 0.496829 0.809063 0.224930
H65   H     H_    0.678716 0.348959 0.822819 0.235245
H66   H     H_    0.757770 0.356452 0.784379 0.232964
H67   H     H_    0.023485 0.654885 0.597228 0.141922
H68   H     H_    0.641096 0.331627 0.756707 0.256386
H69   H     H_    0.208224 0.108668 0.466970 0.221809
H70   H     H_    0.128421 0.125115 0.530859 0.236155
H71   H     H_    0.242940 0.157102 0.553657 0.234705
H72   H     H_    0.221773 0.050896 0.571923 0.246148
H73   H     H_    0.810740 0.961824 0.532394 0.222999
H74   H     H_    0.888887 0.836694 0.584477 0.240189
H75   H     H_    0.785195 0.806144 0.542325 0.240399
H76   H     H_    0.787206 0.832529 0.606836 0.245882
H77   H     H_    0.983212 0.328814 0.411663 0.144855
H78   H     H_    0.229576 0.541588 0.517649 0.138039
N1    N     N_R   0.472814 0.523052 0.793742 -0.341851
N2    N     N_2   0.778967 0.939271 0.557702 -0.289684
N3    N     N_R   0.475536 0.499534 0.196510 -0.342554
N4    N     N_R   0.731710 0.552720 0.528410 -0.091761
N5    N     N_R   0.268290 0.447280 0.471590 -0.098495
N6    N     N_2   0.343181 0.608738 0.615722 -0.286164
N7    N     N_2   0.389842 0.384526 0.336630 -0.305097
N8    N     N_2   0.600128 0.601048 0.260379 -0.312623
N9    N     N_2   0.651491 0.463305 0.776726 -0.311566
N10   N     N_2   0.229122 0.064697 0.497345 -0.298784
O1    O     O_R   0.383110 0.605620 0.485680 -0.625924
O2    O     O_2   0.559790 0.358582 0.207131 -0.560644
O3    O     O_2   0.389464 0.640379 0.188624 -0.576787
O4    O     O_2   0.477921 0.371003 0.789954 -0.578247
O5    O     O_R   0.616890 0.394380 0.514320 -0.613519
O6    O     O_R   0.531900 0.639510 0.503910 -0.618065
O7    O     O_R   0.468100 0.360490 0.496090 -0.620386
O8    O     O_R   0.425620 0.483050 0.562130 -0.603521
O9    O     O_R   0.574380 0.516950 0.437870 -0.608944
O10   O     O_R   0.574410 0.516930 0.580360 -0.608745
O11   O     O_R   0.425590 0.483070 0.419640 -0.618508
O12   O     O_2   0.464799 0.674841 0.794173 -0.560918
Zn1   Zn    Zn3+2 0.400660 0.477380 0.487830 0.940234
Zn2   Zn    Zn3+2 0.599340 0.522620 0.512170 0.953290

loop_
_geom_bond_atom_site_label_1
_geom_bond_atom_site_label_2
_ccdc_geom_bond_type
C17   H62   S    
C59   H5    S    
C48   C55   A    
C74   H8    S    
C6    H50   S    
C58   N3    A    
C101  C102  A    
C64   N4    A    
C97   H30   S    
C6    C7    A    
C116  H47   S    
C66   C68   A    
N5    Zn1   S    
C100  C101  A    
C31   H11   S    
H64   N9    S    
C75   H67   S    
C36   H17   S    
C90   H21   S    
C20   H75   S    
C114  C115  A    
C64   H2    S    
C57   C62   A    
C47   C49   A    
C68   C75   A    
H18   N6    S    
C96   H29   S    
C105  C107  A    
O1    Zn1   S    
C13   C83   A    
C50   C54   A    
C74   C76   A    
C57   N1    A    
C60   C63   A    
H73   N2    S    
O5    Zn2   S    
H69   N10   S    
C92   C93   A    
C77   C106  A    
C111  H42   S    
C24   C26   A    
C113  C114  A    
C14   H57   S    
C34   O11   A    
O11   Zn1   S    
C19   H70   S    
C20   H74   S    
C5    C6    A    
C59   C68   A    
H22   N7    S    
C86   C88   A    
C76   H77   S    
C90   N6    S    
O8    Zn1   S    
C58   O2    S    
C45   H1    S    
C115  C116  A    
C11   C12   A    
C13   C81   A    
C80   C89   A    
C40   C62   A    
C108  C109  A    
C69   C76   A    
C37   C42   A    
C109  H40   S    
C78   O3    S    
C32   H13   S    
C38   C45   A    
C7    H51   S    
C95   C112  S    
C8    H52   S    
C19   H71   S    
C56   N2    S    
C9    H53   S    
C80   N8    S    
C8    C9    A    
C65   C67   A    
C22   C25   A    
C29   C38   S    
C70   C74   A    
C50   C52   A    
C107  C108  A    
C41   C99   S    
C43   H23   S    
C18   N9    S    
C78   N3    A    
C23   C27   A    
C104  H37   S    
C39   C42   A    
C1    O1    A    
C4    C9    A    
C27   C40   A    
C67   C71   A    
C93   H27   S    
C1    C37   S    
C102  H35   S    
C91   H26   S    
C17   H63   S    
C85   C87   A    
C99   C104  A    
C105  C111  A    
C32   C106  A    
C86   H9    S    
C41   C43   A    
C88   N1    S    
N4    Zn2   S    
C72   C75   A    
C41   C49   A    
C112  C113  A    
C44   C46   A    
C97   C98   A    
C12   H55   S    
C21   C85   A    
C45   C47   A    
O7    Zn1   S    
C46   C48   A    
C59   C61   A    
C15   C16   A    
C92   C98   A    
C23   C30   A    
C54   H56   S    
C7    C8    A    
C80   C82   A    
O10   Zn2   S    
C77   O4    S    
C17   N8    S    
C79   C81   A    
C21   C34   S    
C18   H65   S    
C110  C111  A    
C2    C31   A    
C67   C69   A    
C64   C66   A    
C94   C96   A    
C13   C33   S    
C2    C78   A    
H60   N8    S    
C19   H72   S    
C63   H3    S    
C99   C100  A    
C57   O12   S    
C18   H68   S    
C3    C112  A    
O9    Zn2   S    
C96   C97   A    
C61   H4    S    
C84   C105  S    
C93   C94   A    
C24   C36   A    
C113  H43   S    
C60   H6    S    
C114  H44   S    
C91   N7    S    
C110  H41   S    
C79   C88   A    
C3    H48   S    
C25   C35   A    
C103  H36   S    
C16   H59   S    
C12   C14   A    
C65   N5    A    
C5    H49   S    
C87   C89   A    
C72   H7    S    
C22   C26   A    
C73   C95   A    
C53   C55   A    
C39   C92   S    
C70   C71   A    
C52   C53   A    
C40   C106  A    
C65   H78   S    
C17   H61   S    
C62   C84   A    
C44   H12   S    
C33   O10   A    
C15   H58   S    
C1    O6    A    
C28   C31   A    
C51   C73   A    
C4    C5    A    
C34   O9    A    
C61   N4    A    
C20   H76   S    
C35   C84   A    
C54   C56   A    
C29   O5    A    
C47   C52   A    
C85   N7    S    
C25   C27   A    
C49   C56   A    
C89   N3    S    
C46   C50   A    
C10   C81   S    
C79   N9    S    
C2    C51   A    
O6    Zn2   S    
C3    C116  A    
C94   H28   S    
C115  H46   S    
C77   N1    A    
C38   C43   A    
C10   C16   A    
C26   C51   A    
C30   C32   A    
C90   H19   S    
C36   C95   A    
C53   H45   S    
C66   C70   A    
C108  H39   S    
C60   C69   A    
C100  H32   S    
C55   N10   S    
C101  H33   S    
C19   N10   S    
C33   O8    A    
C63   N5    A    
C90   H20   S    
C28   H14   S    
C102  C103  A    
C42   H34   S    
C29   O7    A    
C107  H38   S    
C10   C11   A    
C23   C24   A    
C91   H24   S    
C37   C44   A    
C71   C72   A    
C83   C86   A    
C4    C82   S    
C21   C82   A    
C11   H54   S    
C98   H31   S    
C103  C104  A    
C18   H66   S    
C14   C15   A    
C22   C28   A    
C83   N6    S    
C109  C110  A    
C35   H16   S    
C20   N2    S    
C87   H10   S    
C30   H15   S    
C58   C73   A    
C39   C48   A    
C91   H25   S    
