data_mof_unit_1229.cif
_audit_creation_date              2012-12-10T20:30:16-0500
_audit_creation_method            fapswitch 2.2
_symmetry_space_group_name_H-M    P1
_symmetry_Int_Tables_number       1
_space_group_crystal_system       triclinic
_cell_length_a                    9.8908
_cell_length_b                    10.671548
_cell_length_c                    13.105391
_cell_angle_alpha                 90.105179
_cell_angle_beta                  69.71479
_cell_angle_gamma                 89.874523
_cell_volume                      1297.47496386

loop_
_atom_site_label
_atom_site_type_symbol
_atom_type_description
_atom_site_fract_x
_atom_site_fract_y
_atom_site_fract_z
_atom_type_partial_charge
C1    C     C_R   0.501563 0.740011 0.496292 0.863897
C2    C     C_R   0.432684 0.498779 0.984840 0.088718
C3    C     C_R   0.448867 0.452073 0.880537 0.067094
C4    C     C_R   0.535138 0.462764 0.032391 0.070344
C5    C     C_R   0.637790 0.367344 0.983736 0.154455
C6    C     C_R   0.640327 0.311602 0.886891 -0.231591
C7    C     C_R   0.547709 0.353877 0.835391 -0.220698
C8    C     C_R   0.539958 0.520799 0.126331 -0.262460
C9    C     C_R   0.730037 0.381239 0.132191 -0.210414
C10   C     C_R   0.369551 0.508313 0.821870 -0.094861
C11   C     C_R   0.389672 0.936222 0.473336 0.018557
C12   C     C_R   0.420041 0.498487 0.704160 0.851218
C13   C     C_R   0.509830 0.871279 0.477597 -0.146537
C14   C     C_R   0.640120 0.934825 0.459598 -0.199597
C15   C     C_R   0.640340 0.064394 0.459440 -0.225794
C16   C     C_R   0.510172 0.128660 0.477744 -0.078596
C17   C     C_R   0.389455 0.064296 0.474518 0.027921
C18   C     C_3   0.235252 0.073724 0.547666 -0.505027
C19   C     C_3   0.234169 0.931380 0.547850 0.389173
C20   C     C_R   0.906490 0.595990 0.547379 0.151499
C21   C     C_R   0.954256 0.412179 0.443701 -0.129055
C22   C     C_R   0.098281 0.412538 0.443256 -0.117398
C23   C     C_R   0.501858 0.260009 0.496288 0.870591
C24   C     C_R   0.047273 0.594020 0.550306 0.211466
C25   C     C_3   0.993374 0.629618 0.668613 0.325623
C26   C     C_3   0.842230 0.636345 0.662552 -0.556103
C27   C     C_R   0.580177 0.497904 0.295868 0.858196
C28   C     C_R   0.736625 0.329207 0.032918 -0.216908
C29   C     C_R   0.627942 0.474405 0.180026 -0.049046
C30   C     C_R   0.262186 0.596482 0.871781 -0.191862
C31   C     C_R   0.230910 0.628087 0.980191 -0.172517
C32   C     C_R   0.316050 0.581200 0.036449 -0.185792
H1    H     H_    0.797378 0.343298 0.174635 0.149766
H2    H     H_    0.738899 0.113028 0.453262 0.166772
H3    H     H_    0.222838 0.115015 0.628416 0.170535
H4    H     H_    0.166071 0.116947 0.506091 0.214885
H5    H     H_    0.222465 0.891759 0.628903 0.067048
H6    H     H_    0.920434 0.339723 0.400000 0.135790
H7    H     H_    0.172869 0.340575 0.398937 0.144072
H8    H     H_    0.037633 0.720941 0.683329 0.093684
H9    H     H_    0.765694 0.565997 0.713050 0.241792
H10   H     H_    0.716386 0.237323 0.849503 0.156920
H11   H     H_    0.798991 0.733442 0.669832 0.175843
H12   H     H_    0.814757 0.255967 0.996839 0.142849
H13   H     H_    0.469776 0.598098 0.163982 0.133632
H14   H     H_    0.208312 0.645863 0.824869 0.158575
H15   H     H_    0.287596 0.610596 0.120046 0.127720
H16   H     H_    0.145365 0.694302 0.019118 0.137749
H17   H     H_    0.554160 0.309026 0.759674 0.165342
H18   H     H_    0.738541 0.885687 0.453716 0.175863
N1    N     N_R   0.856940 0.500860 0.500710 -0.093832
N2    N     N_R   0.142580 0.500820 0.500710 -0.096382
O1    O     O_R   0.385310 0.683210 0.499990 -0.621179
O2    O     O_R   0.614650 0.683240 0.500000 -0.611629
O3    O     O_R   0.328390 0.499940 0.653610 -0.562563
O4    O     O_R   0.557730 0.499980 0.653620 -0.615292
O5    O     O_R   0.385350 0.316760 0.500000 -0.607750
O6    O     O_R   0.614690 0.316790 0.500010 -0.631746
O7    O     O_R   0.442270 0.500020 0.346380 -0.617186
O8    O     O_R   0.671610 0.500060 0.346390 -0.617906
Zn1   Zn    Zn3+2 0.346870 0.499980 0.499990 0.975716
Zn2   Zn    Zn3+2 0.653130 0.500020 0.500010 0.938376
O9    O     O_3   0.129558 0.880476 0.506938 -0.613649
C33   C     C_3   0.175638 0.872717 0.392270 -0.303223
H19   H     H_    0.262665 0.801690 0.360802 0.178221
H20   H     H_    0.210627 0.965379 0.353662 0.162516
H21   H     H_    0.083369 0.841441 0.369038 0.169704
O10   O     O_3   0.009794 0.530371 0.734729 -0.568718
C34   C     C_3   0.938758 0.561397 0.845422 -0.289884
H22   H     H_    0.820392 0.552692 0.868012 0.180629
H23   H     H_    0.964353 0.657673 0.865827 0.126972
H24   H     H_    0.973482 0.494473 0.896191 0.205473

loop_
_geom_bond_atom_site_label_1
_geom_bond_atom_site_label_2
_ccdc_geom_bond_type
O6    Zn2   S    
C23   O6    A    
C2    C4    A    
C1    O2    A    
C24   N2    A    
C6    C7    A    
C27   C29   S    
C5    C28   A    
C19   H5    S    
C18   H3    S    
C10   C30   A    
C15   H2    S    
C31   C32   A    
C9    C29   A    
C30   C31   A    
C31   H16   S    
C33   H19   S    
C23   O5    A    
C17   C18   S    
C9    C28   A    
C16   C23   S    
C3    C10   A    
C27   O7    A    
C13   C14   A    
O5    Zn1   S    
C11   C13   A    
C11   C19   S    
C27   O8    A    
C14   H18   S    
C25   O10   S    
C10   C12   S    
C9    H1    S    
N1    Zn2   S    
C5    C6    A    
O3    Zn1   S    
C2    C32   A    
C22   N2    A    
C12   O4    A    
C28   H12   S    
C26   H11   S    
C2    C3    A    
C20   N1    A    
C3    C7    A    
N2    Zn1   S    
C25   H8    S    
C34   H22   S    
C32   H15   S    
O4    Zn2   S    
O7    Zn1   S    
C12   O3    A    
C1    C13   S    
C8    H13   S    
C22   H7    S    
O1    Zn1   S    
O9    C33   S    
C33   H21   S    
C20   C24   A    
C21   N1    A    
C34   H24   S    
C16   C17   A    
C24   C25   S    
C7    H17   S    
O8    Zn2   S    
C18   C19   S    
C6    H10   S    
C8    C29   A    
C4    C8    A    
C34   H23   S    
C1    O1    A    
C14   C15   A    
O10   C34   S    
O2    Zn2   S    
C25   C26   S    
C21   C22   A    
C18   H4    S    
C30   H14   S    
C11   C17   A    
C21   H6    S    
C15   C16   A    
C26   H9    S    
C19   O9    S    
C4    C5    A    
C20   C26   S    
C33   H20   S    
