data_mof_unit_4182.cif
_audit_creation_date              2012-12-10T17:53:13-0500
_audit_creation_method            fapswitch 2.2
_symmetry_space_group_name_H-M    P1
_symmetry_Int_Tables_number       1
_space_group_crystal_system       triclinic
_cell_length_a                    14.608461
_cell_length_b                    14.715196
_cell_length_c                    27.751385
_cell_angle_alpha                 76.597452
_cell_angle_beta                  101.973136
_cell_angle_gamma                 114.867377
_cell_volume                      5224.05829884

loop_
_atom_site_label
_atom_site_type_symbol
_atom_type_description
_atom_site_fract_x
_atom_site_fract_y
_atom_site_fract_z
_atom_type_partial_charge
C1    C     C_R   0.880209 0.312195 0.507555 0.838705
C2    C     C_R   0.120313 0.687904 0.491550 0.827913
C3    C     C_R   0.997847 0.502465 0.897173 -0.085304
C4    C     C_R   0.998442 0.488319 0.103511 -0.085004
C5    C     C_R   0.007098 0.422513 0.881397 -0.008006
C6    C     C_R   0.970019 0.557223 0.118401 -0.009075
C7    C     C_R   0.016239 0.340751 0.916455 -0.151186
C8    C     C_R   0.941180 0.627362 0.082489 -0.149225
C9    C     C_R   0.988182 0.585180 0.861296 -0.042658
C10   C     C_R   0.026857 0.416680 0.140228 -0.041693
C11   C     C_R   0.996186 0.499252 0.644616 -0.099188
C12   C     C_R   0.002379 0.498130 0.355692 -0.099112
C13   C     C_R   0.021040 0.419334 0.036385 -0.004305
C14   C     C_R   0.983225 0.575824 0.964675 -0.004163
C15   C     C_R   0.975276 0.567744 0.015842 0.063549
C16   C     C_R   0.013377 0.418335 0.984526 0.063676
C17   C     C_R   0.998283 0.491702 0.051809 0.069766
C18   C     C_R   0.998211 0.498995 0.948902 0.069468
C19   C     C_R   0.052266 0.350867 0.073319 -0.199177
C20   C     C_R   0.978350 0.659609 0.928927 -0.200106
C21   C     C_R   0.055420 0.348070 0.124390 0.173078
C22   C     C_R   0.980444 0.665665 0.878063 0.172847
C23   C     C_R   0.998545 0.499257 0.592239 0.861203
C24   C     C_R   0.001475 0.500739 0.407796 0.846826
C25   C     C_R   0.019083 0.338388 0.966930 -0.213496
C26   C     C_R   0.943513 0.632554 0.032263 -0.214108
C27   C     C_R   0.812889 0.203999 0.515033 -0.099205
C28   C     C_R   0.189471 0.795664 0.489639 -0.117958
C29   C     C_R   0.782131 0.034298 0.562271 0.173984
C30   C     C_R   0.216371 0.968615 0.494888 0.192158
C31   C     C_R   0.846490 0.136163 0.549847 -0.254480
C32   C     C_R   0.154174 0.865060 0.497393 -0.262670
C33   C     C_R   0.713188 0.169892 0.490756 0.110092
C34   C     C_R   0.292777 0.828077 0.484429 0.102649
C35   C     C_R   0.641631 0.074102 0.509886 0.007019
C36   C     C_R   0.360735 0.926006 0.494122 0.013063
C37   C     C_R   0.677659 0.000180 0.540661 0.088954
C38   C     C_R   0.321936 0.001851 0.490462 0.083651
C39   C     C_R   0.535235 0.051022 0.500216 0.026701
C40   C     C_R   0.466391 0.949884 0.507761 0.029791
C41   C     C_R   0.503052 0.875089 0.532880 -0.215021
C42   C     C_R   0.496069 0.127208 0.487661 -0.224408
C43   C     C_R   0.606377 0.897358 0.548704 0.168112
C44   C     C_R   0.391884 0.105274 0.483606 0.161562
C45   C     C_R   0.006164 0.425194 0.830602 0.530764
C46   C     C_R   0.970194 0.554461 0.169110 0.533890
C47   C     C_R   0.684961 0.611155 0.399304 -0.002978
C48   C     C_R   0.277833 0.325428 0.585462 -0.020350
C49   C     C_R   0.783300 0.619563 0.422655 0.628183
C50   C     C_R   0.201726 0.365156 0.573417 0.623972
C51   C     C_R   0.717236 0.513767 0.495646 -0.098436
C52   C     C_R   0.281750 0.475610 0.503578 -0.104266
C53   C     C_R   0.615407 0.501142 0.475043 -0.085415
C54   C     C_R   0.361757 0.439235 0.515124 -0.076261
C55   C     C_R   0.599074 0.543383 0.424298 0.021952
C56   C     C_R   0.366539 0.375763 0.561416 0.019888
C57   C     C_R   0.529808 0.450070 0.503036 -0.002439
C58   C     C_R   0.436716 0.463338 0.482641 -0.004730
C59   C     C_R   0.416389 0.482806 0.429432 0.143994
C60   C     C_R   0.532128 0.385572 0.549856 0.145683
C61   C     C_R   0.497369 0.514294 0.400406 0.188549
C62   C     C_R   0.456101 0.357822 0.580623 0.198812
C63   C     C_R   0.987579 0.583639 0.810205 0.542983
C64   C     C_R   0.026819 0.418332 0.191261 0.544713
C65   C     C_R   0.080087 0.569786 0.720284 -0.103416
C66   C     C_R   0.932627 0.408338 0.284987 -0.095542
C67   C     C_R   0.080287 0.567443 0.670460 -0.330671
C68   C     C_R   0.933248 0.412840 0.334703 -0.300756
C69   C     C_R   0.911847 0.429962 0.669052 0.404054
C70   C     C_R   0.070715 0.580252 0.326517 0.391205
C71   C     C_R   0.910846 0.436621 0.718919 -0.231201
C72   C     C_R   0.072267 0.573200 0.277178 -0.201191
C73   C     C_R   0.995326 0.504706 0.744562 0.326878
C74   C     C_R   0.002102 0.488604 0.256039 0.303370
Cu1   Cu    Cu3+1 0.081740 0.475690 0.513040 0.974735
Cu2   Cu    Cu3+1 0.918260 0.524310 0.486960 0.974419
H1    H     H_    0.076709 0.838183 0.505058 0.159287
H2    H     H_    0.923714 0.163923 0.568489 0.202673
H3    H     H_    0.449932 0.798532 0.543645 0.166382
H4    H     H_    0.546979 0.205640 0.484305 0.173263
H5    H     H_    0.280387 0.532618 0.471351 0.175221
H6    H     H_    0.736476 0.486842 0.534153 0.194191
H7    H     H_    0.845783 0.388263 0.738504 0.126131
H8    H     H_    0.126576 0.634661 0.254808 0.150080
H9    H     H_    0.021133 0.277510 0.905020 0.182829
H10   H     H_    0.916683 0.679254 0.093048 0.184116
H11   H     H_    0.879710 0.349932 0.356826 0.147265
H12   H     H_    0.145969 0.619090 0.651887 0.157350
H13   H     H_    0.877859 0.342859 0.268840 0.151383
H14   H     H_    0.145811 0.622045 0.740126 0.146697
H15   H     H_    0.078365 0.300201 0.063233 0.140646
H16   H     H_    0.976281 0.724018 0.940125 0.140474
H17   H     H_    0.022669 0.270882 0.991151 0.138097
H18   H     H_    0.916845 0.686473 0.007003 0.138686
N1    N     N_R   0.996452 0.504668 0.796382 -0.454632
N2    N     N_R   0.999095 0.486528 0.204232 -0.453502
N3    N     N_R   0.795430 0.560780 0.467350 -0.248236
N4    N     N_R   0.204570 0.439220 0.532650 -0.228779
O1    O     O_R   0.977900 0.338120 0.517190 -0.546172
O2    O     O_R   0.022100 0.661880 0.482810 -0.572074
O3    O     O_R   0.839850 0.379180 0.495160 -0.577543
O4    O     O_R   0.160150 0.620820 0.504840 -0.581227
O5    O     O_R   0.069030 0.479490 0.580750 -0.567417
O6    O     O_R   0.930970 0.520510 0.419250 -0.553309
O7    O     O_R   0.930970 0.520550 0.558720 -0.574378
O8    O     O_R   0.069030 0.479450 0.441280 -0.579887
O9    O     O_2   0.015528 0.349087 0.815373 -0.565871
O10   O     O_2   0.941413 0.619255 0.183380 -0.558335
O11   O     O_2   0.054960 0.353732 0.227936 -0.554645
O12   O     O_2   0.977215 0.659059 0.774257 -0.551200
O13   O     O_3   0.833488 0.358638 0.642602 -0.604126
C75   C     C_3   0.783544 0.265899 0.673476 0.019076
H19   H     H_    0.718329 0.269627 0.686458 0.160048
H20   H     H_    0.834952 0.247206 0.706336 0.162604
C76   C     C_3   0.743607 0.179074 0.643743 -0.786301
H21   H     H_    0.808273 0.165378 0.636644 0.248234
H22   H     H_    0.692843 0.108700 0.665349 0.206615
H23   H     H_    0.700710 0.196944 0.607505 0.262430
O14   O     O_3   0.137833 0.665802 0.346577 -0.605812
C77   C     C_3   0.105995 0.746674 0.325675 0.055514
H24   H     H_    0.035676 0.733319 0.340717 0.191418
H25   H     H_    0.090833 0.756218 0.284149 0.162301
C78   C     C_3   0.189113 0.845928 0.338932 -0.807636
H26   H     H_    0.261299 0.858340 0.326185 0.259588
H27   H     H_    0.166374 0.910078 0.320439 0.211406
H28   H     H_    0.201403 0.844518 0.379772 0.248092
C79   C     C_3   0.327451 0.765875 0.461029 -0.829724
H29   H     H_    0.398167 0.813972 0.443695 0.234553
H30   H     H_    0.340691 0.704129 0.489097 0.231767
H31   H     H_    0.269304 0.731026 0.430718 0.265996
C80   C     C_3   0.690588 0.226033 0.439413 -0.849472
H32   H     H_    0.621156 0.177286 0.417993 0.237739
H33   H     H_    0.681499 0.295822 0.442008 0.245768
H34   H     H_    0.753905 0.247886 0.417227 0.215263
C81   C     C_3   0.826037 0.971604 0.603742 -0.857580
H35   H     H_    0.903634 0.017739 0.620143 0.224119
H36   H     H_    0.778879 0.940627 0.634883 0.236598
H37   H     H_    0.834180 0.911190 0.589732 0.239896
C82   C     C_3   0.168440 0.035835 0.503348 -0.862887
H38   H     H_    0.090100 0.991499 0.513456 0.222431
H39   H     H_    0.212743 0.075709 0.535125 0.235686
H40   H     H_    0.161102 0.089568 0.469014 0.238355
C83   C     C_3   0.473479 0.498631 0.346254 -0.853681
H41   H     H_    0.422492 0.418434 0.343642 0.230188
H42   H     H_    0.437120 0.549884 0.323176 0.242090
H43   H     H_    0.540979 0.509045 0.330065 0.243989
C84   C     C_3   0.477927 0.320090 0.635792 -0.860858
H44   H     H_    0.559546 0.359240 0.649418 0.234228
H45   H     H_    0.436250 0.338727 0.658668 0.231643
H46   H     H_    0.458543 0.237105 0.642600 0.236794
O15   O     O_3   0.116332 0.319324 0.598182 -0.562357
C85   C     C_3   0.142863 0.334635 0.648689 0.054297
H47   H     H_    0.166983 0.415883 0.651301 0.162877
H48   H     H_    0.205832 0.311804 0.668519 0.134255
C86   C     C_3   0.050839 0.271596 0.676379 -0.780144
H49   H     H_    0.032715 0.189516 0.678880 0.233806
H50   H     H_    0.066387 0.290071 0.714617 0.229541
H51   H     H_    0.984439 0.287911 0.655956 0.267807
O16   O     O_3   0.867936 0.690531 0.401252 -0.564837
C87   C     C_3   0.898273 0.781023 0.420956 0.063239
H52   H     H_    0.923941 0.769624 0.461552 0.154446
H53   H     H_    0.835466 0.807407 0.416411 0.116763
C88   C     C_3   0.983997 0.865134 0.394212 -0.793439
H54   H     H_    0.958406 0.878161 0.353579 0.245248
H55   H     H_    0.007656 0.936474 0.409231 0.212897
H56   H     H_    0.049981 0.843613 0.400077 0.256703
C89   C     C_3   0.675614 0.679850 0.350008 -0.824604
H57   H     H_    0.731450 0.758773 0.350358 0.235462
H58   H     H_    0.689356 0.651825 0.319448 0.244863
H59   H     H_    0.600811 0.686136 0.341316 0.240778
C90   C     C_3   0.251481 0.217205 0.613003 -0.851071
H60   H     H_    0.168367 0.171738 0.607056 0.253863
H61   H     H_    0.288164 0.178331 0.598498 0.234542
H62   H     H_    0.275794 0.214733 0.653666 0.228241
C91   C     C_3   0.307729 0.455056 0.403221 -0.828604
H63   H     H_    0.293252 0.418904 0.370182 0.240740
H64   H     H_    0.251206 0.396756 0.427155 0.237160
H65   H     H_    0.290800 0.524296 0.390721 0.242408
C92   C     C_3   0.599410 0.326005 0.563740 -0.873394
H66   H     H_    0.553545 0.244838 0.576833 0.239540
H67   H     H_    0.633227 0.325709 0.531682 0.235025
H68   H     H_    0.660115 0.356262 0.594086 0.272354
C93   C     C_3   0.089988 0.270653 0.160168 -0.756125
H69   H     H_    0.028236 0.216772 0.182592 0.255321
H70   H     H_    0.109322 0.224473 0.140571 0.196297
H71   H     H_    0.159588 0.309562 0.184803 0.255968
C94   C     C_3   0.974846 0.759793 0.843561 -0.757132
H72   H     H_    0.904767 0.738961 0.816430 0.257234
H73   H     H_    0.971851 0.814959 0.863943 0.196330
H74   H     H_    0.043474 0.799708 0.823852 0.253668
C95   C     C_3   0.635235 0.807048 0.569081 -0.859470
H75   H     H_    0.570303 0.734219 0.563300 0.222745
H76   H     H_    0.694970 0.811164 0.548693 0.233820
H77   H     H_    0.658666 0.801125 0.609860 0.240089
C96   C     C_3   0.360758 0.194735 0.467094 -0.837990
H78   H     H_    0.425293 0.265868 0.455126 0.233619
H79   H     H_    0.302411 0.182307 0.433912 0.234698
H80   H     H_    0.334348 0.209440 0.498004 0.242996

loop_
_geom_bond_atom_site_label_1
_geom_bond_atom_site_label_2
_ccdc_geom_bond_type
C51   N3    A    
C83   H43   S    
C66   C68   A    
C90   H60   S    
C25   H17   S    
Cu2   O7    S    
C86   H50   S    
C72   C74   A    
C8    C26   A    
C14   C18   A    
C84   H44   S    
C48   C56   A    
C93   H69   S    
C80   H34   S    
C1    O1    A    
C75   H20   S    
C64   O11   S    
C78   H26   S    
C91   H64   S    
C80   H33   S    
C27   C33   A    
C60   C92   S    
C42   H4    S    
C90   H61   S    
C67   H12   S    
C47   C55   A    
Cu2   O6    S    
C88   H55   S    
C59   C91   S    
C93   H70   S    
C82   H40   S    
C9    C22   A    
C78   H27   S    
C2    O4    A    
C83   H41   S    
C23   O7    A    
C63   N1    A    
C16   C25   A    
C65   C73   A    
C30   C38   A    
C3    C18   A    
C60   C62   A    
C11   C23   S    
C22   C94   S    
C69   C71   A    
C94   H74   S    
C32   H1    S    
C50   O15   S    
C61   C83   S    
C83   H42   S    
C88   H54   S    
C77   H25   S    
C34   C79   S    
C76   H22   S    
C46   O10   S    
Cu1   O4    S    
O15   C85   S    
C39   C42   A    
C81   H35   S    
C8    H10   S    
C77   C78   S    
C3    C5    A    
C92   H68   S    
C52   C54   A    
C48   C50   A    
C43   C95   S    
C92   H67   S    
C86   H51   S    
Cu1   O5    S    
C41   C43   A    
C42   C44   A    
C75   H19   S    
C11   C67   A    
C66   H13   S    
C71   H7    S    
C53   C55   A    
C10   C21   A    
C65   H14   S    
C90   H62   S    
C23   O5    A    
C59   C61   A    
C50   N4    A    
C13   C19   A    
C27   C31   A    
C95   H75   S    
C87   C88   S    
C14   C20   A    
C28   C32   A    
C88   H56   S    
C64   N2    A    
C47   C49   A    
C93   H71   S    
C89   H57   S    
C71   C73   A    
C53   C57   A    
C91   H65   S    
C15   C26   A    
C6    C8    A    
C65   C67   A    
C58   C59   A    
C5    C45   A    
Cu1   N4    S    
C92   H66   S    
C89   H58   S    
C24   O6    A    
C87   H53   S    
C37   C43   A    
C35   C39   A    
Cu1   Cu2   S    
C79   H30   S    
C38   C44   A    
C3    C9    A    
C74   N2    S    
C48   C90   S    
C47   C89   S    
O16   C87   S    
C85   C86   S    
C36   C40   A    
C70   O14   S    
C82   H38   S    
C76   H23   S    
C84   H46   S    
Cu1   O1    S    
C95   H76   S    
C51   H6    S    
C72   H8    S    
C81   H37   S    
C89   H59   S    
C4    C6    A    
C40   C41   A    
C29   C81   S    
C85   H48   S    
C21   C93   S    
C26   H18   S    
C56   C62   A    
C20   H16   S    
C24   O8    A    
C4    C17   A    
C4    C10   A    
C80   H32   S    
C45   N1    A    
C1    O3    A    
C39   C40   A    
C77   H24   S    
C35   C37   A    
C31   H2    S    
C5    C7    A    
C54   C58   A    
Cu2   O3    S    
C81   H36   S    
C12   C70   A    
C44   C96   S    
C30   C82   S    
C6    C46   A    
O13   C75   S    
C19   C21   A    
C9    C63   A    
C10   C64   A    
C20   C22   A    
C78   H28   S    
C41   H3    S    
C70   C72   A    
O14   C77   S    
C11   C69   A    
C54   C56   A    
C15   C17   A    
C79   H29   S    
Cu2   O2    S    
C84   H45   S    
C12   C24   S    
C7    C25   A    
C13   C17   A    
C62   C84   S    
C87   H52   S    
C12   C68   A    
C63   O12   S    
C36   C38   A    
Cu2   N3    S    
C95   H77   S    
C94   H72   S    
C29   C31   A    
C91   H63   S    
C30   C32   A    
C82   H39   S    
C33   C80   S    
C57   C58   A    
C7    H9    S    
C55   C61   A    
C52   N4    A    
C33   C35   A    
C34   C36   A    
C28   C34   A    
C52   H5    S    
C69   O13   S    
C79   H31   S    
C49   N3    A    
C19   H15   S    
C2    O2    A    
C96   H78   S    
C96   H80   S    
C45   O9    S    
C57   C60   A    
C46   N2    A    
C85   H47   S    
Cu1   O8    S    
C16   C18   A    
C13   C16   A    
C29   C37   A    
C86   H49   S    
C1    C27   S    
C68   H11   S    
C73   N1    S    
C14   C15   A    
C49   O16   S    
C2    C28   S    
C51   C53   A    
C94   H73   S    
C75   C76   S    
C76   H21   S    
C96   H79   S    
C66   C74   A    
