data_mof_unit_2502.cif
_audit_creation_date              2012-12-10T16:48:45-0500
_audit_creation_method            fapswitch 2.2
_symmetry_space_group_name_H-M    P1
_symmetry_Int_Tables_number       1
_space_group_crystal_system       triclinic
_cell_length_a                    7.808577
_cell_length_b                    8.582443
_cell_length_c                    10.895869
_cell_angle_alpha                 89.40728
_cell_angle_beta                  99.098173
_cell_angle_gamma                 92.747192
_cell_volume                      720.186536333

loop_
_atom_site_label
_atom_site_type_symbol
_atom_type_description
_atom_site_fract_x
_atom_site_fract_y
_atom_site_fract_z
_atom_type_partial_charge
C1    C     C_R   0.544140 0.794361 0.497460 0.955562
C2    C     C_2   0.431638 0.042726 0.501609 -0.371194
C3    C     C_3   0.800873 0.589461 0.136002 -0.211836
C4    C     C_3   0.199127 0.410539 0.863998 -0.211837
C5    C     C_3   0.902962 0.244842 0.351330 -0.184070
C6    C     C_3   0.097038 0.755158 0.648670 -0.184070
C7    C     C_R   0.455859 0.205639 0.502540 0.955562
C8    C     C_R   0.571602 0.490195 0.734795 0.960656
C9    C     C_R   0.428398 0.509805 0.265205 0.960656
C10   C     C_2   0.613901 0.506048 0.866868 -0.426499
C11   C     C_2   0.386099 0.493952 0.133132 -0.426499
C12   C     C_2   0.492186 0.466971 0.937178 0.424674
C13   C     C_2   0.507814 0.533029 0.062822 0.424674
C14   C     C_2   0.568362 0.957274 0.498391 -0.371194
H1    H     H_    0.271620 0.421276 0.100584 0.136216
H2    H     H_    0.148644 0.380520 0.765831 0.227528
H3    H     H_    0.767321 0.262778 0.307928 0.183291
H4    H     H_    0.909877 0.174798 0.438151 0.144812
H5    H     H_    0.962912 0.176878 0.284617 0.141169
H6    H     H_    0.090123 0.825202 0.561848 0.144812
H7    H     H_    0.232679 0.737222 0.692072 0.183290
H8    H     H_    0.037088 0.823122 0.715383 0.141169
H9    H     H_    0.728380 0.578724 0.899416 0.136216
H10   H     H_    0.698882 0.006264 0.497741 0.161474
H11   H     H_    0.301118 0.993736 0.502259 0.161474
H12   H     H_    0.892115 0.648493 0.080164 0.145920
H13   H     H_    0.804920 0.460750 0.124439 0.143956
H14   H     H_    0.851356 0.619480 0.234169 0.227528
H15   H     H_    0.195080 0.539250 0.875561 0.143956
H16   H     H_    0.107884 0.351507 0.919836 0.145920
N1    N     N_2   0.940600 0.458860 0.467170 0.180856
N2    N     N_2   0.059400 0.541140 0.532830 0.180856
O1    O     O_R   0.391630 0.738350 0.508060 -0.653177
O2    O     O_3   0.365996 0.349784 0.896661 -0.623867
O3    O     O_3   0.997914 0.387050 0.373232 -0.544103
O4    O     O_3   0.002086 0.612950 0.626768 -0.544103
O5    O     O_R   0.608370 0.261650 0.491940 -0.653176
O6    O     O_R   0.674540 0.711990 0.487010 -0.597210
O7    O     O_R   0.325460 0.288010 0.512990 -0.597211
O8    O     O_R   0.411370 0.508250 0.688780 -0.616753
O9    O     O_R   0.588630 0.491750 0.311220 -0.616753
O10   O     O_R   0.694270 0.481880 0.667740 -0.584843
O11   O     O_R   0.305730 0.518120 0.332260 -0.584843
O12   O     O_3   0.634003 0.650216 0.103339 -0.623867
Zn1   Zn    Zn3+2 0.311100 0.517600 0.514050 1.007439
Zn2   Zn    Zn3+2 0.688900 0.482400 0.485950 1.007439

loop_
_geom_bond_atom_site_label_1
_geom_bond_atom_site_label_2
_ccdc_geom_bond_type
C4    H2    S    
O9    Zn2   S    
C5    H5    S    
C10   H9    S    
C1    C14   S    
O11   Zn1   S    
N2    Zn1   S    
C9    O9    A    
C4    H15   S    
O7    Zn1   S    
C6    H6    S    
C3    H13   S    
C7    O5    A    
C1    O1    A    
N1    N2    D    
C5    H3    S    
C9    C11   S    
C10   C12   D    
C1    O6    A    
N2    O4    S    
C3    H14   S    
C8    O10   A    
C2    H11   S    
N1    O3    S    
C13   O12   S    
O8    Zn1   S    
C2    C14   D    
C4    O2    S    
C3    O12   S    
O6    Zn2   S    
C9    O11   A    
C12   O2    S    
C6    H8    S    
C5    O3    S    
C11   C13   D    
O1    Zn1   S    
C12   C13   S    
C8    C10   S    
O10   Zn2   S    
C14   H10   S    
C7    O7    A    
C5    H4    S    
C8    O8    A    
O5    Zn2   S    
C6    H7    S    
C11   H1    S    
C3    H12   S    
C4    H16   S    
C2    C7    S    
C6    O4    S    
N1    Zn2   S    
