data_mof_unit_3598.cif
_audit_creation_date              2013-03-05T16:23:19-0500
_audit_creation_method            fapswitch 2.2
_symmetry_space_group_name_H-M    P1
_symmetry_Int_Tables_number       1
_space_group_crystal_system       triclinic
_cell_length_a                    27.518089
_cell_length_b                    10.53077
_cell_length_c                    9.793924
_cell_angle_alpha                 91.084363
_cell_angle_beta                  89.684873
_cell_angle_gamma                 89.796612
_cell_volume                      2837.57844316

loop_
_atom_site_label
_atom_site_type_symbol
_atom_site_description
_atom_site_fract_x
_atom_site_fract_y
_atom_site_fract_z
_atom_type_partial_charge
O1    O     O_R   0.500000 0.313960 0.616610 -0.625801
O2    O     O_R   0.500000 0.686040 0.383390 -0.622793
O3    O     O_R   0.500020 0.313950 0.383350 -0.603015
O4    O     O_R   0.499980 0.686050 0.616650 -0.603173
C1    C     C_R   0.501290 0.257780 0.498804 0.873157
C2    C     C_R   0.498747 0.742218 0.501169 0.871554
O5    O     O_R   0.428750 0.500030 0.616610 -0.641472
O6    O     O_R   0.571250 0.499970 0.383390 -0.610350
O7    O     O_R   0.428770 0.500020 0.383360 -0.592841
O8    O     O_R   0.571230 0.499980 0.616640 -0.623822
C3    C     C_R   0.406096 0.500743 0.500678 0.900419
C4    C     C_R   0.593961 0.499976 0.500055 0.895170
Zn1   Zn    Zn3+2 0.499990 0.500010 0.655740 0.944204
Zn2   Zn    Zn3+2 0.500010 0.499990 0.344260 0.957549
C5    C     C_R   0.180696 0.414778 0.634124 0.561089
C6    C     C_R   0.820307 0.618558 0.592525 0.559941
O9    O     O_2   0.208248 0.312572 0.662938 -0.528631
O10   O     O_2   0.792442 0.724018 0.602702 -0.528281
N1    N     N_R   0.202638 0.524571 0.594449 -0.340093
N2    N     N_R   0.798862 0.503783 0.566199 -0.340360
C7    C     C_R   0.176908 0.635352 0.585136 0.492948
C8    C     C_R   0.824718 0.392939 0.569253 0.488646
C9    C     C_R   0.284834 0.604299 0.628663 -0.136562
C10   C     C_R   0.718040 0.433904 0.630777 -0.148179
C11   C     C_R   0.334049 0.601113 0.600828 -0.293015
C12   C     C_R   0.668393 0.431088 0.612287 -0.284269
C13   C     C_R   0.322319 0.430171 0.433161 0.104375
C14   C     C_R   0.676316 0.561629 0.410481 0.106929
C15   C     C_R   0.271516 0.437462 0.456880 0.225718
C16   C     C_R   0.727400 0.561160 0.426930 0.222036
C17   C     C_R   0.253332 0.522709 0.558765 0.238611
C18   C     C_R   0.747732 0.498678 0.539795 0.248229
C19   C     C_R   0.102694 0.522132 0.635692 -0.116745
C20   C     C_R   0.898067 0.512204 0.615906 -0.115652
C21   C     C_R   0.129780 0.408543 0.644549 -0.163200
C22   C     C_R   0.870936 0.626207 0.610655 -0.162016
C23   C     C_R   0.105141 0.292605 0.660787 0.541991
C24   C     C_R   0.895195 0.743493 0.624386 0.536262
C25   C     C_R   0.126970 0.637070 0.611679 0.007514
C26   C     C_R   0.874291 0.394867 0.598623 0.006768
C27   C     C_R   0.353264 0.512544 0.506833 -0.096054
C28   C     C_R   0.647054 0.495749 0.504177 -0.106248
C29   C     C_R   0.975584 0.399549 0.644143 0.095791
C30   C     C_R   0.024742 0.636258 0.640248 0.094641
C31   C     C_R   0.973251 0.633415 0.643335 -0.032462
C32   C     C_R   0.026844 0.403228 0.657650 -0.034626
C33   C     C_R   0.949080 0.515110 0.635499 0.073936
C34   C     C_R   0.051284 0.520621 0.645952 0.074060
C35   C     C_R   0.950035 0.283733 0.631341 -0.219024
C36   C     C_R   0.050702 0.750557 0.623526 -0.216066
C37   C     C_R   0.900441 0.281814 0.608306 -0.144502
C38   C     C_R   0.100786 0.750504 0.608639 -0.141667
O11   O     O_2   0.802474 0.281155 0.542542 -0.575817
O12   O     O_2   0.199377 0.742918 0.547016 -0.582621
C39   C     C_R   0.054809 0.292250 0.674831 -0.313441
C40   C     C_R   0.945029 0.745416 0.647469 -0.313980
H1    H     H_    0.646362 0.380159 0.685036 0.173542
H2    H     H_    0.357554 0.665969 0.656211 0.155686
H3    H     H_    0.733612 0.386800 0.717732 0.168599
H4    H     H_    0.271148 0.669357 0.706868 0.176506
H5    H     H_    0.882603 0.190753 0.597117 0.197656
H6    H     H_    0.118978 0.840008 0.592826 0.192932
H7    H     H_    0.967477 0.192206 0.632912 0.131498
H8    H     H_    0.033266 0.841540 0.614664 0.130775
H9    H     H_    0.038704 0.201386 0.694778 0.161178
H10   H     H_    0.960640 0.837706 0.666143 0.158828
C41   C     C_3   0.530073 0.043223 0.599920 -0.203878
C42   C     C_3   0.470041 0.956775 0.399836 -0.204274
C43   C     C_3   0.545508 0.953133 0.479835 -0.267792
C44   C     C_3   0.454597 0.046839 0.519949 -0.269109
H11   H     H_    0.582106 0.911293 0.461263 0.148905
H12   H     H_    0.417984 0.088646 0.538328 0.148915
H13   H     H_    0.554096 0.081866 0.681266 0.145433
H14   H     H_    0.446037 0.918178 0.318422 0.146451
C45   C     C_3   0.498636 0.877107 0.502570 -0.071858
C46   C     C_3   0.501463 0.122874 0.497270 -0.071319
C47   C     C_3   0.483526 0.965775 0.619654 0.292932
C48   C     C_3   0.516588 0.034228 0.380157 0.293078
C49   C     C_3   0.457832 0.467617 0.049079 -0.169759
C50   C     C_3   0.542373 0.532336 0.950590 -0.175611
C51   C     C_3   0.489506 0.388100 0.948717 -0.129344
C52   C     C_3   0.510611 0.611973 0.051248 -0.134252
H15   H     H_    0.481007 0.294612 0.901181 0.142866
H16   H     H_    0.519172 0.705390 0.098888 0.144135
H17   H     H_    0.422455 0.443704 0.094693 0.151276
H18   H     H_    0.577806 0.557773 0.904014 0.145830
N3    N     N_3   0.499960 0.500030 0.863290 -0.111184
N4    N     N_3   0.500040 0.499970 0.136710 -0.112809
C53   C     C_3   0.468948 0.577859 0.956029 0.341067
C54   C     C_3   0.531160 0.422085 0.044042 0.340468
N5    N     N_2   0.342969 0.334029 0.346409 -0.305919
H19   H     H_    0.335291 0.242769 0.375941 0.216933
C55   C     C_3   0.337356 0.352439 0.201399 -0.758800
H20   H     H_    0.300862 0.321981 0.167006 0.239069
H21   H     H_    0.364397 0.292594 0.145361 0.235274
H22   H     H_    0.342925 0.453663 0.175520 0.241722
N6    N     N_2   0.653953 0.635059 0.307573 -0.299243
H23   H     H_    0.660593 0.731259 0.314439 0.212372
C56   C     C_3   0.656409 0.582885 0.169997 -0.765222
H24   H     H_    0.686592 0.627243 0.112532 0.232124
H25   H     H_    0.621926 0.604319 0.117368 0.240378
H26   H     H_    0.661805 0.478205 0.169511 0.243424
N7    N     N_2   0.464557 0.923995 0.749115 -0.272811
H27   H     H_    0.433986 0.868677 0.737573 0.235974
C57   C     C_3   0.458376 0.024215 0.850597 -0.780594
H28   H     H_    0.443896 0.984428 0.946463 0.245370
H29   H     H_    0.432424 0.096969 0.813956 0.231822
H30   H     H_    0.493892 0.069081 0.873543 0.242891
N8    N     N_2   0.535663 0.076437 0.251000 -0.273682
H31   H     H_    0.566264 0.131515 0.263150 0.235970
C58   C     C_3   0.541963 0.976793 0.148952 -0.779710
H32   H     H_    0.556313 0.017431 0.053287 0.247881
H33   H     H_    0.506520 0.931631 0.125888 0.241480
H34   H     H_    0.568062 0.904133 0.185075 0.231889
N9    N     N_2   0.433074 0.664382 0.903680 -0.293957
H35   H     H_    0.410757 0.621319 0.833101 0.240912
C59   C     C_3   0.405817 0.733786 0.007523 -0.846392
H36   H     H_    0.381314 0.803013 0.958243 0.245885
H37   H     H_    0.430742 0.786704 0.076666 0.246190
H38   H     H_    0.383360 0.667649 0.068210 0.241225
N10   N     N_2   0.565960 0.332524 0.096485 -0.294245
H39   H     H_    0.585767 0.367958 0.177118 0.252438
C60   C     C_3   0.595999 0.270332 0.993589 -0.863221
H40   H     H_    0.619089 0.197447 0.042098 0.249554
H41   H     H_    0.620039 0.340529 0.943893 0.238294
H42   H     H_    0.573047 0.222587 0.915198 0.249533
N11   N     N_2   0.238682 0.356714 0.384146 -0.303862
H43   H     H_    0.252217 0.269715 0.352454 0.233602
C61   C     C_3   0.209551 0.418720 0.282168 -0.797882
H44   H     H_    0.184793 0.348419 0.233537 0.238588
H45   H     H_    0.233159 0.459949 0.202210 0.250222
H46   H     H_    0.186947 0.495356 0.329227 0.253461
N12   N     N_2   0.758412 0.625974 0.334334 -0.295838
H47   H     H_    0.743467 0.704233 0.288839 0.234950
C62   C     C_3   0.784946 0.544503 0.239264 -0.783863
H48   H     H_    0.809145 0.603147 0.175084 0.239216
H49   H     H_    0.759391 0.491757 0.171814 0.244344
H50   H     H_    0.807901 0.475707 0.294360 0.255432
O13   O     O_3   0.129154 0.176773 0.660252 -0.605387
C63   C     C_3   0.137934 0.135024 0.523594 0.149120
H51   H     H_    0.165013 0.056684 0.527470 0.202405
H52   H     H_    0.154582 0.210337 0.460342 0.149359
C64   C     C_3   0.091628 0.084958 0.454171 -0.472795
H53   H     H_    0.071406 0.023528 0.525259 0.228404
H54   H     H_    0.067721 0.165926 0.427497 0.224591
C65   C     C_3   0.103507 0.009654 0.323526 -0.893168
H55   H     H_    0.123259 0.070432 0.250353 0.267538
H56   H     H_    0.069278 0.976464 0.275325 0.267827
H57   H     H_    0.126207 0.925420 0.346698 0.277630
O14   O     O_3   0.870928 0.858666 0.618623 -0.605294
C66   C     C_3   0.867024 0.896350 0.480798 0.159709
H58   H     H_    0.838175 0.970317 0.477645 0.206493
H59   H     H_    0.854893 0.817319 0.411747 0.136666
C67   C     C_3   0.914766 0.952873 0.427317 -0.466800
H60   H     H_    0.930959 0.015850 0.506709 0.229552
H61   H     H_    0.941060 0.875156 0.403503 0.221364
C68   C     C_3   0.906655 0.028730 0.298186 -0.893047
H62   H     H_    0.890548 0.967260 0.217007 0.267413
H63   H     H_    0.941982 0.065621 0.260927 0.267097
H64   H     H_    0.882053 0.110597 0.319990 0.276018

loop_
_geom_bond_atom_site_label_1
_geom_bond_atom_site_label_2
_geom_bond_distance
_ccdc_geom_bond_type
C14   N6    1.423173 S    
C62   H50   1.109212 S    
C53   N9    1.443762 S    
C68   H62   1.110869 S    
C35   H7    1.075635 S    
C13   C15   1.417499 A    
C36   H8    1.075214 S    
C58   H32   1.108692 S    
C41   C47   1.534216 S    
C63   C64   1.537787 S    
N1    C17   1.436231 S    
N11   C61   1.447849 S    
N6    H23   1.031050 S    
C62   H48   1.110382 S    
C42   C45   1.539925 S    
C5    N1    1.368112 A    
C57   H29   1.111367 S    
C11   H2    1.082593 S    
C19   C25   1.407631 A    
C52   C53   1.521568 S    
O1    C1    1.286875 A    
N1    C7    1.367274 A    
C46   C48   1.520434 S    
C65   H55   1.110955 S    
C50   N3    1.487206 S    
C59   H37   1.110452 S    
C7    O12   1.350283 S    
C40   H10   1.076875 S    
C60   H41   1.111098 S    
C42   H14   1.110291 S    
N9    H35   1.027320 S    
C64   H54   1.111025 S    
C66   C67   1.537653 S    
C14   C28   1.411285 A    
O4    Zn1   2.003297 S    
C43   H11   1.110531 S    
C50   H18   1.109994 S    
C39   H9    1.076720 S    
C31   C40   1.409689 A    
C35   C37   1.384629 A    
C37   H5    1.082810 S    
C32   C39   1.410263 A    
C4    C28   1.462354 S    
C66   H58   1.111173 S    
C13   N5    1.424028 S    
C41   H13   1.110302 S    
C48   N8    1.445283 S    
C67   H61   1.111065 S    
C6    N2    1.367678 A    
C61   H46   1.108983 S    
C42   C44   1.553519 S    
C66   H59   1.115610 S    
C25   C38   1.393712 A    
C55   H21   1.109569 S    
C19   C34   1.417862 A    
C44   C47   1.533400 S    
C43   C48   1.533283 S    
O2    C2    1.286606 A    
C5    C21   1.406134 A    
C49   N4    1.484722 S    
N6    C56   1.446606 S    
C8    O11   1.350575 S    
C65   H56   1.110496 S    
C31   C33   1.415354 A    
C42   C48   1.534187 S    
C9    H4    1.083055 S    
C57   H30   1.109309 S    
C32   C34   1.415692 A    
N10   C60   1.445626 S    
C60   H40   1.110054 S    
C63   H51   1.111037 S    
C67   C68   1.525618 S    
N7    C57   1.444922 S    
C59   H38   1.111259 S    
C11   C27   1.398434 A    
N5    H19   1.031103 S    
C49   C51   1.543142 S    
C29   C35   1.413791 A    
C60   H42   1.110925 S    
N9    C59   1.445928 S    
C41   C43   1.553423 S    
C9    C17   1.395684 A    
C12   H1    1.083899 S    
O5    C3    1.298443 A    
O7    Zn2   1.995367 S    
C10   C18   1.394933 A    
N5    C55   1.446061 S    
C65   H57   1.110774 S    
O7    C3    1.304358 A    
C13   C27   1.409440 A    
C36   C38   1.385114 A    
C56   H24   1.110122 S    
C7    C25   1.397176 A    
O6    C4    1.305365 A    
C16   N12   1.426761 S    
C8    C26   1.395826 A    
Zn1   N3    2.032720 S    
C67   H60   1.108773 S    
C58   H33   1.109103 S    
C55   H20   1.107599 S    
C45   C47   1.520258 S    
N10   H39   1.027132 S    
C51   N3    1.486340 S    
O3    Zn2   2.003299 S    
O8    C4    1.298910 A    
C51   C54   1.521700 S    
C6    O10   1.349134 S    
C56   H25   1.106949 S    
N4    C54   1.479206 S    
C55   H22   1.111288 S    
C52   H16   1.107453 S    
C15   N11   1.427056 S    
C44   C46   1.537713 S    
N12   H47   1.029738 S    
C54   N10   1.444888 S    
C20   C26   1.408043 A    
C47   N7    1.445402 S    
O4    C2    1.286783 A    
O1    Zn1   1.989248 S    
C64   C65   1.525798 S    
N11   H43   1.029550 S    
C49   H17   1.100875 S    
C30   C31   1.417530 A    
C12   C28   1.400305 A    
C61   H44   1.110361 S    
N2    C18   1.432978 S    
C30   C36   1.413585 A    
C62   H49   1.110599 S    
O6    Zn2   1.999567 S    
C21   C23   1.409844 A    
C10   C12   1.379490 A    
N2    C8    1.365778 A    
O3    C1    1.286585 A    
O8    Zn1   1.995370 S    
C51   H15   1.107328 S    
O13   C63   1.420011 S    
C5    O9    1.349425 S    
C20   C33   1.418250 A    
C68   H64   1.111074 S    
C26   C37   1.393966 A    
C57   H28   1.108067 S    
C1    C46   1.420454 S    
N8    C58   1.444697 S    
C64   H53   1.108250 S    
Zn2   N4    2.032721 S    
C14   C16   1.415809 A    
C15   C17   1.417535 A    
C38   H6    1.082138 S    
C59   H36   1.110153 S    
C6    C22   1.407849 A    
C16   C18   1.414061 A    
C10   H3    1.083251 S    
C52   N4    1.487781 S    
C22   C24   1.410595 A    
C19   C21   1.411462 A    
C50   C52   1.546992 S    
C43   C45   1.537904 S    
C58   H34   1.111562 S    
C20   C22   1.413419 A    
C9    C11   1.380166 A    
C50   C54   1.523350 S    
O2    Zn2   1.989246 S    
C29   C32   1.418077 A    
C49   C53   1.520310 S    
C23   C39   1.391109 A    
O5    Zn1   1.999562 S    
C56   H26   1.111710 S    
C24   C40   1.391236 A    
C68   H63   1.110517 S    
C23   O13   1.385142 S    
C3    C27   1.459507 S    
N7    H27   1.030478 S    
N12   C62   1.447068 S    
N3    C53   1.477612 S    
O14   C66   1.418685 S    
C44   H12   1.110502 S    
C41   C46   1.539498 S    
C63   H52   1.113859 S    
N8    H31   1.030336 S    
C29   C33   1.420680 A    
C24   O14   1.384697 S    
C30   C34   1.419932 A    
C61   H45   1.110436 S    
C2    C45   1.420287 S    
