data_mof_unit_3984.cif
_audit_creation_date              2012-12-10T17:19:25-0500
_audit_creation_method            fapswitch 2.2
_symmetry_space_group_name_H-M    P1
_symmetry_Int_Tables_number       1
_space_group_crystal_system       triclinic
_cell_length_a                    15.04988
_cell_length_b                    10.843411
_cell_length_c                    9.667912
_cell_angle_alpha                 91.20331
_cell_angle_beta                  89.896998
_cell_angle_gamma                 93.865095
_cell_volume                      1573.7904777

loop_
_atom_site_label
_atom_site_type_symbol
_atom_type_description
_atom_site_fract_x
_atom_site_fract_y
_atom_site_fract_z
_atom_type_partial_charge
C1    C     C_R   0.504929 0.262662 0.499669 0.872718
C2    C     C_R   0.914087 0.618568 0.502102 0.036481
C3    C     C_R   0.944683 0.282131 0.439891 0.555467
C4    C     C_R   0.036655 0.280935 0.445937 0.649608
C5    C     C_R   0.089455 0.391104 0.467091 -0.259808
C6    C     C_R   0.048802 0.504890 0.484230 -0.145880
C7    C     C_R   0.102106 0.616773 0.506133 -0.024576
C8    C     C_R   0.061551 0.730890 0.511659 -0.065748
C9    C     C_R   0.967902 0.732161 0.503244 -0.128287
C10   C     C_R   0.182250 0.389642 0.472613 0.630429
C11   C     C_R   0.233704 0.498768 0.499172 -0.274142
C12   C     C_R   0.329509 0.497451 0.499994 0.965026
C13   C     C_R   0.195159 0.610863 0.517950 0.480287
C14   C     C_R   0.545878 0.117667 0.756089 -0.111484
C15   C     C_R   0.512979 0.067970 0.880108 0.459242
C16   C     C_R   0.458201 0.959244 0.878100 0.565815
C17   C     C_R   0.444501 0.891959 0.754738 0.516106
C18   C     C_R   0.480187 0.939079 0.629522 -0.172945
C19   C     C_R   0.514547 0.063200 0.628127 -0.089944
C20   C     C_R   0.509446 0.127556 0.501188 -0.261419
C21   C     C_R   0.490831 0.059941 0.377996 0.633087
C22   C     C_R   0.480642 0.932471 0.378698 0.526148
C23   C     C_R   0.491226 0.736193 0.501366 0.987582
C24   C     C_R   0.479960 0.869814 0.504056 -0.218691
C25   C     C_R   0.623352 0.658126 0.145895 0.051225
C26   C     C_R   0.638075 0.778720 0.098382 -0.064818
C27   C     C_R   0.639155 0.791762 0.954187 -0.185681
C28   C     C_R   0.603639 0.691412 0.871576 0.648852
C29   C     C_R   0.552167 0.590112 0.929631 -0.060326
C30   C     C_R   0.556192 0.583410 0.077163 -0.074207
C31   C     C_R   0.446659 0.418911 0.071836 0.705495
C32   C     C_R   0.447966 0.417319 0.924271 0.599826
C33   C     C_R   0.670954 0.500651 0.499134 0.830172
C34   C     C_R   0.820401 0.613472 0.521903 -0.084598
C35   C     C_R   0.768490 0.502443 0.493474 -0.119998
C36   C     C_R   0.809038 0.397112 0.443192 -0.058288
C37   C     C_R   0.902493 0.394214 0.452923 -0.121391
C38   C     C_R   0.955075 0.505984 0.480272 0.050887
Cu1   Cu    Cu3+1 0.499990 0.499990 0.640660 1.130644
Cu2   Cu    Cu3+1 0.500010 0.500010 0.359340 1.114517
N1    N     N_R   0.500860 0.501210 0.147910 -0.274364
N2    N     N_R   0.500890 0.501290 0.852040 -0.270170
O1    O     O_R   0.499990 0.319640 0.618810 -0.570476
O2    O     O_R   0.500000 0.319660 0.381240 -0.497086
O3    O     O_R   0.370250 0.499960 0.618800 -0.507067
O4    O     O_R   0.370260 0.499980 0.381230 -0.544262
O5    O     O_R   0.500000 0.680340 0.618760 -0.481520
O6    O     O_R   0.500010 0.680360 0.381190 -0.553211
O7    O     O_R   0.629740 0.500020 0.618770 -0.520191
O8    O     O_R   0.629750 0.500040 0.381200 -0.638002
C39   C     C_2   0.777027 0.722845 0.576295 0.479204
H1    H     H_    0.805449 0.774065 0.665074 0.125663
O9    O     O_2   0.712293 0.759976 0.518571 -0.519752
C40   C     C_2   0.622292 0.211480 0.765219 0.549451
H2    H     H_    0.633727 0.267093 0.858970 0.088414
O10   O     O_2   0.675240 0.224212 0.670131 -0.571134
F1    F     F_    0.536578 0.122882 0.002962 -0.551744
F2    F     F_    0.422044 0.915168 0.997091 -0.491893
F3    F     F_    0.388492 0.788482 0.756479 -0.558537
F4    F     F_    0.467513 0.870934 0.256088 -0.546648
F5    F     F_    0.391355 0.335801 0.138098 -0.524408
C41   C     C_2   0.707800 0.596575 0.166194 0.348586
H3    H     H_    0.709481 0.497553 0.147591 0.111830
O11   O     O_2   0.776366 0.655013 0.202539 -0.569566
C42   C     C_2   0.668358 0.879376 0.197128 0.495096
H4    H     H_    0.692069 0.857177 0.298265 0.132085
O12   O     O_2   0.662844 0.987940 0.169660 -0.467200
C43   C     C_2   0.689676 0.898479 0.889388 0.440059
H5    H     H_    0.737047 0.957437 0.948951 0.140545
O13   O     O_2   0.680070 0.921225 0.767476 -0.496513
F6    F     F_    0.631965 0.688976 0.741972 -0.626211
C44   C     C_2   0.753254 0.295421 0.373155 0.581219
H6    H     H_    0.687304 0.268152 0.411110 0.063241
O14   O     O_2   0.778499 0.246757 0.266371 -0.460336
F7    F     F_    0.394059 0.332453 0.854400 -0.586579
F8    F     F_    0.897435 0.171156 0.431264 -0.562961
F9    F     F_    0.073525 0.170248 0.433521 -0.522909
F10   F     F_    0.223481 0.282703 0.453549 -0.555164
F11   F     F_    0.250150 0.712695 0.547316 -0.637722
C45   C     C_2   0.117027 0.849466 0.512998 0.676476
H7    H     H_    0.161666 0.871151 0.427298 0.107903
O15   O     O_2   0.115668 0.920733 0.612295 -0.392062
C46   C     C_2   0.927921 0.850298 0.471266 0.417253
H8    H     H_    0.880319 0.852366 0.387242 0.126652
O16   O     O_2   0.944292 0.943728 0.541671 -0.392446
F12   F     F_    0.481414 0.116510 0.255806 -0.480923

loop_
_geom_bond_atom_site_label_1
_geom_bond_atom_site_label_2
_ccdc_geom_bond_type
C8    C9    A    
C13   F11   S    
C29   N2    A    
C31   F5    S    
C35   C36   A    
C32   F7    S    
C10   F10   S    
C7    C8    A    
Cu2   O4    S    
C26   C27   A    
C29   C30   A    
C18   C24   A    
C28   C29   A    
C34   C35   A    
C22   F4    S    
C5    C6    A    
C45   H7    S    
C33   O7    A    
C15   C16   A    
C18   C19   A    
C41   O11   D    
C27   C43   S    
C21   F12   S    
C1    O1    A    
C31   C32   A    
C43   H5    S    
C42   O12   D    
C23   C24   S    
C6    C38   A    
C30   N1    A    
Cu1   O3    S    
C2    C34   A    
C21   C22   A    
C15   F1    S    
Cu1   N2    S    
C40   O10   D    
C23   O5    A    
C39   H1    S    
C44   H6    S    
C45   O15   D    
Cu1   Cu2   S    
C16   C17   A    
C4    F9    S    
C25   C26   A    
C39   O9    D    
C12   O4    A    
C37   C38   A    
C2    C38   A    
C1    O2    A    
C46   H8    S    
C7    C13   A    
C41   H3    S    
C17   C18   A    
C34   C39   S    
C16   F2    S    
C3    F8    S    
C17   F3    S    
C44   O14   D    
Cu2   N1    S    
C14   C40   S    
C9    C46   S    
C22   C24   A    
C28   F6    S    
C3    C4    A    
Cu1   O5    S    
C25   C30   A    
Cu2   O6    S    
C40   H2    S    
C36   C37   A    
C1    C20   S    
C23   O6    A    
C31   N1    A    
C46   O16   D    
C26   C42   S    
C14   C19   A    
C4    C5    A    
Cu1   O1    S    
C11   C12   S    
Cu1   O7    S    
C6    C7    A    
C12   O3    A    
C19   C20   A    
C33   O8    A    
C5    C10   A    
C11   C13   A    
Cu2   O8    S    
C33   C35   S    
C25   C41   S    
C10   C11   A    
Cu2   O2    S    
C20   C21   A    
C3    C37   A    
C43   O13   D    
C42   H4    S    
C27   C28   A    
C8    C45   S    
C32   N2    A    
C14   C15   A    
C2    C9    A    
C36   C44   S    
