data_mof_unit_1245.cif
_audit_creation_date              2012-12-10T19:48:37-0500
_audit_creation_method            fapswitch 2.2
_symmetry_space_group_name_H-M    P1
_symmetry_Int_Tables_number       1
_space_group_crystal_system       triclinic
_cell_length_a                    13.213865
_cell_length_b                    14.161536
_cell_length_c                    14.953757
_cell_angle_alpha                 89.745679
_cell_angle_beta                  89.463143
_cell_angle_gamma                 70.976221
_cell_volume                      2645.32463267

loop_
_atom_site_label
_atom_site_type_symbol
_atom_type_description
_atom_site_fract_x
_atom_site_fract_y
_atom_site_fract_z
_atom_type_partial_charge
C1    C     C_R   0.498864 0.500143 0.671924 0.896976
C2    C     C_R   0.983509 0.454407 0.473978 0.053736
C3    C     C_R   0.875126 0.472955 0.453552 0.024133
C4    C     C_R   0.029343 0.529279 0.455202 0.068650
C5    C     C_R   0.963377 0.627091 0.437010 0.038900
C6    C     C_R   0.861049 0.641040 0.404493 -0.218897
C7    C     C_R   0.823507 0.559290 0.401205 0.201760
C8    C     C_R   0.139159 0.508912 0.450274 0.100835
C9    C     C_R   0.112053 0.686475 0.470198 0.143382
C10   C     C_R   0.822013 0.408622 0.490000 -0.145498
C11   C     C_R   0.602586 0.425081 0.899340 0.018350
C12   C     C_R   0.704336 0.444741 0.497170 0.889643
C13   C     C_R   0.591237 0.427639 0.806950 -0.214764
C14   C     C_R   0.503314 0.498275 0.767316 -0.077521
C15   C     C_R   0.422990 0.566594 0.818543 0.182559
C16   C     C_R   0.433174 0.563070 0.910726 -0.153749
C17   C     C_R   0.522284 0.493975 0.950533 -0.071608
C18   C     C_R   0.541981 0.574141 0.093332 0.018409
C19   C     C_R   0.530781 0.576246 0.185912 -0.173744
C20   C     C_R   0.507060 0.498900 0.230921 -0.076808
C21   C     C_R   0.493518 0.418985 0.183692 -0.192900
C22   C     C_R   0.502209 0.417017 0.091712 -0.160882
C23   C     C_R   0.500311 0.500141 0.327364 0.862279
C24   C     C_R   0.525984 0.493978 0.046804 -0.007724
C25   C     C_R   0.473309 0.900927 0.582330 -0.075166
C26   C     C_R   0.480329 0.799328 0.578462 -0.074084
C27   C     C_R   0.512982 0.794158 0.422987 0.018377
C28   C     C_R   0.512527 0.893384 0.423705 -0.307142
C29   C     C_R   0.493768 0.948898 0.503608 0.102141
C30   C     C_R   0.447542 0.121190 0.433357 -0.274542
C31   C     C_R   0.451327 0.219206 0.432832 -0.002215
C32   C     C_R   0.551445 0.188788 0.566124 0.025921
C33   C     C_R   0.552346 0.089197 0.567704 -0.184416
C34   C     C_R   0.296125 0.554634 0.493715 0.895317
C35   C     C_R   0.497013 0.054531 0.502246 0.176053
C36   C     C_R   0.004743 0.706006 0.444777 -0.182009
C37   C     C_R   0.181215 0.585479 0.472321 -0.114727
C38   C     C_R   0.882814 0.317269 0.531811 0.182706
C39   C     C_R   0.992449 0.296874 0.543973 -0.126247
C40   C     C_R   0.040968 0.366259 0.519458 -0.217664
H1    H     H_    0.651950 0.376312 0.765154 0.176982
H2    H     H_    0.371847 0.614172 0.952186 0.152902
H3    H     H_    0.541622 0.637708 0.222920 0.185012
H4    H     H_    0.474896 0.358829 0.217594 0.154979
H5    H     H_    0.488698 0.356369 0.055104 0.153484
H6    H     H_    0.465448 0.762748 0.638298 0.128081
H7    H     H_    0.522788 0.755223 0.360063 0.126398
H8    H     H_    0.815320 0.711754 0.374482 0.156629
H9    H     H_    0.527008 0.926548 0.361550 0.156380
H10   H     H_    0.405539 0.097984 0.380422 0.145866
H11   H     H_    0.414934 0.268830 0.378510 0.128784
H12   H     H_    0.592614 0.215026 0.617660 0.130816
H13   H     H_    0.595387 0.039830 0.620169 0.138914
H14   H     H_    0.952937 0.782086 0.433963 0.147077
H15   H     H_    0.122394 0.352295 0.540799 0.173400
H16   H     H_    0.039840 0.229632 0.578214 0.162486
N1    N     N_R   0.500000 0.747530 0.500020 -0.085852
N2    N     N_R   0.499940 0.252470 0.500020 -0.092711
O1    O     O_R   0.499990 0.420530 0.630930 -0.617032
O2    O     O_R   0.499990 0.579480 0.630940 -0.621814
O3    O     O_R   0.653620 0.381060 0.499970 -0.615752
O4    O     O_R   0.653620 0.540010 0.499980 -0.592948
O5    O     O_R   0.500010 0.420520 0.369060 -0.628884
O6    O     O_R   0.500010 0.579470 0.369070 -0.640705
O7    O     O_R   0.346380 0.459990 0.500020 -0.602617
O8    O     O_R   0.346380 0.618940 0.500030 -0.609505
Zn1   Zn    Zn3+2 0.500000 0.393860 0.499990 0.942981
Zn2   Zn    Zn3+2 0.500000 0.606140 0.500010 0.939221
C41   C     C_3   0.150477 0.773424 0.489371 -0.842007
H17   H     H_    0.184956 0.765898 0.557505 0.246691
H18   H     H_    0.211492 0.776506 0.438916 0.255717
H19   H     H_    0.084019 0.845664 0.486649 0.226875
C42   C     C_3   0.325814 0.640669 0.776431 -0.902669
H20   H     H_    0.284346 0.600772 0.734003 0.236480
H21   H     H_    0.267869 0.683718 0.827672 0.241453
H22   H     H_    0.350107 0.694676 0.734686 0.242745
C43   C     C_2   0.570789 0.654738 0.046326 0.367823
H23   H     H_    0.585062 0.651231 0.974683 0.083309
O9    O     O_2   0.579649 0.726057 0.087227 -0.574795
C44   C     C_2   0.437433 0.953619 0.668239 0.353834
H24   H     H_    0.448919 0.911219 0.730141 0.069229
O10   O     O_2   0.389722 0.043299 0.670799 -0.549086
C45   C     C_3   0.203676 0.417777 0.396674 -0.857741
H25   H     H_    0.261416 0.436722 0.351389 0.235480
H26   H     H_    0.246977 0.355795 0.441549 0.249839
H27   H     H_    0.151273 0.390722 0.353056 0.236055
C46   C     C_3   0.833177 0.243200 0.569453 -0.853699
H28   H     H_    0.893653 0.177968 0.600847 0.231298
H29   H     H_    0.773117 0.279244 0.621891 0.243114
H30   H     H_    0.795103 0.213927 0.515092 0.249003
C47   C     C_3   0.742639 0.560486 0.331047 -0.843384
H31   H     H_    0.773373 0.573987 0.264491 0.237776
H32   H     H_    0.726839 0.488386 0.326949 0.218237
H33   H     H_    0.668083 0.621929 0.344903 0.251391
C48   C     C_2   0.698481 0.352583 0.941083 0.392375
H34   H     H_    0.710824 0.353351 0.012635 0.078578
O11   O     O_2   0.765467 0.291030 0.895857 -0.564315

loop_
_geom_bond_atom_site_label_1
_geom_bond_atom_site_label_2
_ccdc_geom_bond_type
O8    Zn2   S    
C46   H28   S    
C34   C37   S    
C42   H20   S    
C48   H34   S    
C32   N2    A    
C4    C8    A    
C34   O8    A    
C13   H1    S    
C43   H23   S    
C6    H8    S    
C30   C35   A    
C18   C24   A    
C5    C6    A    
O6    Zn2   S    
C31   N2    A    
C28   C29   A    
C9    C41   S    
C3    C7    A    
C1    O1    A    
C38   C39   A    
C27   H7    S    
C15   C16   A    
C25   C44   S    
C5    C36   A    
C18   C19   A    
C41   H18   S    
C32   H12   S    
O1    Zn1   S    
C39   H16   S    
C16   C17   A    
O7    Zn1   S    
C9    C36   A    
C23   O5    A    
C30   H10   S    
C21   C22   A    
C25   C29   A    
C42   H21   S    
C34   O7    A    
C19   H3    S    
C43   O9    D    
C33   H13   S    
O5    Zn1   S    
C17   C24   S    
C44   O10   D    
C27   N1    A    
C1    O2    A    
C47   H31   S    
C4    C5    A    
C25   C26   A    
C41   H19   S    
C2    C4    A    
C47   H32   S    
C21   H4    S    
C12   O4    A    
C28   H9    S    
O3    Zn1   S    
C45   H25   S    
C20   C23   S    
C40   H15   S    
C7    C47   S    
C45   H27   S    
C9    C37   A    
C10   C12   S    
C23   O6    A    
C45   H26   S    
C46   H29   S    
C42   H22   S    
C22   C24   A    
C8    C37   A    
N1    Zn2   S    
C16   H2    S    
C39   C40   A    
C11   C48   S    
C11   C17   A    
C15   C42   S    
C8    C45   S    
C31   H11   S    
C44   H24   S    
C48   O11   D    
C6    C7    A    
C29   C35   S    
O4    Zn2   S    
C38   C46   S    
C10   C38   A    
C32   C33   A    
C19   C20   A    
C2    C3    A    
C3    C10   A    
C47   H33   S    
C12   O3    A    
C11   C13   A    
C30   C31   A    
C18   C43   S    
C33   C35   A    
C41   H17   S    
C26   N1    A    
C36   H14   S    
C26   H6    S    
C2    C40   A    
N2    Zn1   S    
C22   H5    S    
C20   C21   A    
O2    Zn2   S    
C46   H30   S    
C27   C28   A    
C14   C15   A    
C1    C14   S    
C13   C14   A    
