data_mof_unit_4732.cif
_audit_creation_date              2012-12-11T17:00:22-0500
_audit_creation_method            fapswitch 2.2
_symmetry_space_group_name_H-M    P1
_symmetry_Int_Tables_number       1
_space_group_crystal_system       triclinic
_cell_length_a                    6.958796
_cell_length_b                    13.512546
_cell_length_c                    20.283495
_cell_angle_alpha                 103.05895
_cell_angle_beta                  90.102271
_cell_angle_gamma                 90.466865
_cell_volume                      1857.87796663

loop_
_atom_site_label
_atom_site_type_symbol
_atom_type_description
_atom_site_fract_x
_atom_site_fract_y
_atom_site_fract_z
_atom_type_partial_charge
O1    O     O_R   0.506770 0.599700 0.449550 -0.538143
O2    O     O_R   0.179980 0.595740 0.587960 -0.544921
O3    O     O_R   0.004580 0.400300 0.550450 -0.538438
C1    C     C_R   0.348414 0.617768 0.615056 0.694785
O4    O     O_R   0.177380 0.611700 0.452380 -0.540277
O5    O     O_R   0.001970 0.416370 0.413900 -0.542721
C2    C     C_R   0.346345 0.638787 0.435976 0.696940
O6    O     O_R   0.509390 0.583630 0.586100 -0.536942
O7    O     O_3   0.337530 0.435890 0.487530 -0.371841
V1    V     V_3+5 0.064660 0.511890 0.502310 1.403795
O8    O     O_R   0.671950 0.404260 0.412040 -0.543031
C3    C     C_R   0.840146 0.384956 0.384064 0.694060
O9    O     O_R   0.674540 0.388300 0.547620 -0.540841
C4    C     C_R   0.843338 0.358276 0.562098 0.723108
V2    V     V_3+5 0.564030 0.488110 0.497690 1.406122
O10   O     O_3   0.841030 0.564110 0.512470 -0.370345
C5    C     C_R   0.862682 0.101318 0.610652 -0.222292
H1    H     H_    0.873023 0.978730 0.695005 0.117069
H2    H     H_    0.867292 0.020564 0.587630 0.111110
C6    C     C_R   0.851175 0.276650 0.599844 -0.037466
C7    C     C_R   0.856221 0.318487 0.928878 -0.171931
C8    C     C_R   0.849807 0.394002 0.892366 -0.119507
C9    C     C_R   0.849637 0.368869 0.821770 -0.158934
C10   C     C_R   0.855953 0.266226 0.785514 0.084632
C11   C     C_R   0.861951 0.189161 0.823528 0.071934
C12   C     C_R   0.856521 0.237219 0.713020 0.071554
C13   C     C_R   0.862543 0.132663 0.681088 0.126106
C14   C     C_R   0.868292 0.058854 0.719387 -0.195646
C15   C     C_R   0.868037 0.086451 0.789364 -0.198040
C16   C     C_R   0.851308 0.307881 0.670976 -0.260504
C17   C     C_R   0.856717 0.170687 0.568771 0.131899
C18   C     C_R   0.862121 0.216252 0.895240 -0.076799
H3    H     H_    0.846766 0.388561 0.692045 0.101547
H4    H     H_    0.856507 0.339834 0.983693 0.101668
H5    H     H_    0.844442 0.431663 0.797253 0.106201
H6    H     H_    0.845033 0.472986 0.919036 0.118439
H7    H     H_    0.872605 0.026145 0.816502 0.108017
C19   C     C_R   0.713572 0.254668 0.202397 0.097998
C20   C     C_R   0.867409 0.188451 0.182628 -0.108885
C21   C     C_R   0.021299 0.194395 0.228635 -0.170036
H8    H     H_    0.142741 0.144570 0.215760 0.129915
C22   C     C_R   0.013541 0.259248 0.293631 -0.185602
H9    H     H_    0.129936 0.257997 0.328775 0.131218
C23   C     C_R   0.850757 0.319329 0.314840 -0.101427
C24   C     C_R   0.705252 0.318237 0.266910 0.103608
C25   C     C_3   0.495146 0.300363 0.272412 -0.413920
C26   C     C_3   0.504047 0.231545 0.202043 -0.399036
H10   H     H_    0.410577 0.370430 0.274458 0.167980
H11   H     H_    0.462028 0.258835 0.312539 0.170306
H12   H     H_    0.425034 0.261897 0.163309 0.172449
H13   H     H_    0.475436 0.150329 0.201326 0.165519
C27   C     C_R   0.499976 0.678915 0.730004 0.102248
C28   C     C_R   0.351908 0.683850 0.684182 -0.110611
C29   C     C_R   0.196382 0.748448 0.708065 -0.176257
H14   H     H_    0.077711 0.754199 0.674726 0.128480
C30   C     C_R   0.197811 0.811197 0.773776 -0.172143
H15   H     H_    0.081286 0.863728 0.788921 0.125859
C31   C     C_R   0.355037 0.811458 0.817510 -0.109934
C32   C     C_R   0.502017 0.741588 0.794854 0.100308
C33   C     C_3   0.713388 0.759165 0.792408 -0.399573
C34   C     C_3   0.710961 0.690714 0.721837 -0.406039
H16   H     H_    0.792998 0.726382 0.829889 0.171349
H17   H     H_    0.748828 0.839642 0.792856 0.166031
H18   H     H_    0.788672 0.618193 0.718531 0.166651
H19   H     H_    0.745167 0.731368 0.681346 0.167858
C35   C     C_R   0.357335 0.892504 0.389809 -0.164086
H20   H     H_    0.353252 0.842593 0.482993 0.101498
H21   H     H_    0.358625 0.018456 0.306761 0.120602
H22   H     H_    0.357679 0.972067 0.415619 0.111381
C36   C     C_R   0.354978 0.716294 0.396211 -0.029449
C37   C     C_R   0.356460 0.682070 0.069658 -0.170301
C38   C     C_R   0.353576 0.605459 0.105179 -0.119669
C39   C     C_R   0.353361 0.629255 0.175697 -0.158592
C40   C     C_R   0.355468 0.731650 0.212856 0.076255
C41   C     C_R   0.356718 0.809889 0.175995 0.070753
C42   C     C_R   0.356600 0.759009 0.285188 0.071318
C43   C     C_R   0.357596 0.863588 0.318803 0.147549
C44   C     C_R   0.358100 0.938638 0.281477 -0.206976
C45   C     C_R   0.357766 0.912376 0.211273 -0.198491
C46   C     C_R   0.356216 0.686299 0.325591 -0.213029
C47   C     C_R   0.355250 0.819183 0.428265 -0.183030
C48   C     C_R   0.357864 0.783918 0.104288 -0.075008
H23   H     H_    0.355175 0.605724 0.304087 0.090964
H24   H     H_    0.358116 0.661903 0.014821 0.101284
H25   H     H_    0.351616 0.565499 0.199334 0.105786
H26   H     H_    0.352299 0.526734 0.077826 0.118364
H27   H     H_    0.357928 0.973436 0.184764 0.107903
O11   O     O_R   0.203450 0.916320 0.913910 -0.541420
O12   O     O_R   0.535520 0.888300 0.047620 -0.539201
O13   O     O_R   0.710860 0.083650 0.086100 -0.538487
C49   C     C_R   0.366642 0.861730 0.064437 0.688891
O14   O     O_R   0.532860 0.904250 0.912040 -0.542243
O15   O     O_R   0.708190 0.099710 0.949550 -0.536873
C50   C     C_R   0.364237 0.882650 0.884791 0.698072
O16   O     O_R   0.206120 0.900260 0.050460 -0.538156
O17   O     O_3   0.375280 0.064080 0.012470 -0.370685
V3    V     V_3+5 0.648180 0.988110 0.997690 1.414606
O18   O     O_R   0.038220 0.111740 0.952370 -0.539500
C51   C     C_R   0.869706 0.138959 0.935916 0.687207
O19   O     O_R   0.040880 0.095790 0.087940 -0.545434
C52   C     C_R   0.872794 0.117239 0.115251 0.695916
V4    V     V_3+5 0.148800 0.011950 0.002300 1.409713
O20   O     O_3   0.871820 0.935920 0.987530 -0.370034
C53   C     C_3   0.857537 0.120298 0.493428 -0.389819
C54   C     C_3   0.850595 0.187048 0.442749 -0.768837
H28   H     H_    0.714553 0.230101 0.448194 0.228940
H29   H     H_    0.979032 0.237335 0.448749 0.225014
H30   H     H_    0.853268 0.138250 0.390740 0.218003
H31   H     H_    0.989304 0.073376 0.482559 0.187154
H32   H     H_    0.732367 0.067263 0.482620 0.187468

loop_
_geom_bond_atom_site_label_1
_geom_bond_atom_site_label_2
_ccdc_geom_bond_type
O17   V4    S    
C1    C28   S    
C39   C40   A    
C1    O6    A    
C2    C36   S    
C45   H27   S    
C6    C16   A    
C28   C29   A    
C23   C24   A    
C54   H29   S    
C25   H11   S    
C12   C13   A    
C40   C42   A    
C33   H17   S    
C14   C15   A    
C10   C12   A    
C27   C34   S    
O5    C3    A    
C53   H31   S    
C35   H22   S    
V2    O10   S    
C30   H15   S    
C33   H16   S    
C36   C47   A    
C19   C24   A    
C29   H14   S    
O8    V2    S    
C9    C10   A    
O1    V2    S    
O12   C49   A    
O7    V1    S    
O15   C51   A    
O13   V3    S    
O16   V4    S    
C43   C44   A    
C37   C48   A    
C11   C18   A    
C21   C22   A    
C32   C33   S    
O9    C4    A    
H21   C44   S    
C22   C23   A    
C46   H23   S    
O19   V4    S    
C53   C54   S    
C54   H30   S    
O14   V3    S    
C20   C52   S    
C26   H12   S    
C29   C30   A    
C11   C15   A    
C7    C18   A    
O11   C50   A    
C40   C41   A    
C36   C46   A    
C5    C13   A    
C4    C6    S    
H1    C14   S    
C10   C11   A    
C20   C21   A    
O4    C2    A    
C44   C45   A    
C26   H13   S    
C7    H4    S    
C31   C32   A    
C24   C25   S    
C48   C49   S    
O12   V3    S    
C33   C34   S    
C34   H18   S    
O2    C1    A    
O13   C52   A    
C27   C32   A    
O11   V4    S    
O17   V3    S    
O14   C50   A    
C42   C43   A    
C39   H25   S    
C19   C26   S    
V3    O20   S    
O3    C4    A    
C21   H8    S    
H20   C47   S    
O6    V2    S    
C9    H5    S    
O9    V2    S    
C5    C17   A    
C22   H9    S    
O2    V1    S    
O15   V3    S    
C27   C28   A    
C37   H24   S    
C35   C43   A    
C25   C26   S    
C16   H3    S    
O1    C2    A    
C42   C46   A    
C38   C39   A    
O5    V1    S    
C38   H26   S    
O8    C3    A    
C41   C48   A    
C12   C16   A    
C8    H6    S    
C54   H28   S    
C18   C51   S    
C17   C53   S    
O7    V2    S    
O4    V1    S    
C3    C23   S    
O3    V1    S    
O18   V4    S    
C35   C47   A    
C53   H32   S    
C19   C20   A    
O19   C52   A    
C5    H2    S    
C30   C31   A    
C31   C50   S    
V4    O20   S    
C49   O16   A    
C25   H10   S    
C34   H19   S    
C37   C38   A    
O18   C51   A    
C15   H7    S    
C13   C14   A    
C8    C9    A    
V1    O10   S    
C7    C8    A    
C41   C45   A    
C6    C17   A    
