data_mof_unit_4358.cif
_audit_creation_date              2013-03-05T16:06:41-0500
_audit_creation_method            fapswitch 2.2
_symmetry_space_group_name_H-M    P1
_symmetry_Int_Tables_number       1
_space_group_crystal_system       triclinic
_cell_length_a                    10.808972
_cell_length_b                    9.518779
_cell_length_c                    15.134354
_cell_angle_alpha                 89.960324
_cell_angle_beta                  90.281294
_cell_angle_gamma                 89.902018
_cell_volume                      1557.12525315

loop_
_atom_site_label
_atom_site_type_symbol
_atom_site_description
_atom_site_fract_x
_atom_site_fract_y
_atom_site_fract_z
_atom_type_partial_charge
O1    O     O_R   0.319640 0.618740 0.499990 -0.557347
O2    O     O_R   0.680360 0.381260 0.500010 -0.557360
O3    O     O_R   0.680360 0.618740 0.500010 -0.563467
O4    O     O_R   0.319640 0.381260 0.499990 -0.562758
N1    N     N_R   0.500000 0.852070 0.500000 -0.181817
N2    N     N_R   0.500000 0.147930 0.500000 -0.179775
C1    C     C_R   0.262367 0.500176 0.499575 0.949931
C2    C     C_R   0.737619 0.499826 0.500461 0.949063
O5    O     O_R   0.499990 0.618780 0.371460 -0.609210
O6    O     O_R   0.500010 0.381220 0.628540 -0.607441
O7    O     O_R   0.500010 0.618780 0.628540 -0.569501
O8    O     O_R   0.499990 0.381220 0.371460 -0.567947
C3    C     C_R   0.500188 0.500025 0.329922 0.852513
C4    C     C_R   0.500078 0.499968 0.670071 0.851807
Cu1   Cu    Cu3+1 0.500000 0.640660 0.500000 1.036059
Cu2   Cu    Cu3+1 0.500000 0.359340 0.500000 1.038209
H1    H     H_    0.366136 0.130890 0.397641 0.169936
H2    H     H_    0.633919 0.869120 0.602323 0.175024
H3    H     H_    0.634238 0.130132 0.602166 0.135978
H4    H     H_    0.365748 0.869880 0.397847 0.141397
C5    C     C_R   0.425576 0.074625 0.443217 0.028011
C6    C     C_R   0.574442 0.925379 0.556771 0.026245
C7    C     C_R   0.574513 0.074209 0.556734 0.027531
C8    C     C_R   0.425485 0.925796 0.443269 0.025859
C9    C     C_R   0.063913 0.411829 0.440546 0.236551
C10   C     C_R   0.936036 0.588118 0.559556 0.232821
C11   C     C_R   0.934824 0.410777 0.441936 0.232765
C12   C     C_R   0.065126 0.589236 0.558102 0.237119
C13   C     C_R   0.538397 0.620108 0.095363 -0.139375
C14   C     C_R   0.539491 0.380114 0.904856 -0.138401
C15   C     C_R   0.463094 0.619957 0.904636 -0.147567
C16   C     C_R   0.464210 0.379672 0.095086 -0.147243
H5    H     H_    0.569613 0.713302 0.061052 0.141457
H6    H     H_    0.571579 0.287169 0.939378 0.140899
H7    H     H_    0.431247 0.712901 0.938966 0.140582
H8    H     H_    0.433213 0.286471 0.060546 0.139609
C17   C     C_R   0.537154 0.620471 0.187191 -0.157490
C18   C     C_R   0.538238 0.379771 0.813016 -0.151255
C19   C     C_R   0.463570 0.620277 0.812810 -0.097715
C20   C     C_R   0.464697 0.379384 0.186919 -0.090964
H9    H     H_    0.566342 0.714283 0.221940 0.162099
H10   H     H_    0.568327 0.286234 0.778441 0.152790
H11   H     H_    0.433251 0.713844 0.778078 0.176301
H12   H     H_    0.435238 0.285575 0.221441 0.167256
C21   C     C_R   0.500633 0.499992 0.233454 -0.003797
C22   C     C_R   0.500573 0.499968 0.766524 -0.003358
C23   C     C_R   0.501430 0.499899 0.048557 0.098664
C24   C     C_R   0.501418 0.500013 0.951415 0.098319
C25   C     C_R   0.871522 0.499178 0.501043 -0.353535
C26   C     C_R   0.128439 0.500826 0.499011 -0.352011
N3    N     N_R   0.128862 0.329888 0.375831 0.150167
O9    O     O_R   0.110516 0.195208 0.369880 -0.299756
O10   O     O_R   0.205244 0.390321 0.321644 -0.393563
N4    N     N_R   0.871090 0.670150 0.624256 0.151287
O11   O     O_R   0.890333 0.804613 0.630696 -0.297410
O12   O     O_R   0.794002 0.609992 0.678066 -0.382769
N5    N     N_R   0.867965 0.328058 0.378615 0.171386
O13   O     O_R   0.807927 0.389489 0.314638 -0.359855
O14   O     O_R   0.853684 0.193966 0.391567 -0.280514
N6    N     N_R   0.131985 0.671916 0.621419 0.169713
O15   O     O_R   0.190430 0.610554 0.686155 -0.370171
O16   O     O_R   0.147626 0.805683 0.607962 -0.283976

loop_
_geom_bond_atom_site_label_1
_geom_bond_atom_site_label_2
_geom_bond_distance
_ccdc_geom_bond_type
O4    Cu2   1.960285 S    
C11   C25   1.407673 A    
H3    C7    1.081761 S    
C9    N3    1.437500 S    
O2    C2    1.288103 A    
O1    Cu1   1.960994 S    
C9    C11   1.395635 A    
N2    Cu2   2.012366 S    
O2    Cu2   1.960993 S    
C10   C12   1.395676 A    
C23   C24   1.470188 S    
N1    Cu1   2.012365 S    
C16   C20   1.389817 A    
O5    Cu1   1.956630 S    
C4    C22   1.459746 S    
O6    Cu2   1.956630 S    
C10   C25   1.408619 A    
C3    C21   1.460007 S    
N5    O13   1.300891 A    
N1    C8    1.367051 A    
O7    Cu1   1.956343 S    
C13   C23   1.403800 A    
C19   C22   1.401580 A    
O8    Cu2   1.956343 S    
N2    C7    1.367044 A    
C16   H8    1.082825 S    
C14   C24   1.403844 A    
C16   C23   1.403796 A    
C15   C19   1.389774 A    
C18   H10   1.083350 S    
N4    O12   1.301177 A    
C15   C24   1.403818 A    
C12   N6    1.433908 S    
C17   H9    1.083278 S    
C20   C21   1.401729 A    
C10   N4    1.437800 S    
O7    C4    1.293489 A    
C15   H7    1.082824 S    
C18   C22   1.401550 A    
N5    O14   1.300788 A    
C14   H6    1.082834 S    
C17   C21   1.401562 A    
Cu1   Cu2   2.677823 S    
C13   H5    1.082835 S    
C20   H12   1.083368 S    
O3    Cu1   1.960284 S    
O8    C3    1.293497 A    
C14   C18   1.389951 A    
N6    O16   1.300794 A    
O3    C2    1.289135 A    
C11   N5    1.434154 S    
C5    C8    1.416671 A    
C13   C17   1.389904 A    
O5    C3    1.293837 A    
N4    O11   1.300715 A    
O1    C1    1.288156 A    
C19   H11   1.083333 S    
O4    C1    1.289222 A    
H2    C6    1.081347 S    
N2    C5    1.366935 A    
C12   C26   1.407629 A    
C2    C25   1.447339 S    
H4    C8    1.081718 S    
C6    C7    1.416677 A    
C9    C26   1.408554 A    
N1    C6    1.366954 A    
N3    O9    1.300688 A    
C1    C26   1.447620 S    
O6    C4    1.293715 A    
N6    O15   1.300768 A    
N3    O10   1.301039 A    
H1    C5    1.081367 S    
