data_mof_unit_4962.cif
_audit_creation_date              2012-12-11T15:54:01-0500
_audit_creation_method            fapswitch 2.2
_symmetry_space_group_name_H-M    P1
_symmetry_Int_Tables_number       1
_space_group_crystal_system       triclinic
_cell_length_a                    10.647925
_cell_length_b                    10.695048
_cell_length_c                    16.835663
_cell_angle_alpha                 80.800013
_cell_angle_beta                  99.085197
_cell_angle_gamma                 118.163405
_cell_volume                      1661.00785908

loop_
_atom_site_label
_atom_site_type_symbol
_atom_type_description
_atom_site_fract_x
_atom_site_fract_y
_atom_site_fract_z
_atom_type_partial_charge
Br1   Br    Br    0.980278 0.308874 0.833530 -0.507596
C1    C     C_R   0.357811 0.221892 0.625711 0.542447
C2    C     C_1   0.292465 0.107301 0.771520 -0.037640
C3    C     C_1   0.317355 0.685939 0.281051 -0.035634
C4    C     C_R   0.414432 0.620250 0.601689 0.598266
C5    C     C_1   0.296019 0.710538 0.210058 -0.041358
C6    C     C_R   0.777089 0.638460 0.142626 0.007714
C7    C     C_R   0.742903 0.507486 0.189652 0.057536
C8    C     C_R   0.712318 0.489420 0.267641 -0.029038
C9    C     C_R   0.693966 0.706070 0.248081 -0.155240
C10   C     C_R   0.728277 0.726655 0.167331 -0.166092
C11   C     C_3   0.790554 0.392827 0.207022 0.153693
C12   C     C_R   0.516687 0.716532 0.735687 0.219161
C13   C     C_3   0.769125 0.385173 0.295115 -0.203677
C14   C     C_R   0.703792 0.594177 0.302072 -0.000071
C15   C     C_R   0.269024 0.058482 0.181189 0.004686
C16   C     C_R   0.779506 0.620069 0.625984 0.554094
C17   C     C_R   0.164647 0.070070 0.214328 0.004891
C18   C     C_R   0.183686 0.101763 0.292654 0.018969
C19   C     C_R   0.408333 0.094401 0.312531 -0.155103
C20   C     C_R   0.390329 0.064647 0.232033 -0.163759
C21   C     C_3   0.015929 0.959066 0.223077 -0.269224
C22   C     C_3   0.036103 0.991861 0.309200 -0.266607
C23   C     C_R   0.494215 0.724544 0.814298 -0.144361
C24   C     C_R   0.309162 0.124219 0.340678 0.018572
C25   C     C_R   0.891113 0.701830 0.856078 0.542442
C26   C     C_R   0.317011 0.704931 0.899730 0.546002
C27   C     C_R   0.251705 0.056548 0.851318 0.556937
C28   C     C_R   0.347795 0.216493 0.404372 0.540471
C29   C     C_R   0.876966 0.686145 0.080088 0.538515
C30   C     C_R   0.284074 0.739715 0.125192 0.544884
C31   C     C_R   0.247190 0.038447 0.095631 0.547558
C32   C     C_R   0.362069 0.657873 0.362306 0.550656
C33   C     C_R   0.698875 0.582338 0.389536 0.577566
C34   C     C_3   0.098494 0.487849 0.773835 0.049287
C35   C     C_R   0.356198 0.648125 0.840298 -0.037976
C36   C     C_R   0.254292 0.534961 0.797764 0.059320
C37   C     C_R   0.278190 0.519380 0.722607 -0.040547
C38   C     C_3   0.677934 0.949361 0.701941 0.017237
C39   C     C_3   0.800124 0.039841 0.649379 -0.329918
C40   C     C_3   0.949731 0.334771 0.162842 0.018452
C41   C     C_3   0.092332 0.337304 0.192988 -0.342262
C42   C     C_3   0.124296 0.469474 0.691301 -0.223881
C43   C     C_R   0.402738 0.618705 0.686979 0.004697
C44   C     C_1   0.826721 0.658018 0.705248 -0.002477
C45   C     C_1   0.853149 0.685585 0.773454 0.004265
C46   C     C_1   0.328580 0.154084 0.704858 -0.042213
Cr1   Cr    Cr6+3 0.608440 0.389080 0.519680 1.000849
Cr2   Cr    Cr6+3 0.288640 0.400090 0.490760 1.003825
Cr3   Cr    Cr6+3 0.602940 0.710800 0.489510 1.006520
Cr4   Cr    Cr6+3 0.052530 0.947560 0.964210 1.044948
Cr5   Cr    Cr6+3 0.059970 0.626800 0.992920 1.043400
Cr6   Cr    Cr6+3 0.373320 0.938440 0.995370 1.012487
H1    H     H_    0.709224 0.296629 0.177003 0.088096
H2    H     H_    0.579711 0.802523 0.850764 0.148446
H3    H     H_    0.067024 0.573582 0.772554 0.130158
H4    H     H_    0.072641 0.357022 0.676874 0.176353
H5    H     H_    0.107699 0.545102 0.642494 0.125405
H6    H     H_    0.672937 0.783968 0.269495 0.147533
H7    H     H_    0.733983 0.820044 0.128761 0.135344
H8    H     H_    0.712588 0.987192 0.763185 0.160107
H9    H     H_    0.583592 0.965990 0.675038 0.136893
H10   H     H_    0.823861 0.153401 0.645367 0.110972
H11   H     H_    0.897592 0.029598 0.675991 0.166509
H12   H     H_    0.689266 0.280343 0.318509 0.093375
H13   H     H_    0.770062 0.004657 0.587559 0.158614
H14   H     H_    0.943371 0.358266 0.096020 0.179517
H15   H     H_    0.867062 0.223254 0.178377 0.082401
H16   H     H_    0.090932 0.294649 0.257459 0.159131
H17   H     H_    0.111268 0.273896 0.154914 0.126317
H18   H     H_    0.182092 0.444857 0.188496 0.187484
H19   H     H_    0.871156 0.431025 0.334741 0.179168
H20   H     H_    0.499819 0.097705 0.352063 0.123925
H21   H     H_    0.471082 0.048574 0.209726 0.130272
H22   H     H_    0.004294 0.851691 0.218423 0.150851
H23   H     H_    0.939918 0.991514 0.184107 0.135670
H24   H     H_    0.968494 0.039447 0.320660 0.137416
H25   H     H_    0.034287 0.902989 0.354363 0.155862
O1    O     O_R   0.754020 0.497590 0.609930 -0.506275
O2    O     O_R   0.406180 0.826930 0.920660 -0.525990
O3    O     O_R   0.358620 0.062870 0.901950 -0.476861
O4    O     O_R   0.481420 0.271390 0.600630 -0.493073
O5    O     O_R   0.163910 0.085460 0.050210 -0.480781
O6    O     O_R   0.935200 0.815170 0.045770 -0.528077
O7    O     O_R   0.916120 0.596690 0.069430 -0.478063
O8    O     O_R   0.192310 0.631200 0.086170 -0.480395
O9    O     O_R   0.406770 0.819480 0.096420 -0.525357
O10   O     O_R   0.359170 0.055960 0.064880 -0.509338
O11   O     O_3   0.161940 0.837600 0.984160 -0.323629
O12   O     O_R   0.295080 0.533620 0.397890 -0.487077
O13   O     O_R   0.263810 0.254550 0.589590 -0.522819
O14   O     O_R   0.300820 0.531200 0.560890 -0.512811
O15   O     O_R   0.491480 0.744020 0.564270 -0.487320
O16   O     O_R   0.726290 0.693800 0.583010 -0.479370
O17   O     O_R   0.747830 0.500190 0.434090 -0.520943
O18   O     O_R   0.475680 0.273800 0.437630 -0.520879
O19   O     O_R   0.257620 0.257160 0.413750 -0.515663
O20   O     O_3   0.647546 0.804927 0.705398 -0.549650
O21   O     O_3   0.936125 0.438834 0.198147 -0.531641
O22   O     O_R   0.485280 0.746620 0.388440 -0.533590
O23   O     O_R   0.720550 0.696220 0.420010 -0.512743
O24   O     O_3   0.500010 0.499990 0.499980 -0.293781
O25   O     O_R   0.163320 0.092900 0.874450 -0.449756
O26   O     O_R   0.934650 0.822080 0.882840 -0.504891
O27   O     O_R   0.915520 0.604140 0.893670 -0.497461
O28   O     O_R   0.191760 0.638110 0.923230 -0.473258

loop_
_geom_bond_atom_site_label_1
_geom_bond_atom_site_label_2
_ccdc_geom_bond_type
C15   C20   A    
Cr1   O17   S    
C40   C41   S    
C21   H23   S    
Cr2   O12   S    
C6    C7    A    
C40   H14   S    
C16   O1    A    
C44   C45   T    
C23   H2    S    
C6    C10   A    
C23   C35   A    
C39   H10   S    
Cr1   O1    S    
C35   C36   A    
C34   C36   S    
C16   C44   S    
C9    C14   A    
C19   C24   A    
Cr4   O25   S    
C31   O10   A    
C41   H17   S    
Cr6   O3    S    
C17   C18   A    
C12   O20   S    
C31   O5    A    
C11   O21   S    
C42   H5    S    
C25   O26   A    
C7    C8    A    
C40   O21   S    
C34   C42   S    
C14   C33   S    
C5    C30   S    
C34   H3    S    
Cr5   O28   S    
C30   O8    A    
C39   H13   S    
Cr5   O11   S    
C21   H22   S    
Cr2   O13   S    
C25   O27   A    
C40   H15   S    
C24   C28   S    
C38   H8    S    
C33   O23   A    
C30   O9    A    
Cr6   O2    S    
C33   O17   A    
C3    C5    T    
C26   O2    A    
Cr2   O24   S    
C25   C45   S    
Cr3   O16   S    
C38   O20   S    
C26   O28   A    
Cr4   O26   S    
C20   H21   S    
C41   H16   S    
C12   C23   A    
C18   C22   S    
C8    C13   S    
C37   C43   A    
C36   C37   A    
C7    C11   S    
Cr1   O24   S    
Cr6   O9    S    
C22   H24   S    
C29   O7    A    
C4    C43   S    
C11   C13   S    
Cr5   O27   S    
Cr3   O24   S    
Cr6   O11   S    
C26   C35   S    
C1    O4    A    
C2    C27   S    
Cr2   O14   S    
C10   H7    S    
Cr4   O5    S    
C38   C39   S    
Br1   C34   S    
C38   H9    S    
C3    C32   S    
Cr5   O7    S    
Cr1   O18   S    
C27   O3    A    
C17   C21   S    
C13   H19   S    
C28   O18   A    
C4    O15   A    
Cr3   O15   S    
C1    C46   S    
C15   C31   S    
Cr3   O22   S    
C39   H11   S    
C28   O19   A    
C32   O22   A    
Cr5   O8    S    
C9    H6    S    
C8    C14   A    
C37   C42   S    
C32   O12   A    
Cr4   O11   S    
C27   O25   A    
C2    C46   T    
C41   H18   S    
C13   H12   S    
Cr1   O4    S    
C19   H20   S    
Cr6   O10   S    
C22   H25   S    
C29   O6    A    
C1    O13   A    
C18   C24   A    
C4    O14   A    
C9    C10   A    
C42   H4    S    
Cr2   O19   S    
C19   C20   A    
Cr3   O23   S    
C15   C17   A    
C6    C29   S    
C21   C22   S    
C16   O16   A    
Cr4   O6    S    
C12   C43   A    
C11   H1    S    
