data_mof_unit_3304.cif
_audit_creation_date              2012-12-11T14:58:37-0500
_audit_creation_method            fapswitch 2.2
_symmetry_space_group_name_H-M    P1
_symmetry_Int_Tables_number       1
_space_group_crystal_system       triclinic
_cell_length_a                    11.018885
_cell_length_b                    11.068078
_cell_length_c                    18.770014
_cell_angle_alpha                 90.227739
_cell_angle_beta                  90.863116
_cell_angle_gamma                 58.972877
_cell_volume                      1961.38536172

loop_
_atom_site_label
_atom_site_type_symbol
_atom_type_description
_atom_site_fract_x
_atom_site_fract_y
_atom_site_fract_z
_atom_type_partial_charge
C1    C     C_R   0.356213 0.773033 0.397773 0.536981
C2    C     C_R   0.265412 0.442964 0.196298 -0.164860
C3    C     C_R   0.242806 0.450570 0.269662 -0.035428
C4    C     C_R   0.381021 0.353498 0.388369 0.534499
C5    C     C_R   0.809633 0.750179 0.330082 -0.075570
C6    C     C_R   0.838271 0.665137 0.270044 0.005278
C7    C     C_R   0.978714 0.570376 0.251083 -0.147661
C8    C     C_R   0.093058 0.557269 0.291712 -0.021779
C9    C     C_R   0.348679 0.337647 0.313136 -0.018263
C10   C     C_R   0.954555 0.302525 0.308916 -0.108025
C11   C     C_R   0.984821 0.287637 0.236795 -0.090013
C12   C     C_R   0.616569 0.080455 0.179580 0.008294
C13   C     C_R   0.875856 0.328463 0.185868 0.063026
C14   C     C_R   0.737524 0.376061 0.206446 -0.074974
C15   C     C_R   0.707571 0.388448 0.278615 -0.034963
C16   C     C_R   0.776327 0.378875 0.403059 0.531996
C17   C     C_R   0.815744 0.353436 0.329500 0.063637
C18   C     C_R   0.347974 0.713823 0.274365 -0.069894
C19   C     C_R   0.347621 0.737687 0.202143 -0.062922
C20   C     C_R   0.343206 0.859381 0.179102 0.080089
C21   C     C_R   0.332305 0.960119 0.228810 -0.104917
C22   C     C_R   0.337549 0.934056 0.301469 -0.090679
C23   C     C_R   0.371268 0.320358 0.164092 -0.009572
C24   C     C_R   0.345552 0.810465 0.323876 0.094567
C25   C     C_R   0.382124 0.198500 0.692900 -0.122539
C26   C     C_R   0.369036 0.184714 0.764791 -0.107800
C27   C     C_R   0.294412 0.305188 0.807685 0.028435
C28   C     C_R   0.345970 0.766844 0.605123 0.546626
C29   C     C_R   0.219921 0.439003 0.776967 -0.148436
C30   C     C_R   0.232035 0.452927 0.704429 -0.132857
C31   C     C_R   0.319591 0.332790 0.663154 0.018889
C32   C     C_R   0.896095 0.383820 0.712430 -0.132822
C33   C     C_R   0.913253 0.376812 0.784978 -0.117453
C34   C     C_R   0.457369 0.215901 0.279989 -0.120118
C35   C     C_R   0.854362 0.315823 0.827716 0.015984
C36   C     C_R   0.785167 0.251492 0.795881 0.016437
C37   C     C_R   0.770322 0.257796 0.721770 -0.138498
C38   C     C_R   0.819942 0.329666 0.680883 -0.004135
C39   C     C_R   0.194485 0.869471 0.709333 -0.145128
C40   C     C_R   0.368573 0.350614 0.595217 0.544191
C41   C     C_R   0.181801 0.883020 0.782320 -0.157564
C42   C     C_R   0.301982 0.839677 0.826194 0.009934
C43   C     C_R   0.437928 0.777860 0.796193 0.022673
C44   C     C_R   0.448554 0.767502 0.722251 -0.144511
C45   C     C_R   0.482646 0.209975 0.207505 -0.019023
C46   C     C_R   0.327599 0.811709 0.678877 -0.006980
C47   C     C_R   0.912389 0.315185 0.111901 0.557013
C48   C     C_R   0.332137 0.292377 0.092665 0.554595
C49   C     C_R   0.307035 0.901168 0.105677 0.551970
C50   C     C_R   0.887746 0.307710 0.903152 0.585003
C51   C     C_R   0.291189 0.283956 0.883310 0.566186
C52   C     C_R   0.765197 0.374473 0.609546 0.543303
C53   C     C_R   0.276195 0.892830 0.898549 0.587473
C54   C     C_R   0.821779 0.896755 0.081475 0.008377
C55   C     C_R   0.854014 0.972446 0.130432 -0.114321
C56   C     C_R   0.059415 0.655566 0.346083 -0.090246
C57   C     C_R   0.756990 0.056064 0.183735 0.036715
C58   C     C_2   0.720163 0.669269 0.230759 0.549619
C59   C     C_2   0.720966 0.184857 0.837308 0.580337
C60   C     C_2   0.889784 0.840667 0.430951 0.543825
C61   C     C_2   0.569545 0.720498 0.840488 0.584066
C62   C     C_2   0.923639 0.806471 0.026298 0.548462
C63   C     C_2   0.821086 0.071304 0.250861 0.540172
C64   C     C_R   0.920210 0.747400 0.368324 0.042127
C65   C     C_R   0.604410 0.976260 0.144528 -0.077171
C66   C     C_R   0.696587 0.896790 0.090412 -0.087640
Cr1   Cr    Cr6+3 0.601770 0.606860 0.505860 1.056038
Cr2   Cr    Cr6+3 0.291380 0.601660 0.495070 1.061012
Cr3   Cr    Cr6+3 0.606880 0.291510 0.499120 1.045103
Cr4   Cr    Cr6+3 0.062440 0.063090 0.008210 1.093767
Cr5   Cr    Cr6+3 0.062880 0.375170 0.998920 1.041756
Cr6   Cr    Cr6+3 0.374700 0.061720 0.992470 1.053432
H1    H     H_    0.526699 0.123824 0.311887 0.201829
H2    H     H_    0.447835 0.105092 0.661593 0.144251
H3    H     H_    0.421012 0.079228 0.787165 0.150542
H4    H     H_    0.158074 0.531960 0.809211 0.139453
H5    H     H_    0.182028 0.558234 0.682033 0.155205
H6    H     H_    0.709366 0.217220 0.696614 0.178872
H7    H     H_    0.100467 0.901972 0.676776 0.156262
H8    H     H_    0.139252 0.667615 0.367939 0.213042
H9    H     H_    0.808668 0.639707 0.134643 0.314329
H10   H     H_    0.037924 0.276006 0.348068 0.104737
H11   H     H_    0.315221 0.060771 0.211398 0.077530
H12   H     H_    0.700936 0.821033 0.345639 0.178591
H13   H     H_    0.332435 0.010272 0.339566 0.093395
H14   H     H_    0.936182 0.437863 0.681373 0.146636
H15   H     H_    0.972720 0.421088 0.807662 0.165399
H16   H     H_    0.665203 0.037559 0.840330 0.363400
H17   H     H_    0.742586 0.991151 0.494351 0.343755
H18   H     H_    0.076219 0.933687 0.804092 0.164122
H19   H     H_    0.666577 0.641323 0.935417 0.367555
H20   H     H_    0.552769 0.716620 0.698867 0.176919
H21   H     H_    0.965626 0.674704 0.943238 0.349440
H22   H     H_    0.959102 0.956794 0.130691 0.206131
H23   H     H_    0.999524 0.504926 0.204831 0.130828
H24   H     H_    0.811715 0.091796 0.357040 0.369510
H25   H     H_    0.513086 0.970743 0.152649 0.167850
H26   H     H_    0.186481 0.527152 0.162562 0.146830
H27   H     H_    0.091951 0.250391 0.220321 0.097469
H28   H     H_    0.653817 0.404582 0.167219 0.122916
H29   H     H_    0.599992 0.426615 0.295011 0.123758
H30   H     H_    0.354014 0.618016 0.292007 0.100126
H31   H     H_    0.347408 0.663531 0.164341 0.116501
H32   H     H_    0.670590 0.833564 0.056585 0.185978
O1    O     O_R   0.748800 0.497470 0.428000 -0.497585
O2    O     O_R   0.417600 0.174890 0.067840 -0.513530
O3    O     O_R   0.375320 0.946260 0.070860 -0.523040
O4    O     O_R   0.476420 0.724060 0.429470 -0.480380
O5    O     O_R   0.160600 0.919630 0.926660 -0.479102
O6    O     O_R   0.933060 0.190520 0.936020 -0.473463
O7    O     O_R   0.908880 0.403460 0.925020 -0.516710
O8    O     O_R   0.179600 0.361450 0.918490 -0.516189
O9    O     O_R   0.391510 0.170860 0.907530 -0.502251
O10   O     O_R   0.351130 0.942530 0.922260 -0.488205
O11   O     O_3   0.166667 0.166667 0.999870 -0.289872
O12   O     O_R   0.300070 0.471040 0.567100 -0.500997
O13   O     O_R   0.264580 0.744340 0.416750 -0.516398
O14   O     O_R   0.309380 0.472470 0.418200 -0.528976
O15   O     O_R   0.501710 0.260430 0.414300 -0.475682
O16   O     O_R   0.728090 0.305600 0.428960 -0.502597
O17   O     O_R   0.738760 0.495930 0.588610 -0.514332
O18   O     O_R   0.467110 0.722640 0.578360 -0.508688
O19   O     O_R   0.254530 0.742800 0.577360 -0.486156
O20   O     O_2   0.617541 0.689935 0.263746 -0.514402
O21   O     O_R   0.722887 0.646935 0.157569 -0.689211
O22   O     O_2   0.675264 0.226951 0.896967 -0.482351
O23   O     O_R   0.491670 0.258900 0.574910 -0.521946
O24   O     O_R   0.709526 0.075432 0.807004 -0.702700
O25   O     O_2   0.986648 0.836875 0.465492 -0.505087
O26   O     O_R   0.749674 0.932728 0.451126 -0.699943
O27   O     O_2   0.675195 0.713876 0.816174 -0.521899
O28   O     O_R   0.573631 0.671852 0.909667 -0.667856
O29   O     O_2   0.039773 0.795105 0.022928 -0.493058
O30   O     O_R   0.887315 0.733084 0.978064 -0.699403
O31   O     O_2   0.944270 0.042577 0.251828 -0.538816
O32   O     O_R   0.748749 0.103024 0.314697 -0.696758
O33   O     O_R   0.718780 0.304180 0.577850 -0.510815
O34   O     O_3   0.500010 0.500010 0.500020 -0.267741
O35   O     O_R   0.186690 0.923650 0.086970 -0.488340
O36   O     O_R   0.957250 0.194250 0.084630 -0.501560
O37   O     O_R   0.934970 0.407490 0.085330 -0.513772
O38   O     O_R   0.203780 0.365190 0.067090 -0.498476

loop_
_geom_bond_atom_site_label_1
_geom_bond_atom_site_label_2
_ccdc_geom_bond_type
C25   C31   A    
Cr4   O36   S    
C51   O8    A    
C23   C45   A    
C27   C29   A    
C41   C42   A    
C6    C58   S    
Cr2   O34   S    
C35   C36   A    
C36   C59   S    
C8    C56   A    
C28   O19   A    
C7    C8    A    
C39   C41   A    
C29   H4    S    
C40   O12   A    
C59   O22   D    
Cr6   O11   S    
C28   C46   S    
C26   C27   A    
C37   C38   A    
C18   C24   A    
C62   O29   D    
C36   C37   A    
C18   C19   A    
C16   O16   A    
C42   C53   S    
C30   C31   A    
C28   O18   A    
Cr1   O4    S    
C38   C52   S    
C10   C17   A    
Cr6   O10   S    
C50   O6    A    
C31   C40   S    
C11   H27   S    
C25   H2    S    
C18   H30   S    
C22   H13   S    
Cr1   O34   S    
Cr4   O6    S    
C61   O28   S    
Cr2   O14   S    
C30   H5    S    
C19   H31   S    
C48   O2    A    
C19   C20   A    
C27   C51   S    
C16   C17   S    
Cr5   O7    S    
C47   O36   A    
C56   C64   A    
C4    O15   A    
C32   C38   A    
C52   O33   A    
C44   H20   S    
Cr5   O37   S    
C41   H18   S    
Cr4   O35   S    
C21   C22   A    
C4    O14   A    
C55   H22   S    
Cr1   O17   S    
Cr2   O19   S    
C44   C46   A    
C57   C63   S    
C34   H1    S    
Cr3   O33   S    
Cr5   O11   S    
C66   H32   S    
C49   O3    A    
C3    C8    S    
C60   O26   S    
C13   C47   S    
C5    H12   S    
Cr1   O1    S    
H19   O28   S    
C54   C62   S    
C25   C26   A    
C40   O23   A    
Cr6   O9    S    
C10   H10   S    
H17   O26   S    
C5    C64   A    
C63   O31   D    
C43   C44   A    
C29   C30   A    
C3    C9    A    
Cr4   O5    S    
Cr2   O13   S    
C20   C49   S    
C52   O17   A    
Cr6   O3    S    
C32   H14   S    
Cr5   O8    S    
C35   C50   S    
C26   H3    S    
C48   O38   A    
C34   C45   A    
C1    O13   A    
C15   H29   S    
C2    H26   S    
C16   O1    A    
Cr2   O12   S    
C39   C46   A    
C12   C57   A    
Cr6   O2    S    
H21   O30   S    
C55   C57   A    
C9    C34   A    
C22   C24   A    
C42   C43   A    
Cr5   O38   S    
Cr1   O18   S    
C2    C23   A    
C53   O10   A    
C43   C61   S    
C37   H6    S    
C53   O5    A    
Cr3   O34   S    
C15   C17   A    
C54   C55   A    
C23   C48   S    
H9    O21   S    
C51   O9    A    
C12   C45   S    
H24   O32   S    
C60   O25   D    
C14   H28   S    
C6    C7    A    
C54   C66   A    
Cr4   O11   S    
C7    H23   S    
C12   C65   A    
C47   O37   A    
Cr3   O16   S    
C58   O20   D    
C56   H8    S    
C60   C64   S    
C63   O32   S    
C62   O30   S    
C49   O35   A    
C2    C3    A    
C59   O24   S    
C65   H25   S    
H16   O24   S    
C1    C24   S    
C32   C33   A    
C11   C13   A    
C5    C6    A    
C50   O7    A    
C33   C35   A    
Cr3   O15   S    
C33   H15   S    
C10   C11   A    
C61   O27   D    
C1    O4    A    
C20   C21   A    
Cr3   O23   S    
C58   O21   S    
C65   C66   A    
C21   H11   S    
C14   C15   A    
C4    C9    S    
C13   C14   A    
C39   H7    S    
