data_mof_unit_1734.cif
_audit_creation_date              2012-12-10T18:01:42-0500
_audit_creation_method            fapswitch 2.2
_symmetry_space_group_name_H-M    P1
_symmetry_Int_Tables_number       1
_space_group_crystal_system       triclinic
_cell_length_a                    10.827646
_cell_length_b                    9.611882
_cell_length_c                    19.288979
_cell_angle_alpha                 89.855445
_cell_angle_beta                  92.2581
_cell_angle_gamma                 89.945423
_cell_volume                      2005.91592074

loop_
_atom_site_label
_atom_site_type_symbol
_atom_type_description
_atom_site_fract_x
_atom_site_fract_y
_atom_site_fract_z
_atom_type_partial_charge
C1    C     C_R   0.262384 0.500206 0.499658 0.798218
C2    C     C_R   0.737583 0.499998 0.498387 0.780318
C3    C     C_R   0.494882 0.499949 0.929671 0.483774
C4    C     C_R   0.495011 0.503093 0.070071 0.482082
C5    C     C_R   0.499189 0.500201 0.367899 0.905830
C6    C     C_R   0.500601 0.499713 0.632114 0.901148
C7    C     C_R   0.064803 0.376762 0.509699 -0.196610
C8    C     C_R   0.935074 0.623960 0.483600 -0.193188
C9    C     C_R   0.937210 0.375983 0.506879 -0.198587
C10   C     C_R   0.063107 0.624460 0.484944 -0.186546
C11   C     C_R   0.871552 0.500018 0.496028 -0.011376
C12   C     C_R   0.128442 0.500761 0.498476 -0.007822
C13   C     C_R   0.432678 0.075092 0.450476 0.247510
C14   C     C_R   0.564433 0.924968 0.550677 0.233634
C15   C     C_R   0.561045 0.073780 0.552046 0.238142
C16   C     C_R   0.433947 0.925555 0.449818 0.242666
C17   C     C_R   0.600794 0.552746 0.258136 0.041432
C18   C     C_R   0.394192 0.450970 0.740834 0.042341
C19   C     C_R   0.604298 0.542797 0.746850 0.047881
C20   C     C_R   0.393182 0.453891 0.254175 0.032628
C21   C     C_R   0.600086 0.553736 0.185015 0.085752
C22   C     C_R   0.392334 0.450990 0.813918 0.084430
C23   C     C_R   0.603102 0.542462 0.819869 0.083602
C24   C     C_R   0.391664 0.455525 0.181087 0.084118
C25   C     C_R   0.495617 0.504305 0.146530 0.004945
C26   C     C_R   0.496658 0.497710 0.853335 0.004689
C27   C     C_R   0.498142 0.501043 0.292130 -0.080487
C28   C     C_R   0.499519 0.498547 0.707860 -0.065304
Cu1   Cu    Cu3+1 0.500000 0.640660 0.500000 0.988259
Cu2   Cu    Cu3+1 0.500000 0.359340 0.500000 0.989942
H1    H     H_    0.113301 0.280337 0.520877 0.153027
H2    H     H_    0.886156 0.720068 0.472394 0.147363
H3    H     H_    0.890578 0.278348 0.513508 0.144834
H4    H     H_    0.110566 0.721260 0.475230 0.138576
N1    N     N_R   0.500000 0.852070 0.500000 -0.212025
N2    N     N_R   0.500000 0.147930 0.500000 -0.210785
N3    N     N_R   0.451041 0.391279 0.034090 -0.209535
N4    N     N_R   0.538601 0.611871 0.965625 -0.210260
N5    N     N_R   0.450949 0.389716 0.965135 -0.208638
N6    N     N_R   0.538617 0.613456 0.034567 -0.208095
O1    O     O_R   0.319640 0.618740 0.500000 -0.586144
O2    O     O_R   0.680360 0.381260 0.500000 -0.579859
O3    O     O_R   0.680360 0.618740 0.500000 -0.562595
O4    O     O_R   0.319640 0.381260 0.500000 -0.555315
O5    O     O_R   0.499980 0.618820 0.400140 -0.541312
O6    O     O_R   0.500020 0.381180 0.599860 -0.545179
O7    O     O_R   0.500020 0.618820 0.599860 -0.555030
O8    O     O_R   0.499980 0.381180 0.400140 -0.565153
N7    N     N_3   0.705908 0.602028 0.298613 -0.605775
H5    H     H_    0.783314 0.543235 0.286476 0.216245
H6    H     H_    0.721645 0.706029 0.285778 0.218836
N8    N     N_3   0.289000 0.405122 0.699369 -0.606466
H7    H     H_    0.212954 0.467044 0.710493 0.214520
H8    H     H_    0.269642 0.302009 0.712326 0.221165
N9    N     N_3   0.712727 0.583966 0.711704 -0.615872
H9    H     H_    0.736841 0.684690 0.727260 0.223921
H10   H     H_    0.785049 0.516635 0.726293 0.210229
N10   N     N_3   0.286966 0.409376 0.290488 -0.605793
H11   H     H_    0.263895 0.308502 0.274707 0.221888
H12   H     H_    0.213004 0.475344 0.277105 0.213351
N11   N     N_3   0.706258 0.600972 0.149424 -0.567936
H13   H     H_    0.782251 0.539575 0.164785 0.217549
H14   H     H_    0.724436 0.704094 0.163465 0.225718
N12   N     N_3   0.283860 0.407570 0.848522 -0.569500
H15   H     H_    0.209824 0.471018 0.832182 0.216741
H16   H     H_    0.263665 0.304842 0.834596 0.225968
N13   N     N_3   0.710692 0.583771 0.860581 -0.568643
H17   H     H_    0.732392 0.686533 0.848147 0.225570
H18   H     H_    0.784638 0.519630 0.848297 0.218771
N14   N     N_3   0.283708 0.411545 0.141459 -0.568486
H19   H     H_    0.265056 0.307910 0.153731 0.225892
H20   H     H_    0.208759 0.473070 0.154909 0.217851
N15   N     N_2   0.359851 0.150559 0.400450 -0.351989
H21   H     H_    0.393938 0.153162 0.351379 0.250163
C29   C     C_3   0.226791 0.138716 0.403381 -0.682155
H22   H     H_    0.189734 0.073107 0.360131 0.196059
H23   H     H_    0.184867 0.243482 0.397363 0.251487
H24   H     H_    0.198963 0.093374 0.453499 0.203708
N16   N     N_2   0.631089 0.850897 0.603997 -0.354633
H25   H     H_    0.605302 0.872758 0.653688 0.230592
C30   C     C_3   0.763617 0.839874 0.597161 -0.619719
H26   H     H_    0.791961 0.729469 0.601657 0.249371
H27   H     H_    0.813210 0.896275 0.639869 0.185521
H28   H     H_    0.793090 0.881524 0.546624 0.200240
N17   N     N_2   0.606808 0.144716 0.612323 -0.366806
H29   H     H_    0.568450 0.113256 0.657878 0.225700
C31   C     C_3   0.737927 0.172544 0.618738 -0.623258
H30   H     H_    0.777246 0.127271 0.667820 0.187980
H31   H     H_    0.753140 0.286516 0.621133 0.237903
H32   H     H_    0.787438 0.128092 0.574751 0.203714
N18   N     N_2   0.361490 0.850769 0.399367 -0.366139
H33   H     H_    0.267518 0.855028 0.405496 0.233073
C32   C     C_3   0.398057 0.860250 0.328006 -0.644942
H34   H     H_    0.370497 0.763442 0.300373 0.230530
H35   H     H_    0.499811 0.872917 0.325157 0.227615
H36   H     H_    0.349887 0.947327 0.300642 0.192949

loop_
_geom_bond_atom_site_label_1
_geom_bond_atom_site_label_2
_ccdc_geom_bond_type
C31   H30   S    
C32   H34   S    
N15   H21   S    
N9    H9    S    
C4    C25   S    
C24   N14   S    
N17   H29   S    
Cu1   O7    S    
Cu2   O8    S    
C16   N1    A    
N10   H12   S    
C23   C26   A    
C23   N13   S    
N11   H14   S    
C5    C27   S    
C6    C28   S    
C20   C24   A    
C3    N4    A    
N7    H6    S    
N14   H19   S    
C21   N11   S    
C15   N17   S    
C3    N5    A    
C32   H35   S    
Cu1   O3    S    
C9    H3    S    
N15   C29   S    
Cu2   O4    S    
C1    C12   S    
C2    C11   S    
C30   H27   S    
N8    H8    S    
C30   H26   S    
N17   C31   S    
C7    C12   A    
C5    O8    A    
C7    H1    S    
C6    O7    A    
C18   N8    S    
N13   H17   S    
C17   C27   A    
C4    N6    A    
C18   C28   A    
C24   C25   A    
C13   N2    A    
C17   N7    S    
C14   N1    A    
N16   C30   S    
N10   H11   S    
C5    O5    A    
C17   C21   A    
Cu1   O5    S    
N13   H18   S    
N12   H16   S    
C19   C23   A    
C29   H22   S    
Cu1   Cu2   S    
N18   C32   S    
C29   H23   S    
C1    O4    A    
C2    O3    A    
C10   H4    S    
C14   N16   S    
C19   C28   A    
C9    C11   A    
C10   C12   A    
C1    O1    A    
C13   N15   S    
C32   H36   S    
N9    H10   S    
C13   C16   A    
C20   N10   S    
C15   N2    A    
N18   H33   S    
C30   H28   S    
N8    H7    S    
C19   N9    S    
C7    C9    A    
C21   C25   A    
C6    O6    A    
Cu1   O1    S    
C18   C22   A    
Cu2   O6    S    
C3    C26   S    
C20   C27   A    
Cu1   N1    S    
Cu2   N2    S    
N12   H15   S    
C31   H31   S    
N3    N5    A    
N4    N6    A    
C8    H2    S    
C2    O2    A    
C8    C11   A    
N11   H13   S    
C29   H24   S    
C22   N12   S    
N16   H25   S    
C4    N3    A    
C16   N18   S    
C8    C10   A    
N7    H5    S    
C22   C26   A    
C31   H32   S    
C14   C15   A    
Cu2   O2    S    
N14   H20   S    
