data_mof_unit_4909.cif
_audit_creation_date              2012-12-10T20:57:53-0500
_audit_creation_method            fapswitch 2.2
_symmetry_space_group_name_H-M    P1
_symmetry_Int_Tables_number       1
_space_group_crystal_system       triclinic
_cell_length_a                    18.182502
_cell_length_b                    18.251187
_cell_length_c                    18.412246
_cell_angle_alpha                 120.304957
_cell_angle_beta                  89.878886
_cell_angle_gamma                 119.715911
_cell_volume                      4323.5965027

loop_
_atom_site_label
_atom_site_type_symbol
_atom_type_description
_atom_site_fract_x
_atom_site_fract_y
_atom_site_fract_z
_atom_type_partial_charge
C1    C     C_R   0.359774 0.220051 0.361023 0.834179
C2    C     C_3   0.695347 0.941887 0.649510 -0.377727
C3    C     C_3   0.698690 0.897571 0.701393 0.120768
C4    C     C_R   0.640926 0.781068 0.640823 0.758506
C5    C     C_3   0.799358 0.102572 0.807077 0.020656
C6    C     C_3   0.856719 0.059700 0.799565 -0.336196
C7    C     C_3   0.753869 0.061734 0.711341 -0.499266
C8    C     C_3   0.640723 0.404267 0.202779 -0.386236
C9    C     C_3   0.700528 0.403113 0.143844 -0.361536
C10   C     C_3   0.744041 0.598919 0.306674 -0.398019
C11   C     C_3   0.771258 0.489638 0.331914 -0.397110
C12   C     C_3   0.271358 0.574578 0.360355 0.013374
C13   C     C_3   0.697826 0.497906 0.301449 0.194963
C14   C     C_3   0.799402 0.497585 0.200107 0.167872
C15   C     C_3   0.803150 0.598257 0.246308 -0.392243
C16   C     C_R   0.360410 0.501794 0.641845 0.820408
C17   C     C_3   0.831564 0.490203 0.272657 -0.390127
C18   C     C_R   0.451911 0.178203 0.560252 -0.096729
C19   C     C_R   0.411278 0.128098 0.469903 -0.215572
C20   C     C_R   0.324676 0.099778 0.438867 -0.002310
C21   C     C_R   0.278193 0.121463 0.499752 0.526147
C22   C     C_R   0.319968 0.171679 0.590355 -0.215623
C23   C     C_3   0.297655 0.498557 0.302931 0.056312
C24   C     C_R   0.406332 0.199970 0.620322 -0.178800
C25   C     C_R   0.230938 0.944030 0.287209 -0.176618
C26   C     C_R   0.190368 0.892265 0.196385 -0.062076
C27   C     C_R   0.203808 0.948909 0.160386 -0.012053
C28   C     C_R   0.640567 0.499100 0.359285 0.741106
C29   C     C_R   0.261074 0.055898 0.215761 -0.242237
C30   C     C_R   0.302337 0.107612 0.306416 -0.026128
C31   C     C_R   0.285531 0.050975 0.343116 0.064011
C32   C     C_R   0.207374 0.900979 0.007581 -0.139644
C33   C     C_R   0.164230 0.854460 0.918727 -0.113141
C34   C     C_3   0.194284 0.495399 0.199466 0.013235
C35   C     C_R   0.072136 0.808134 0.888452 -0.109607
C36   C     C_R   0.023006 0.808334 0.946992 -0.108801
C37   C     C_R   0.065823 0.854442 0.035838 -0.087279
C38   C     C_R   0.158250 0.900517 0.066497 0.148050
C39   C     C_R   0.909743 0.601152 0.554817 -0.149806
C40   C     C_R   0.641924 0.499975 0.639840 0.791054
C41   C     C_R   0.860294 0.549853 0.591797 -0.158595
C42   C     C_R   0.839986 0.600904 0.667275 0.140453
C43   C     C_R   0.870650 0.704153 0.706055 -0.102870
C44   C     C_R   0.919174 0.754776 0.668248 -0.122124
C45   C     C_3   0.144670 0.388383 0.187120 0.317368
C46   C     C_R   0.938710 0.703301 0.592672 -0.112531
C47   C     C_R   0.840278 0.545363 0.762992 -0.269960
C48   C     C_R   0.800220 0.501370 0.808052 -0.045086
C49   C     C_R   0.708558 0.458368 0.798400 -0.015268
C50   C     C_R   0.658497 0.457702 0.741525 -0.262869
C51   C     C_R   0.698598 0.502227 0.696854 -0.042293
C52   C     C_R   0.357342 0.499724 0.359670 0.806784
C53   C     C_R   0.791170 0.548440 0.708879 -0.017507
C54   C     C_R   0.601201 0.311685 0.806578 -0.178579
C55   C     C_R   0.551981 0.274526 0.852547 -0.084668
C56   C     C_3   0.218465 0.579593 0.299709 -0.483724
C57   C     C_R   0.564001 0.343705 0.941133 -0.100619
C58   C     C_R   0.626137 0.450266 0.984290 -0.172781
C59   C     C_R   0.675736 0.487765 0.938633 -0.125561
C60   C     C_R   0.662970 0.418559 0.849296 0.163607
C61   C     C_R   0.458195 0.861489 0.823119 -0.259480
C62   C     C_R   0.421539 0.769078 0.815350 -0.241570
C63   C     C_R   0.340591 0.679080 0.747681 0.142015
C64   C     C_3   0.347110 0.531808 0.245253 -0.462564
C65   C     C_R   0.296989 0.682253 0.687761 -0.168248
C66   C     C_R   0.334716 0.774156 0.694372 -0.194489
C67   C     C_3   0.665272 0.937285 0.781192 -0.440040
C68   C     C_R   0.415060 0.864493 0.762674 0.535146
C69   C     C_R   0.239376 0.581150 0.799054 -0.240401
C70   C     C_R   0.192477 0.495848 0.802887 -0.060368
C71   C     C_R   0.201443 0.412859 0.753709 -0.021717
C72   C     C_R   0.258274 0.418512 0.703273 -0.210944
C73   C     C_R   0.304587 0.503486 0.698809 -0.069289
C74   C     C_R   0.294843 0.585912 0.747398 0.010585
C75   C     C_R   0.192537 0.290547 0.784128 -0.125642
C76   C     C_3   0.284354 0.523263 0.180552 -0.382747
C77   C     C_R   0.145242 0.193360 0.769006 -0.116206
C78   C     C_3   0.723160 0.057851 0.843335 0.324570
C79   C     C_R   0.054896 0.120333 0.715890 -0.090707
C80   C     C_R   0.011310 0.144980 0.678977 -0.103255
C81   C     C_R   0.057986 0.242630 0.695070 -0.077357
C82   C     C_R   0.149071 0.315699 0.747275 0.164787
C83   C     C_R   0.857070 0.498728 0.142753 0.771532
C84   C     C_R   0.136964 0.497873 0.860073 0.777361
C85   C     C_R   0.856977 0.219032 0.863424 0.871247
C86   C     C_R   0.136676 0.779889 0.141258 0.785333
C87   C     C_R   0.856051 0.500983 0.863188 0.781714
C88   C     C_3   0.211290 0.387497 0.238572 -0.395458
C89   C     C_3   0.797910 0.940418 0.739582 -0.395182
C90   C     C_R   0.138020 0.497891 0.142643 0.823021
H1    H     H_    0.370484 0.482291 0.206091 0.202608
H2    H     H_    0.719886 0.915218 0.592394 0.159871
H3    H     H_    0.407647 0.613015 0.289197 0.165007
H4    H     H_    0.624916 0.912688 0.621568 0.215102
H5    H     H_    0.711289 0.089798 0.713155 0.192389
H6    H     H_    0.805847 0.092382 0.683263 0.171647
H7    H     H_    0.824343 0.912886 0.684332 0.176884
H8    H     H_    0.908241 0.087777 0.770608 0.169753
H9    H     H_    0.588286 0.408762 0.178042 0.181067
H10   H     H_    0.605901 0.330506 0.197203 0.184357
H11   H     H_    0.696044 0.329754 0.111117 0.211865
H12   H     H_    0.156465 0.569456 0.315557 0.215179
H13   H     H_    0.675285 0.404824 0.090421 0.190882
H14   H     H_    0.692540 0.606637 0.285350 0.153317
H15   H     H_    0.318269 0.598379 0.188585 0.152737
H16   H     H_    0.779408 0.604327 0.195182 0.154465
H17   H     H_    0.813530 0.556100 0.402252 0.192867
H18   H     H_    0.739688 0.417461 0.328628 0.161724
H19   H     H_    0.829567 0.418428 0.240831 0.168453
H20   H     H_    0.902253 0.557064 0.315131 0.188956
H21   H     H_    0.786316 0.667338 0.376656 0.181627
H22   H     H_    0.873546 0.667134 0.287168 0.195567
H23   H     H_    0.178450 0.354455 0.275465 0.176785
H24   H     H_    0.437952 0.239121 0.690354 0.151785
H25   H     H_    0.519012 0.200670 0.583743 0.132528
H26   H     H_    0.447714 0.112481 0.424107 0.135197
H27   H     H_    0.272640 0.464572 0.110826 0.244455
H28   H     H_    0.286105 0.189723 0.638276 0.171126
H29   H     H_    0.220583 0.901232 0.315363 0.176216
H30   H     H_    0.271547 0.098948 0.187841 0.180291
H31   H     H_    0.278715 0.936442 0.030304 0.133299
H32   H     H_    0.202184 0.854265 0.873328 0.148429
H33   H     H_    0.038922 0.772145 0.819660 0.137160
H34   H     H_    0.091341 0.382499 0.218379 0.105054
H35   H     H_    0.951729 0.772571 0.923471 0.130696
H36   H     H_    0.027140 0.853894 0.080606 0.118199
H37   H     H_    0.976480 0.742607 0.563565 0.137544
H38   H     H_    0.230143 0.336448 0.191346 0.229201
H39   H     H_    0.925409 0.561625 0.496632 0.142861
H40   H     H_    0.838213 0.470768 0.562038 0.129153
H41   H     H_    0.856651 0.744981 0.765182 0.124015
H42   H     H_    0.941977 0.834012 0.697768 0.126079
H43   H     H_    0.910710 0.578284 0.770064 0.177285
H44   H     H_    0.588067 0.424838 0.734497 0.174474
H45   H     H_    0.665594 0.904430 0.818134 0.198628
H46   H     H_    0.590436 0.257497 0.737554 0.120933
H47   H     H_    0.503734 0.192238 0.819136 0.208894
H48   H     H_    0.525299 0.314752 0.976398 0.144491
H49   H     H_    0.635454 0.503782 0.052954 0.124382
H50   H     H_    0.722651 0.570488 0.972122 0.112534
H51   H     H_    0.519727 0.930716 0.876632 0.225086
H52   H     H_    0.454698 0.768329 0.863525 0.164691
H53   H     H_    0.232824 0.614045 0.637395 0.182815
H54   H     H_    0.300314 0.775405 0.647527 0.195635
H55   H     H_    0.233396 0.645509 0.837073 0.175428
H56   H     H_    0.594618 0.908223 0.755307 0.200031
H57   H     H_    0.263861 0.353916 0.664757 0.200797
H58   H     H_    0.263221 0.345543 0.823219 0.122991
H59   H     H_    0.178960 0.174115 0.797348 0.140448
H60   H     H_    0.018622 0.044622 0.703298 0.116888
H61   H     H_    0.941473 0.088100 0.637389 0.115888
H62   H     H_    0.024083 0.260213 0.664745 0.105188
H63   H     H_    0.333289 0.653652 0.408647 0.165201
H64   H     H_    0.259674 0.657979 0.313682 0.191909
H65   H     H_    0.840159 0.254277 0.086158 0.374475
H66   H     H_    0.109218 0.119953 0.392258 0.383653
H67   H     H_    0.678904 0.082749 0.841048 0.156424
H68   H     H_    0.109298 0.220785 0.947540 0.375205
H69   H     H_    0.547046 0.052312 0.715174 0.366261
H70   H     H_    0.802469 0.911469 0.778881 0.197516
H71   H     H_    0.893785 0.088924 0.866148 0.259207
I1    I     I_    0.193896 0.533939 0.439401 -0.445979
O1    O     O_3   0.500000 0.500000 0.500000 -0.485534
O2    O     O_R   0.113800 0.731630 0.056520 -0.639759
O3    O     O_R   0.819390 0.439310 0.886160 -0.641571
O4    O     O_R   0.383400 0.268380 0.323710 -0.653770
O5    O     O_R   0.115110 0.560720 0.179280 -0.661175
O6    O     O_R   0.941380 0.560750 0.885620 -0.648412
O7    O     O_R   0.115110 0.439270 0.057830 -0.569290
O8    O     O_R   0.942690 0.268390 0.886930 -0.617877
O9    O     O_R   0.114340 0.731630 0.178520 -0.641584
O10   O     O_R   0.820160 0.439310 0.057830 -0.619387
O11   O     O_R   0.113800 0.560730 0.885620 -0.645084
O12   O     O_R   0.383400 0.560740 0.616060 -0.623109
O13   O     O_R   0.555060 0.731630 0.615290 -0.636493
O14   O     O_R   0.383950 0.439280 0.616600 -0.637960
O15   O     O_R   0.677590 0.560710 0.444390 -0.641845
O16   O     O_R   0.556370 0.439260 0.616600 -0.649180
O17   O     O_R   0.382640 0.439290 0.322940 -0.646197
O18   O     O_R   0.678360 0.560700 0.616060 -0.639582
O19   O     O_R   0.382640 0.560750 0.444390 -0.620037
O20   O     O_2   0.681349 0.069686 0.987730 -0.322567
O21   O     O_2   0.811422 0.063354 0.967721 -0.269826
O22   O     O_3   0.828514 0.235462 0.024659 -0.553529
O23   O     O_R   0.555060 0.439270 0.322940 -0.652465
O24   O     O_2   0.105707 0.973876 0.398798 -0.320859
O25   O     O_2   0.137537 0.124752 0.542838 -0.328918
O26   O     O_3   0.172546 0.146775 0.415569 -0.570254
O27   O     O_2   0.060593 0.181092 0.075367 -0.282138
O28   O     O_2   0.002228 0.256066 0.036394 -0.268300
O29   O     O_3   0.150706 0.280089 0.009132 -0.577542
O30   O     O_2   0.385545 0.988240 0.751164 -0.327149
O31   O     O_2   0.522820 0.071956 0.866411 -0.333385
O32   O     O_3   0.517029 0.981947 0.700901 -0.604787
O33   O     O_R   0.383950 0.268380 0.445700 -0.619764
O34   O     O_R   0.677590 0.731610 0.615290 -0.647929
O35   O     O_3   0.997750 0.500010 0.002220 -0.491669
O36   O     O_R   0.942690 0.560750 0.179280 -0.643888
O37   O     O_R   0.114340 0.439270 0.886160 -0.648823
O38   O     O_R   0.820160 0.268410 0.886930 -0.624851
S1    S     S_3+6 0.761592 0.105284 0.958300 0.016551
S2    S     S_3+6 0.169607 0.089266 0.464723 -0.005056
S3    S     S_3+6 0.086353 0.272431 0.074229 0.016517
S4    S     S_3+6 0.460325 0.981074 0.773004 -0.041848
Zn1   Zn    Zn3+2 0.456040 0.586770 0.543190 1.001992
Zn2   Zn    Zn3+2 0.456820 0.413240 0.543960 0.996128
Zn3   Zn    Zn3+2 0.631110 0.586750 0.543190 0.956351
Zn4   Zn    Zn3+2 0.456040 0.413240 0.369660 0.967666
Zn5   Zn    Zn3+2 0.041710 0.413240 0.959030 1.033770
Zn6   Zn    Zn3+2 0.866640 0.413270 0.959030 1.015189
Zn7   Zn    Zn3+2 0.040930 0.586780 0.958260 0.957974
Zn8   Zn    Zn3+2 0.041710 0.586770 0.132560 0.982891

loop_
_geom_bond_atom_site_label_1
_geom_bond_atom_site_label_2
_ccdc_geom_bond_type
C58   H49   S    
C25   C31   A    
C80   H61   S    
C66   C68   A    
C63   C65   A    
C34   C56   S    
C8    C13   S    
C90   O5    A    
C27   C29   A    
O20   S1    D    
C69   H55   S    
C41   C42   A    
C67   H45   S    
C35   C36   A    
O6    Zn7   S    
C78   S1    S    
C12   H63   S    
C43   C44   A    
C17   H20   S    
C81   C82   A    
C23   C52   S    
C39   C41   A    
C54   C60   A    
O27   S3    D    
C24   H24   S    
C7    H6    S    
O33   Zn2   S    
O25   S2    D    
C26   C27   A    
C37   C38   A    
C49   C60   S    
O29   S3    S    
C18   C24   A    
C6    H8    S    
C15   H16   S    
C36   C37   A    
C1    O33   A    
C8    H9    S    
C64   H3    S    
H69   O32   S    
O10   Zn6   S    
C10   C15   S    
C42   C53   S    
C5    C6    S    
C65   H53   S    
O28   S3    D    
C1    O4    A    
C66   H54   S    
O2    Zn7   S    
O1    Zn4   S    
C11   C13   S    
O24   S2    D    
C4    O34   A    
C18   C19   A    
C73   C74   A    
O14   Zn2   S    
C88   H23   S    
C6    C89   S    
C1    C30   S    
O35   Zn6   S    
C78   H67   S    
C40   O18   A    
C11   C17   S    
C2    C7    S    
C8    C9    S    
C4    O13   A    
O12   Zn1   S    
C10   C13   S    
C13   C28   S    
C70   C71   A    
C32   C38   A    
O18   Zn3   S    
O36   Zn8   S    
C28   O15   A    
C26   C86   S    
C47   C53   A    
C71   C82   S    
C5    C85   S    
C68   S4    S    
C16   O14   A    
H66   O26   S    
O7    Zn5   S    
C59   C60   A    
C84   O37   A    
C21   C22   A    
C47   H43   S    
C14   C17   S    
O11   Zn7   S    
C67   C78   S    
O4    Zn4   S    
C14   C83   S    
C62   H52   S    
C25   H29   S    
C44   C46   A    
C77   C79   A    
C45   H34   S    
O30   S4    D    
O32   S4    S    
C21   S2    S    
C29   H30   S    
C36   H35   S    
C86   O9    A    
O21   S1    D    
C46   H37   S    
C2    H4    S    
C45   C88   S    
C52   O19   A    
C56   H64   S    
C50   H44   S    
C77   H59   S    
C5    C7    S    
H65   O22   S    
C72   C73   A    
C39   H39   S    
C25   C26   A    
C12   I1    S    
O1    Zn1   S    
O38   Zn6   S    
O15   Zn3   S    
C89   H7    S    
O37   Zn5   S    
O19   Zn1   S    
C9    C14   S    
C34   C90   S    
C62   C63   A    
O35   Zn7   S    
C85   O38   A    
C47   C48   A    
C12   C23   S    
C6    H71   S    
C9    H13   S    
C54   H46   S    
C83   O10   A    
C67   H56   S    
C50   C51   A    
C64   C76   S    
C48   C87   S    
C10   H21   S    
C75   C82   A    
C34   C45   S    
O23   Zn4   S    
C83   O36   A    
C2    H2    S    
C75   C77   A    
C12   C56   S    
C43   H41   S    
C39   C46   A    
C40   O16   A    
C61   H51   S    
C23   C64   S    
C49   C50   A    
C23   C88   S    
C79   H60   S    
C87   O6    A    
C11   H17   S    
C33   H32   S    
C22   C24   A    
C86   O2    A    
C42   C43   A    
O13   Zn1   S    
O31   S4    D    
C84   O11   A    
C40   C51   S    
C70   C84   S    
C89   H70   S    
C37   H36   S    
C16   O12   A    
C22   H28   S    
C54   C55   A    
C48   C49   A    
C59   H50   S    
O22   S1    S    
C14   C15   S    
C15   H22   S    
C3    C67   S    
C85   O8    A    
C80   C81   A    
C16   C73   S    
C17   H19   S    
C18   H25   S    
O5    Zn8   S    
C35   H33   S    
C72   H57   S    
C63   C74   S    
C75   H58   S    
C44   H42   S    
C81   H62   S    
C7    H5    S    
O1    Zn2   S    
C76   H27   S    
C55   H47   S    
C41   H40   S    
C3    C89   S    
C32   C33   A    
C19   C20   A    
C55   C57   A    
C2    C3    S    
C58   C59   A    
C52   O17   A    
C56   H12   S    
C71   C72   A    
C88   H38   S    
O35   Zn8   S    
H68   O29   S    
O9    Zn8   S    
C10   H14   S    
C61   C68   A    
C57   C58   A    
C30   C31   A    
O8    Zn5   S    
C19   H26   S    
O34   Zn3   S    
O16   Zn2   S    
C90   O7    A    
O1    Zn3   S    
C45   S3    S    
C33   C35   A    
C57   H48   S    
C8    H10   S    
C61   C62   A    
O3    Zn6   S    
C69   C70   A    
O35   Zn5   S    
C87   O3    A    
C29   C30   A    
C79   C80   A    
O17   Zn4   S    
C20   C21   A    
C9    H11   S    
C65   C66   A    
C11   H18   S    
C69   C74   A    
C32   H31   S    
O26   S2    S    
C27   C38   S    
C64   H1    S    
C51   C53   A    
C5    C78   S    
C28   O23   A    
C76   H15   S    
C3    C4    S    
C34   C76   S    
C20   C31   S    
