data_mof_unit_1776.cif
_audit_creation_date              2012-12-11T15:20:37-0500
_audit_creation_method            fapswitch 2.2
_symmetry_space_group_name_H-M    P1
_symmetry_Int_Tables_number       1
_space_group_crystal_system       triclinic
_cell_length_a                    12.988979
_cell_length_b                    13.025858
_cell_length_c                    15.373387
_cell_angle_alpha                 116.789996
_cell_angle_beta                  63.585828
_cell_angle_gamma                 97.156616
_cell_volume                      2070.07838414

loop_
_atom_site_label
_atom_site_type_symbol
_atom_type_description
_atom_site_fract_x
_atom_site_fract_y
_atom_site_fract_z
_atom_type_partial_charge
C1    C     C_R   0.007486 0.834679 0.048075 -0.128657
C2    C     C_R   0.320688 0.525125 0.783134 -0.130963
C3    C     C_R   0.242532 0.487768 0.111312 -0.119676
C4    C     C_R   0.705529 0.401254 0.211274 -0.066041
C5    C     C_R   0.029911 0.281429 0.683529 -0.025329
C6    C     C_R   0.333749 0.550490 0.080057 0.113227
C7    C     C_R   0.017482 0.170272 0.674603 -0.099743
C8    C     C_R   0.332100 0.457226 0.679079 0.077297
C9    C     C_R   0.046021 0.141998 0.007984 -0.018535
C10   C     C_R   0.158743 0.981630 0.382684 0.581419
C11   C     C_R   0.149445 0.071691 0.480421 -0.316859
C12   C     C_R   0.717148 0.423986 0.303982 -0.011672
C13   C     C_R   0.076848 0.064672 0.576340 0.097478
C14   C     C_R   0.058296 0.955832 0.574154 -0.166078
C15   C     C_R   0.080140 0.860785 0.476335 -0.260774
C16   C     C_R   0.739079 0.576777 0.946519 -0.269265
C17   C     C_R   0.113954 0.876837 0.383128 -0.002091
C18   C     C_R   0.634546 0.472550 0.500904 0.550805
C19   C     C_R   0.534346 0.483857 0.591130 -0.328176
C20   C     C_R   0.441284 0.422197 0.582214 0.091224
C21   C     C_R   0.450825 0.340367 0.480528 -0.165424
C22   C     C_R   0.548838 0.331160 0.387862 -0.215021
C23   C     C_R   0.635850 0.562268 0.021170 0.018504
C24   C     C_R   0.637115 0.403538 0.397150 -0.008479
C25   C     C_2   0.426577 0.579103 0.112139 -0.179723
C26   C     C_2   0.523716 0.607179 0.048724 -0.168509
C27   C     C_2   0.851966 0.964534 0.071220 0.012913
C28   C     C_R   0.015468 0.702367 0.302846 -0.118564
C29   C     C_2   0.848152 0.055186 0.160833 -0.157797
C30   C     C_R   0.660475 0.481742 0.045831 0.539947
C31   C     C_R   0.098441 0.798518 0.205114 -0.146359
C32   C     C_R   0.816329 0.477636 0.296174 0.152768
C33   C     C_R   0.915774 0.751403 0.943908 -0.114729
C34   C     C_R   0.077336 0.796738 0.300550 0.082656
C35   C     C_R   0.927258 0.856589 0.019697 0.074505
C36   C     C_3   0.797999 0.078893 0.771231 0.163264
C37   C     C_3   0.733831 0.980172 0.792490 -0.289040
C38   C     C_3   0.641864 0.947230 0.750792 -0.998314
C39   C     C_3   0.150591 0.097639 0.305222 0.156143
C40   C     C_3   0.017329 0.103487 0.354101 -0.323460
C41   C     C_3   0.966602 0.211075 0.366218 -1.062397
C42   C     C_3   0.764414 0.533680 0.575205 0.140001
C43   C     C_3   0.825949 0.639615 0.616986 -0.237001
C44   C     C_3   0.908125 0.614829 0.653088 -1.087292
C45   C     C_R   0.320619 0.583344 0.012823 -0.125656
C46   C     C_3   0.566421 0.321414 0.040277 0.114417
C47   C     C_3   0.458492 0.280881 0.108062 -0.246927
C48   C     C_3   0.435587 0.160517 0.040110 -1.016216
C49   C     C_R   0.953001 0.180627 0.778671 0.490410
C50   C     C_R   0.222258 0.445671 0.684127 -0.122661
C51   C     C_R   0.076420 0.249033 0.063891 0.078347
C52   C     C_R   0.972349 0.166088 0.974609 -0.115676
H1    H     H_    0.037830 0.896661 0.105034 0.090950
H2    H     H_    0.526255 0.552484 0.667810 0.133410
H3    H     H_    0.380054 0.289801 0.472267 0.118925
H4    H     H_    0.551184 0.273965 0.309531 0.134762
H5    H     H_    0.423309 0.552756 0.170594 0.187296
H6    H     H_    0.524118 0.641113 0.995907 0.125759
H7    H     H_    0.901702 0.055793 0.198357 0.128528
H8    H     H_    0.746971 0.620927 0.899670 0.127337
H9    H     H_    0.995816 0.666559 0.358604 0.084309
H10   H     H_    0.158074 0.846613 0.166147 0.163806
H11   H     H_    0.868506 0.739820 0.898448 0.094449
H12   H     H_    0.202257 0.404321 0.616393 0.093793
H13   H     H_    0.363073 0.649305 0.988686 0.090294
H14   H     H_    0.834653 0.052573 0.682723 0.116613
H15   H     H_    0.736403 0.157226 0.815632 0.087009
H16   H     H_    0.797008 0.904030 0.751233 0.197869
H17   H     H_    0.693032 0.005781 0.880811 0.195879
H18   H     H_    0.579478 0.023132 0.788867 0.269899
H19   H     H_    0.594275 0.878162 0.771177 0.270315
H20   H     H_    0.682774 0.914461 0.661297 0.275621
H21   H     H_    0.171815 0.189127 0.108342 0.099350
H22   H     H_    0.098921 0.319150 0.199533 0.090449
H23   H     H_    0.924280 0.103380 0.938274 0.179706
H24   H     H_    0.085704 0.314737 0.552089 0.081536
H25   H     H_    0.969013 0.399599 0.661351 0.121948
H26   H     H_    0.182473 0.095164 0.224215 0.126462
H27   H     H_    0.179926 0.177492 0.353295 0.102126
H28   H     H_    0.990650 0.025658 0.301094 0.195213
H29   H     H_    0.979733 0.106467 0.435761 0.205437
H30   H     H_    0.993734 0.290208 0.417584 0.268653
H31   H     H_    0.870844 0.215141 0.404762 0.274040
H32   H     H_    0.995825 0.207689 0.285435 0.262655
H33   H     H_    0.827228 0.455556 0.521261 0.111885
H34   H     H_    0.387540 0.550754 0.810065 0.092869
H35   H     H_    0.700590 0.521146 0.646613 0.086058
H36   H     H_    0.875762 0.668459 0.552996 0.199462
H37   H     H_    0.759750 0.710750 0.686830 0.194796
H38   H     H_    0.861014 0.583473 0.715452 0.265328
H39   H     H_    0.946416 0.695177 0.688122 0.274361
H40   H     H_    0.978982 0.548452 0.582710 0.270929
H41   H     H_    0.715087 0.907936 0.039177 0.113232
H42   H     H_    0.820185 0.946333 0.947999 0.098530
H43   H     H_    0.642461 0.260377 0.005681 0.115924
H44   H     H_    0.553597 0.321729 0.973197 0.103657
H45   H     H_    0.217998 0.466866 0.177945 0.092388
H46   H     H_    0.468953 0.279703 0.175522 0.191098
H47   H     H_    0.382485 0.342299 0.143886 0.195037
H48   H     H_    0.356755 0.134559 0.091996 0.261077
H49   H     H_    0.508717 0.096922 0.006263 0.274224
H50   H     H_    0.422477 0.159771 0.973201 0.271751
H51   H     H_    0.911921 0.516480 0.379953 0.127271
H52   H     H_    0.874304 0.377883 0.339882 0.105527
H53   H     H_    0.186643 0.150831 0.482154 0.129442
H54   H     H_    0.018671 0.944211 0.647084 0.173100
H55   H     H_    0.650389 0.340895 0.182451 0.134550
H56   H     H_    0.056177 0.778998 0.477861 0.140400
N1    N     N_R   0.037310 0.720000 0.995790 -0.041670
N2    N     N_R   0.824890 0.517960 0.936420 -0.063591
N3    N     N_R   0.003210 0.648190 0.211380 -0.040538
N4    N     N_R   0.774330 0.457010 0.995840 -0.106132
N5    N     N_R   0.053760 0.709140 0.151960 -0.048760
N6    N     N_R   0.853860 0.498840 0.211410 -0.067227
N7    N     N_R   0.974240 0.667310 0.936390 -0.032527
N8    N     N_R   0.225670 0.542990 0.004160 -0.044561
N9    N     N_3   0.148397 0.268242 0.116895 -0.217120
N10   N     N_3   0.008593 0.315086 0.615503 -0.210918
N11   N     N_3   0.773270 0.969848 0.030858 -0.205345
N12   N     N_R   0.946240 0.290860 0.848040 -0.099078
N13   N     N_3   0.900142 0.445597 0.318393 -0.226787
N14   N     N_R   0.146140 0.501160 0.788590 -0.037896
N15   N     N_R   0.025760 0.332690 0.063610 -0.055621
N16   N     N_R   0.962690 0.280000 0.004210 -0.056710
N17   N     N_R   0.209210 0.553840 0.847990 -0.041745
N18   N     N_R   0.175110 0.482040 0.063580 -0.038351
N19   N     N_R   0.996790 0.351810 0.788620 -0.079933
N20   N     N_R   0.790790 0.446160 0.152010 -0.053758
Ni1   Ni    Ni4+2 0.130310 0.630310 0.999970 0.211228
Ni2   Ni    Ni4+2 0.869690 0.369690 0.000030 0.216376
Ni3   Ni    Ni4+2 0.985640 0.509470 0.863740 0.195617
Ni4   Ni    Ni4+2 0.014360 0.490530 0.136260 0.206072
O1    O     O_3   0.884663 0.100816 0.807540 -0.711480
O2    O     O_3   0.203485 0.997271 0.289381 -0.690724
O3    O     O_3   0.714518 0.551174 0.516634 -0.675939
O4    O     O_3   0.582557 0.432473 0.108552 -0.692401

loop_
_geom_bond_atom_site_label_1
_geom_bond_atom_site_label_2
_ccdc_geom_bond_type
C38   H18   S    
C51   N15   A    
C6    C45   A    
C37   H17   S    
N15   Ni4   S    
C27   C29   D    
C50   H12   S    
C19   C20   A    
C50   N14   A    
C52   H23   S    
C36   O1    S    
C3    N18   A    
C16   N2    A    
N15   N16   A    
N7    Ni3   S    
C8    C20   S    
C47   H46   S    
N5    Ni1   S    
C18   C24   A    
C43   H36   S    
C36   C37   S    
C36   H14   S    
C36   H15   S    
C6    C25   S    
C48   H49   S    
C10   C17   A    
C41   H31   S    
C37   H16   S    
C11   C13   A    
C47   H47   S    
C18   C19   A    
C16   H8    S    
C23   C26   S    
C1    H1    S    
C1    N1    A    
C46   C47   S    
N8    Ni1   S    
C29   H7    S    
C9    C51   A    
C11   H53   S    
C40   H28   S    
C4    C12   A    
C44   H40   S    
C28   H9    S    
C3    C6    A    
C28   C34   A    
N8    N18   A    
C13   C14   A    
C12   C32   A    
C31   H10   S    
C9    C52   A    
C25   H5    S    
C40   H29   S    
N19   Ni3   S    
C28   N3    A    
C48   H48   S    
C4    H55   S    
C38   H20   S    
C33   N7    A    
H21   N9    S    
C4    N20   A    
N12   N19   A    
C23   C30   A    
C18   O3    S    
C7    C49   A    
H25   N10   S    
C39   C40   S    
C5    C7    A    
C22   H4    S    
H52   N13   S    
C27   C35   S    
C25   C26   D    
C41   H32   S    
H24   N10   S    
C30   N4    A    
C42   O3    S    
C39   H27   S    
C15   H56   S    
C43   C44   S    
C39   H26   S    
C37   C38   S    
N6    N20   A    
H42   N11   S    
C3    H45   S    
C47   C48   S    
N18   Ni4   S    
C33   H11   S    
C48   H50   S    
C5    N19   A    
C31   C34   A    
N16   Ni2   S    
N2    Ni3   S    
N3    N5    A    
C42   H33   S    
C43   H37   S    
C26   H6    S    
C44   H39   S    
C19   H2    S    
C40   C41   S    
C16   C23   A    
C30   O4    S    
N1    Ni1   S    
C51   N9    S    
N12   Ni2   S    
C42   C43   S    
H51   N13   S    
C8    C50   A    
N14   Ni3   S    
C44   H38   S    
C1    C35   A    
C21   H3    S    
C15   C17   A    
H22   N9    S    
C49   O1    S    
C38   H19   S    
N6    Ni4   S    
C32   N13   S    
C2    C8    A    
C10   O2    S    
N20   Ni2   S    
C27   N11   S    
C12   C24   S    
C5    N10   S    
C32   N6    A    
N14   N17   A    
C45   H13   S    
C52   N16   A    
C45   N8    A    
C41   H30   S    
C33   C35   A    
C2    H34   S    
C22   C24   A    
C46   H43   S    
N2    N4    A    
C10   C11   A    
N1    N7    A    
C46   O4    S    
C49   N12   A    
C2    N17   A    
N17   Ni1   S    
N3    Ni4   S    
C7    C13   S    
C46   H44   S    
C20   C21   A    
C17   C34   S    
C14   H54   S    
C14   C15   A    
C42   H35   S    
H41   N11   S    
N4    Ni2   S    
C21   C22   A    
C31   N5    A    
C39   O2    S    
