data_mof_unit_822.cif
_audit_creation_date              2012-12-10T20:42:36-0500
_audit_creation_method            fapswitch 2.2
_symmetry_space_group_name_H-M    P1
_symmetry_Int_Tables_number       1
_space_group_crystal_system       triclinic
_cell_length_a                    8.902989
_cell_length_b                    10.676468
_cell_length_c                    9.891526
_cell_angle_alpha                 90.004811
_cell_angle_beta                  90.213084
_cell_angle_gamma                 90.05514
_cell_volume                      940.207108139

loop_
_atom_site_label
_atom_site_type_symbol
_atom_type_description
_atom_site_fract_x
_atom_site_fract_y
_atom_site_fract_z
_atom_type_partial_charge
C1    C     C_R   0.504363 0.260030 0.500068 0.863160
C2    C     C_R   0.560026 0.935260 0.380491 -0.211270
C3    C     C_R   0.528120 0.871405 0.500946 -0.100323
C4    C     C_R   0.524478 0.936140 0.623047 0.120690
C5    C     C_3   0.414358 0.928784 0.736563 -0.456685
C6    C     C_3   0.413903 0.070782 0.736409 -0.490184
C7    C     C_R   0.417604 0.413737 0.070176 0.116481
C8    C     C_R   0.589805 0.579206 0.072243 -0.061543
C9    C     C_R   0.589152 0.579739 0.928420 -0.093538
C10   C     C_R   0.421494 0.411053 0.928080 0.140352
C11   C     C_3   0.257627 0.385947 0.916505 -0.518552
C12   C     C_R   0.218804 0.499904 0.499839 0.938961
C13   C     C_3   0.250383 0.395583 0.069571 0.204928
C14   C     C_R   0.504579 0.739960 0.500033 0.872753
C15   C     C_R   0.781219 0.500037 0.500175 0.920763
C16   C     C_1   0.065446 0.499892 0.499804 -0.158923
C17   C     C_1   0.934596 0.499948 0.500244 -0.166953
C18   C     C_R   0.524205 0.063884 0.623024 0.142375
C19   C     C_R   0.527737 0.128601 0.500932 -0.098634
C20   C     C_R   0.559805 0.064810 0.380480 -0.223731
H1    H     H_    0.574444 0.113870 0.285559 0.172378
H2    H     H_    0.234635 0.289875 0.878457 0.161493
H3    H     H_    0.214878 0.307324 0.119770 0.110206
H4    H     H_    0.574810 0.886212 0.285581 0.172554
H5    H     H_    0.305052 0.887069 0.705391 0.209672
H6    H     H_    0.465029 0.887953 0.829513 0.207928
H7    H     H_    0.304388 0.111716 0.704913 0.201027
H8    H     H_    0.464080 0.112113 0.829360 0.204933
H9    H     H_    0.660262 0.644835 0.126610 0.144905
H10   H     H_    0.658714 0.646072 0.874595 0.144011
H11   H     H_    0.196317 0.461197 0.861772 0.257421
N1    N     N_R   0.499010 0.499140 0.142800 -0.086823
N2    N     N_R   0.499010 0.499180 0.857150 -0.091485
O1    O     O_R   0.500020 0.316790 0.614690 -0.615103
O2    O     O_R   0.500000 0.316760 0.385350 -0.634011
O3    O     O_R   0.285350 0.500020 0.614650 -0.631909
O4    O     O_R   0.285340 0.499980 0.385310 -0.552676
O5    O     O_R   0.500000 0.683240 0.614650 -0.622552
O6    O     O_R   0.499980 0.683210 0.385310 -0.615129
O7    O     O_R   0.714660 0.500020 0.614690 -0.620523
O8    O     O_R   0.714650 0.499980 0.385350 -0.606099
Zn1   Zn    Zn3+2 0.500010 0.500020 0.653130 0.951421
Zn2   Zn    Zn3+2 0.499990 0.499980 0.346870 0.991611
Cl1   Cl    Cl    0.147246 0.531694 0.119520 -0.593374

loop_
_geom_bond_atom_site_label_1
_geom_bond_atom_site_label_2
_ccdc_geom_bond_type
O4    Zn2   S    
C7    C10   A    
C12   O3    A    
C11   C13   S    
C11   H2    S    
O3    Zn1   S    
C19   C20   A    
O1    Zn1   S    
C6    H7    S    
C4    C18   A    
O7    Zn1   S    
C2    C3    A    
C11   H11   S    
C9    N2    A    
C4    C5    S    
O8    Zn2   S    
C15   O8    A    
C3    C14   S    
C9    H10   S    
C5    H5    S    
N2    Zn1   S    
N1    Zn2   S    
C1    O1    A    
O5    Zn1   S    
C10   N2    A    
C2    H4    S    
C5    C6    S    
C6    C18   S    
C15   O7    A    
C1    C19   S    
C14   O5    A    
C10   C11   S    
C8    H9    S    
C2    C20   A    
C5    H6    S    
C8    N1    A    
C7    C13   S    
O2    Zn2   S    
C20   H1    S    
C13   H3    S    
C18   C19   A    
C12   O4    A    
C15   C17   S    
C1    O2    A    
C16   C17   T    
O6    Zn2   S    
C7    N1    A    
C14   O6    A    
C13   Cl1   S    
C6    H8    S    
C3    C4    A    
C12   C16   S    
C8    C9    A    
