data_mof_unit_3070.cif
_audit_creation_date              2012-12-10T18:11:48-0500
_audit_creation_method            fapswitch 2.2
_symmetry_space_group_name_H-M    P1
_symmetry_Int_Tables_number       1
_space_group_crystal_system       triclinic
_cell_length_a                    15.849556
_cell_length_b                    10.733348
_cell_length_c                    9.430749
_cell_angle_alpha                 90.079228
_cell_angle_beta                  90.131344
_cell_angle_gamma                 89.918734
_cell_volume                      1604.34034895

loop_
_atom_site_label
_atom_site_type_symbol
_atom_type_description
_atom_site_fract_x
_atom_site_fract_y
_atom_site_fract_z
_atom_type_partial_charge
C1    C     C_R   0.497212 0.259917 0.500161 0.770281
C2    C     C_3   0.082950 0.497730 0.499003 0.103590
C3    C     C_3   0.972372 0.584894 0.592394 -0.221637
C4    C     C_3   0.917298 0.499974 0.498944 0.114489
C5    C     C_3   0.028077 0.610061 0.462003 0.659003
C6    C     C_3   0.971782 0.527200 0.367853 -0.222681
C7    C     C_1   0.174604 0.497773 0.499116 -0.036786
C8    C     C_1   0.825566 0.500143 0.499503 -0.042617
C9    C     C_3   0.451744 0.074071 0.639699 -0.467286
C10   C     C_3   0.453957 0.928797 0.642164 0.352246
C11   C     C_3   0.443515 0.071648 0.373097 -0.411396
C12   C     C_R   0.339859 0.499384 0.499857 0.834939
C13   C     C_3   0.585970 0.070570 0.496244 -0.394022
C14   C     C_3   0.494628 0.121925 0.501838 0.132350
C15   C     C_3   0.493766 0.877749 0.501541 0.077042
C16   C     C_3   0.444075 0.928197 0.371756 -0.364384
C17   C     C_3   0.585456 0.927057 0.491094 -0.491349
C18   C     C_3   0.552924 0.604998 0.084508 -0.184949
C19   C     C_3   0.552605 0.606382 0.917138 -0.229985
C20   C     C_3   0.537588 0.382753 0.082454 0.409067
C21   C     C_3   0.414524 0.514572 0.083647 0.406306
C22   C     C_3   0.536691 0.385631 0.914397 -0.275804
C23   C     C_R   0.496354 0.739892 0.500272 0.812894
C24   C     C_3   0.415101 0.516460 0.915761 -0.265536
C25   C     C_R   0.660178 0.499942 0.500079 0.824954
C26   C     C_3   0.971529 0.385821 0.536528 -0.121867
C27   C     C_3   0.027658 0.413105 0.405737 -0.241398
C28   C     C_1   0.250175 0.498182 0.499504 -0.221316
C29   C     C_1   0.749947 0.500072 0.500001 -0.191976
C30   C     C_3   0.028217 0.470658 0.629708 -0.237963
Cu1   Cu    Cu3+1 0.500040 0.499860 0.642410 0.911864
Cu2   Cu    Cu3+1 0.499960 0.500140 0.357590 0.972199
H1    H     H_    0.051593 0.342491 0.329639 0.149132
H2    H     H_    0.377383 0.106291 0.377750 0.146629
H3    H     H_    0.378808 0.891251 0.370322 0.173046
H4    H     H_    0.619387 0.106902 0.401923 0.175422
H5    H     H_    0.621860 0.102356 0.591211 0.157714
H6    H     H_    0.624509 0.889732 0.579699 0.155296
H7    H     H_    0.615021 0.894821 0.390478 0.181285
H8    H     H_    0.470938 0.105672 0.271963 0.165850
H9    H     H_    0.474132 0.896025 0.271559 0.181906
H10   H     H_    0.619011 0.599487 0.123638 0.174976
H11   H     H_    0.946709 0.293082 0.567328 0.139562
H12   H     H_    0.528447 0.695897 0.122982 0.169589
H13   H     H_    0.527722 0.697715 0.880506 0.161696
H14   H     H_    0.618531 0.599987 0.877688 0.157726
H15   H     H_    0.601261 0.372111 0.871194 0.178891
H16   H     H_    0.377224 0.431751 0.118118 0.018496
H17   H     H_    0.386808 0.604407 0.875140 0.203270
H18   H     H_    0.374378 0.439401 0.876462 0.113727
H19   H     H_    0.496387 0.304206 0.116801 0.019590
H20   H     H_    0.947694 0.551589 0.260795 0.143871
H21   H     H_    0.498751 0.305084 0.877013 0.112890
H22   H     H_    0.948797 0.656238 0.667925 0.142811
H23   H     H_    0.052621 0.447115 0.736816 0.146401
H24   H     H_    0.388048 0.115848 0.647542 0.138620
H25   H     H_    0.486758 0.108714 0.734307 0.139896
H26   H     H_    0.499926 0.905277 0.727649 0.095747
N1    N     N_3   0.501840 0.500250 0.143650 -0.165811
N2    N     N_3   0.501160 0.503300 0.856280 -0.146681
O1    O     O_R   0.500050 0.317570 0.620260 -0.599188
O2    O     O_R   0.499980 0.317810 0.379740 -0.591474
O3    O     O_R   0.379110 0.499870 0.620240 -0.578692
O4    O     O_R   0.379040 0.500110 0.379720 -0.560225
O5    O     O_R   0.500020 0.682190 0.620260 -0.575170
O6    O     O_R   0.499950 0.682430 0.379740 -0.579625
O7    O     O_R   0.620960 0.499890 0.620280 -0.592928
O8    O     O_R   0.620890 0.500130 0.379760 -0.530224
O9    O     O_3   0.379117 0.863179 0.681740 -0.584182
C31   C     C_3   0.301895 0.922900 0.650285 0.037986
H27   H     H_    0.302091 0.970207 0.545919 0.143677
H28   H     H_    0.286921 0.991230 0.735290 0.148753
C32   C     C_3   0.232034 0.826013 0.648132 -0.732705
H29   H     H_    0.229207 0.776920 0.751649 0.237080
H30   H     H_    0.170353 0.871827 0.627605 0.229476
H31   H     H_    0.244252 0.757099 0.562993 0.250001
O10   O     O_3   0.621139 0.365514 0.133552 -0.543713
C33   C     C_3   0.647131 0.239926 0.120947 0.043057
H32   H     H_    0.653106 0.212230 0.007827 0.116676
H33   H     H_    0.602209 0.175844 0.173717 0.125930
C34   C     C_3   0.733003 0.225077 0.191302 -0.775266
H34   H     H_    0.729366 0.253099 0.304559 0.243268
H35   H     H_    0.753646 0.126325 0.184909 0.192359
H36   H     H_    0.780204 0.284549 0.136970 0.246653
O11   O     O_3   0.377286 0.626040 0.136197 -0.550723
C35   C     C_3   0.288135 0.621594 0.125685 0.041793
H37   H     H_    0.261919 0.539408 0.182246 0.150424
H38   H     H_    0.267384 0.618402 0.013073 0.119368
C36   C     C_3   0.251145 0.738068 0.193217 -0.730726
H39   H     H_    0.275918 0.822487 0.139630 0.230918
H40   H     H_    0.181319 0.736757 0.183410 0.233522
H41   H     H_    0.268224 0.741401 0.307282 0.243273
F1    F     F_    0.058903 0.725597 0.423598 -0.699192

loop_
_geom_bond_atom_site_label_1
_geom_bond_atom_site_label_2
_ccdc_geom_bond_type
C32   H29   S    
Cu1   O1    S    
C2    C7    S    
C25   O7    A    
C4    C8    S    
C1    O2    A    
C34   H34   S    
C19   H14   S    
O10   C33   S    
C27   H1    S    
Cu1   O7    S    
C26   C27   S    
C20   O10   S    
C12   C28   S    
C8    C29   T    
C23   O6    A    
C10   H26   S    
C21   N1    S    
C20   H19   S    
C10   C15   S    
C18   H10   S    
C16   H3    S    
C22   N2    S    
C5    C6    S    
C12   O4    A    
C11   C14   S    
C35   H38   S    
C15   C16   S    
Cu1   O5    S    
C18   C19   S    
C17   H7    S    
C9    H25   S    
C6    C27   S    
C31   H27   S    
C36   H40   S    
C9    C10   S    
C13   H5    S    
Cu2   O8    S    
C21   H16   S    
C15   C23   S    
C22   H15   S    
C13   C14   S    
C25   C29   S    
C32   H30   S    
C11   H8    S    
C25   O8    A    
C34   H35   S    
C26   H11   S    
C22   H21   S    
C24   H18   S    
C21   O11   S    
Cu1   O3    S    
Cu2   O4    S    
C13   H4    S    
C4    C6    S    
C12   O3    A    
C33   H32   S    
O11   C35   S    
C7    C28   T    
C20   N1    S    
Cu1   N2    S    
C3    C30   S    
C9    C14   S    
C18   H12   S    
C11   C16   S    
C4    C26   S    
Cu1   Cu2   S    
C24   N2    S    
C31   C32   S    
C9    H24   S    
C36   H41   S    
C2    C27   S    
C20   C22   S    
C26   C30   S    
C32   H31   S    
C2    C5    S    
C3    C4    S    
C34   H36   S    
Cu2   O6    S    
C24   H17   S    
C15   C17   S    
C35   H37   S    
C11   H2    S    
C3    C5    S    
C35   C36   S    
C1    O1    A    
C5    F1    S    
C19   H13   S    
C19   N2    S    
C30   H23   S    
C13   C17   S    
C2    C30   S    
C23   O5    A    
Cu2   O2    S    
C33   C34   S    
C3    H22   S    
C33   H33   S    
C17   H6    S    
O9    C31   S    
C10   O9    S    
C18   N1    S    
C21   C24   S    
C31   H28   S    
C1    C14   S    
Cu2   N1    S    
C6    H20   S    
C36   H39   S    
C16   H9    S    
