data_mof_unit_3344.cif
_audit_creation_date              2012-12-10T19:46:54-0500
_audit_creation_method            fapswitch 2.2
_symmetry_space_group_name_H-M    P1
_symmetry_Int_Tables_number       1
_space_group_crystal_system       triclinic
_cell_length_a                    10.881954
_cell_length_b                    10.921083
_cell_length_c                    13.117311
_cell_angle_alpha                 91.137336
_cell_angle_beta                  89.929846
_cell_angle_gamma                 90.195237
_cell_volume                      1558.57974559

loop_
_atom_site_label
_atom_site_type_symbol
_atom_type_description
_atom_site_fract_x
_atom_site_fract_y
_atom_site_fract_z
_atom_type_partial_charge
C1    C     C_R   0.494334 0.259484 0.498695 0.821963
C2    C     C_R   0.505670 0.740515 0.501304 0.821972
C3    C     C_R   0.872892 0.491945 0.500206 -0.095845
C4    C     C_R   0.127108 0.508073 0.499796 -0.095851
C5    C     C_R   0.939438 0.445689 0.583211 -0.002757
C6    C     C_R   0.060562 0.554337 0.416794 -0.002746
C7    C     C_R   0.355934 0.208062 0.173558 0.200724
C8    C     C_R   0.643990 0.792015 0.826504 0.200749
C9    C     C_R   0.371016 0.165910 0.273179 -0.166280
C10   C     C_R   0.628961 0.834166 0.726877 -0.166379
C11   C     C_R   0.481554 0.110393 0.301970 0.100685
C12   C     C_R   0.518404 0.889598 0.698025 0.100722
C13   C     C_R   0.576194 0.096024 0.229862 -0.158301
C14   C     C_R   0.423680 0.903867 0.770070 -0.158231
C15   C     C_R   0.560873 0.137567 0.130602 -0.206338
C16   C     C_R   0.438943 0.862316 0.869333 -0.206341
C17   C     C_R   0.450910 0.193083 0.102399 -0.091837
C18   C     C_R   0.548932 0.806897 0.897601 -0.091844
C19   C     C_R   0.503228 0.931305 0.409513 -0.259137
C20   C     C_R   0.496793 0.068693 0.590483 -0.259125
C21   C     C_R   0.506902 0.873097 0.503409 -0.095943
C22   C     C_R   0.493110 0.126901 0.496588 -0.095954
C23   C     C_R   0.259709 0.507132 0.500041 0.823245
C24   C     C_R   0.740291 0.492877 0.499959 0.823262
C25   C     C_R   0.505812 0.942555 0.595457 0.010842
C26   C     C_R   0.494195 0.057443 0.404539 0.010871
C27   C     C_1   0.500009 0.500207 0.173569 0.157940
C28   C     C_1   0.499991 0.499791 0.826431 0.157956
C29   C     C_1   0.500000 0.500153 0.050687 -0.082533
C30   C     C_1   0.500000 0.499844 0.949313 -0.082568
C31   C     C_R   0.241896 0.786092 0.265788 -0.127648
C32   C     C_R   0.758113 0.213950 0.734239 -0.127660
C33   C     C_R   0.187747 0.725900 0.347658 -0.108595
C34   C     C_R   0.812277 0.274122 0.652365 -0.108627
C35   C     C_R   0.119734 0.617775 0.330539 0.120710
C36   C     C_R   0.880264 0.382266 0.669471 0.120733
C37   C     C_R   0.105757 0.571773 0.230440 -0.161558
C38   C     C_R   0.894197 0.428312 0.769561 -0.161501
C39   C     C_R   0.161628 0.631274 0.149017 -0.128757
C40   C     C_R   0.838311 0.368830 0.850988 -0.128766
C41   C     C_R   0.229707 0.738324 0.166686 -0.117547
C42   C     C_R   0.770261 0.261759 0.833333 -0.117544
C43   C     C_R   0.933527 0.544233 0.417598 -0.240159
C44   C     C_R   0.066473 0.455789 0.582405 -0.240164
Cu1   Cu    Cu3+1 0.499990 0.499990 0.592680 0.976333
Cu2   Cu    Cu3+1 0.500010 0.500010 0.407320 0.976311
H1    H     H_    0.272376 0.784662 0.103550 0.119362
H2    H     H_    0.727583 0.215436 0.896471 0.119368
H3    H     H_    0.661319 0.051760 0.250401 0.133369
H4    H     H_    0.338534 0.948059 0.749479 0.133344
H5    H     H_    0.634028 0.126050 0.075293 0.138311
H6    H     H_    0.365721 0.873753 0.924593 0.138287
H7    H     H_    0.504512 0.877943 0.338887 0.160141
H8    H     H_    0.495510 0.122052 0.661111 0.160148
H9    H     H_    0.292707 0.870152 0.278988 0.128869
H10   H     H_    0.707322 0.129875 0.721048 0.128851
H11   H     H_    0.198138 0.763755 0.424130 0.102716
H12   H     H_    0.801914 0.236239 0.575899 0.102731
H13   H     H_    0.052612 0.489287 0.215703 0.124191
H14   H     H_    0.947315 0.510817 0.784287 0.124149
H15   H     H_    0.151761 0.594626 0.072179 0.135273
H16   H     H_    0.848142 0.405512 0.927819 0.135274
H17   H     H_    0.881414 0.581496 0.355004 0.156632
H18   H     H_    0.118584 0.418528 0.645001 0.156636
H19   H     H_    0.439661 0.224701 0.025261 0.143328
H20   H     H_    0.560137 0.775279 0.974743 0.143328
H21   H     H_    0.296651 0.175682 0.327731 0.114733
H22   H     H_    0.703387 0.824468 0.672372 0.114738
N1    N     N_1   0.500030 0.500030 0.268070 -0.135230
N2    N     N_1   0.499970 0.499970 0.731930 -0.135213
O1    O     O_R   0.499980 0.319630 0.578260 -0.583247
O2    O     O_R   0.500020 0.680370 0.421740 -0.583257
O3    O     O_R   0.500000 0.319650 0.421740 -0.571918
O4    O     O_R   0.500000 0.680350 0.578260 -0.571907
O5    O     O_R   0.319630 0.500000 0.578260 -0.585054
O6    O     O_R   0.680370 0.500000 0.421740 -0.585055
O7    O     O_R   0.319650 0.500020 0.421740 -0.571763
O8    O     O_R   0.680350 0.499980 0.578260 -0.571739
N3    N     N_3   0.244504 0.266380 0.144054 -0.613077
H23   H     H_    0.231925 0.342566 0.192335 0.225276
H24   H     H_    0.171930 0.205564 0.156760 0.208891
N4    N     N_3   0.755454 0.733808 0.856078 -0.613081
H25   H     H_    0.827981 0.794699 0.843429 0.208893
H26   H     H_    0.768159 0.657637 0.807803 0.225222

loop_
_geom_bond_atom_site_label_1
_geom_bond_atom_site_label_2
_ccdc_geom_bond_type
Cu1   O1    S    
C38   H14   S    
Cu2   O6    S    
C43   H17   S    
C39   C41   A    
Cu1   Cu2   S    
C44   H18   S    
C3    C43   A    
C1    O1    A    
C8    N4    S    
C35   C37   A    
C27   C29   S    
C20   C25   A    
C5    C36   S    
C40   H16   S    
C6    C35   S    
C7    C9    A    
C19   C26   A    
Cu2   N1    S    
C7    C17   A    
C31   C33   A    
Cu1   O8    S    
C15   H5    S    
Cu2   O2    S    
C27   N1    T    
C19   H7    S    
C40   C42   A    
C1    C22   S    
C3    C24   S    
C2    O2    A    
C39   H15   S    
C4    C6    A    
C23   O5    A    
N3    H24   S    
C4    C23   S    
C24   O6    A    
C4    C44   A    
C11   C26   S    
C8    C18   A    
Cu1   O4    S    
C32   C34   A    
C9    H21   S    
C29   C30   T    
C2    C21   S    
C41   H1    S    
C16   C18   A    
C42   H2    S    
C23   O7    A    
C9    C11   A    
C37   H13   S    
C10   C12   A    
C13   H3    S    
C20   H8    S    
C5    C44   A    
C12   C14   A    
N4    H26   S    
C6    C43   A    
C13   C15   A    
C14   C16   A    
C7    N3    S    
C24   O8    A    
C15   C17   A    
C21   C25   A    
C33   H11   S    
C31   C41   A    
C19   C21   A    
Cu1   N2    S    
C28   N2    T    
C16   H6    S    
C20   C22   A    
C3    C5    A    
C2    O4    A    
Cu2   O7    S    
C10   H22   S    
C18   H20   S    
C17   H19   S    
C12   C25   S    
Cu1   O5    S    
C1    O3    A    
C28   C30   S    
C37   C39   A    
C38   C40   A    
C11   C13   A    
C14   H4    S    
C36   C38   A    
C33   C35   A    
C34   C36   A    
N3    H23   S    
C8    C10   A    
N4    H25   S    
C22   C26   A    
C34   H12   S    
C32   C42   A    
C31   H9    S    
C32   H10   S    
Cu2   O3    S    
