data_mof_unit_2898.cif
_audit_creation_date              2012-10-26T20:59:14-0400
_audit_creation_method            fapswitch 2.2
_symmetry_space_group_name_H-M    P1
_symmetry_Int_Tables_number       1
_space_group_crystal_system       triclinic
_cell_length_a                    15.934427
_cell_length_b                    9.09164
_cell_length_c                    7.812817
_cell_angle_alpha                 90.000027
_cell_angle_beta                  91.314652
_cell_angle_gamma                 90.003981
_cell_volume                      1131.54544376

loop_
_atom_site_label
_atom_site_type_symbol
_atom_type_description
_atom_site_fract_x
_atom_site_fract_y
_atom_site_fract_z
_atom_type_partial_charge
C1    C     C_1   0.499997 0.065400 0.500000 -0.034444
C2    C     C_3   0.973699 0.627119 0.575086 0.192661
C3    C     C_1   0.250445 0.500577 0.493652 -0.016718
C4    C     C_1   0.749554 0.499789 0.507915 -0.003754
C5    C     C_3   0.032232 0.516478 0.668315 0.240346
C6    C     C_3   0.967923 0.485038 0.350435 0.234351
C7    C     C_3   0.084287 0.501286 0.503733 -0.010697
C8    C     C_3   0.915844 0.500066 0.514266 0.004406
C9    C     C_1   0.175312 0.501026 0.494468 -0.005554
C10   C     C_1   0.824691 0.499764 0.513102 0.018988
C11   C     C_3   0.896744 0.586494 0.117207 0.025930
C12   C     C_1   0.500001 0.934600 0.500000 -0.034542
C13   C     C_3   0.829961 0.543948 0.984252 -0.316449
C14   C     C_3   0.134335 0.456165 0.872161 -0.009721
C15   C     C_3   0.142757 0.424312 0.061716 -0.310845
C16   C     C_R   0.499995 0.220132 0.500000 0.554819
C17   C     C_R   0.500004 0.779868 0.500000 0.554567
C18   C     C_R   0.339637 0.500085 0.498030 0.544625
C19   C     C_R   0.660362 0.499933 0.502072 0.543941
C20   C     C_3   0.974444 0.390001 0.607418 0.201869
C21   C     C_3   0.025478 0.612117 0.411354 0.174536
C22   C     C_3   0.025988 0.374121 0.444347 0.194479
Cu1   Cu    Cu3+1 0.500010 0.500000 0.669080 1.036080
Cu2   Cu    Cu3+1 0.499990 0.500000 0.330920 1.038592
H1    H     H_    0.001707 0.183835 0.350060 0.360319
H2    H     H_    0.189362 0.523260 0.835730 0.155720
H3    H     H_    0.135233 0.348460 0.803762 0.128866
H4    H     H_    0.089478 0.354510 0.099813 0.237256
H5    H     H_    0.202417 0.365024 0.089907 0.115175
H6    H     H_    0.142583 0.528902 0.134612 0.214046
H7    H     H_    0.996765 0.816787 0.672084 0.356684
H8    H     H_    0.998839 0.219334 0.744000 0.346126
H9    H     H_    0.005853 0.799599 0.304448 0.338099
H10   H     H_    0.945235 0.653733 0.053762 0.221798
H11   H     H_    0.865862 0.655082 0.215905 0.114938
H12   H     H_    0.778792 0.482003 0.046138 0.161821
H13   H     H_    0.803238 0.644312 0.923060 0.129693
H14   H     H_    0.857870 0.473994 0.884330 0.225551
N1    N     N_1   0.499990 0.500000 0.076820 -0.079589
N2    N     N_1   0.500010 0.500000 0.923180 -0.079484
O1    O     O_R   0.500000 0.288400 0.642760 -0.494161
O2    O     O_3   0.945349 0.759471 0.644091 -0.683554
O3    O     O_3   0.947252 0.273082 0.708333 -0.664654
O4    O     O_3   0.053351 0.729354 0.311580 -0.684389
O5    O     O_3   0.934112 0.457582 0.184944 -0.530371
O6    O     O_3   0.060027 0.536964 0.839546 -0.528886
O7    O     O_R   0.500000 0.711600 0.357240 -0.494287
O8    O     O_R   0.500000 0.288400 0.357240 -0.494377
O9    O     O_R   0.500000 0.711600 0.642760 -0.494334
O10   O     O_R   0.379080 0.500000 0.642760 -0.504833
O11   O     O_R   0.620920 0.500000 0.357240 -0.501296
O12   O     O_R   0.379070 0.500000 0.357190 -0.496710
O13   O     O_R   0.620930 0.500000 0.642810 -0.499617
O14   O     O_3   0.053491 0.239494 0.379886 -0.693012

loop_
_geom_bond_atom_site_label_1
_geom_bond_atom_site_label_2
_ccdc_geom_bond_type
C12   C17   S    
Cu2   O12   S    
Cu1   Cu2   S    
Cu1   O13   S    
C3    C9    T    
H7    O2    S    
C14   H3    S    
C4    C19   S    
C21   O4    S    
C5    C7    S    
C5    O6    S    
C13   H13   S    
C15   H6    S    
Cu1   O1    S    
C14   O6    S    
C16   O8    A    
C2    C21   S    
C11   H11   S    
C15   H4    S    
C18   O12   A    
C22   O14   S    
C1    C16   S    
C14   H2    S    
C11   C13   S    
C19   O13   A    
C13   H14   S    
C8    C20   S    
C1    C12   T    
C2    O2    S    
C16   O1    A    
C3    C18   S    
C6    O5    S    
H8    O3    S    
C20   C22   S    
C15   H5    S    
C7    C9    S    
C11   O5    S    
C2    C5    S    
Cu1   O9    S    
C4    C10   T    
Cu1   N2    S    
C7    C22   S    
C19   O11   A    
Cu2   O7    S    
C20   O3    S    
H1    O14   S    
C18   O10   A    
C13   H12   S    
C8    C10   S    
C17   O9    A    
N1    N2    T    
C5    C20   S    
C14   C15   S    
Cu2   O11   S    
Cu1   O10   S    
C6    C8    S    
C6    C22   S    
C7    C21   S    
C6    C21   S    
Cu2   N1    S    
C11   H10   S    
C2    C8    S    
C17   O7    A    
H9    O4    S    
Cu2   O8    S    
