data_mof_unit_3849.cif
_audit_creation_date              2012-12-10T19:08:04-0500
_audit_creation_method            fapswitch 2.2
_symmetry_space_group_name_H-M    P1
_symmetry_Int_Tables_number       1
_space_group_crystal_system       triclinic
_cell_length_a                    9.075697
_cell_length_b                    10.870348
_cell_length_c                    9.549959
_cell_angle_alpha                 89.679419
_cell_angle_beta                  89.992716
_cell_angle_gamma                 90.246903
_cell_volume                      942.13710311

loop_
_atom_site_label
_atom_site_type_symbol
_atom_type_description
_atom_site_fract_x
_atom_site_fract_y
_atom_site_fract_z
_atom_type_partial_charge
C1    C     C_R   0.499309 0.262622 0.500245 0.810247
C2    C     C_R   0.495135 0.936136 0.370385 -0.200751
C3    C     C_R   0.502312 0.869692 0.497528 -0.068706
C4    C     C_R   0.508774 0.936550 0.620427 0.047295
C5    C     C_3   0.518219 0.923621 0.775454 -0.533621
C6    C     C_3   0.511762 0.065508 0.778177 0.351063
C7    C     C_R   0.589690 0.578775 0.073103 0.242434
C8    C     C_R   0.400654 0.432112 0.074837 -0.014321
C9    C     C_R   0.399841 0.433065 0.925984 0.029316
C10   C     C_R   0.589845 0.578591 0.925805 0.239628
C11   C     C_3   0.753896 0.584104 0.919916 -0.470908
C12   C     C_R   0.220685 0.499915 0.499988 0.853661
C13   C     C_3   0.753840 0.584299 0.078722 -0.474262
C14   C     C_R   0.501176 0.737214 0.499496 0.800486
C15   C     C_R   0.779303 0.500044 0.500022 0.840280
C16   C     C_1   0.065537 0.499963 0.500011 -0.174033
C17   C     C_1   0.934426 0.500015 0.500024 -0.187451
C18   C     C_R   0.505146 0.060633 0.621783 0.020925
C19   C     C_R   0.498846 0.129840 0.499085 -0.109864
C20   C     C_R   0.493845 0.065186 0.371140 -0.170512
Cu1   Cu    Cu3+1 0.499990 0.499980 0.640670 0.978723
Cu2   Cu    Cu3+1 0.500010 0.500020 0.359330 0.960682
H1    H     H_    0.488648 0.113559 0.271800 0.199149
H2    H     H_    0.794392 0.671871 0.873302 0.187450
H3    H     H_    0.803608 0.499823 0.124295 0.234197
H4    H     H_    0.794392 0.672168 0.123908 0.192675
H5    H     H_    0.490219 0.889180 0.270745 0.173636
H6    H     H_    0.419427 0.876815 0.819837 0.238361
H7    H     H_    0.625296 0.883706 0.809010 0.157592
H8    H     H_    0.322531 0.374806 0.130911 0.152243
H9    H     H_    0.319816 0.378102 0.870432 0.184520
H10   H     H_    0.803601 0.499485 0.875683 0.238320
N1    N     N_R   0.500920 0.500930 0.147930 -0.193629
N2    N     N_R   0.500930 0.500890 0.852020 -0.190581
O1    O     O_R   0.500000 0.319640 0.618810 -0.551253
O2    O     O_R   0.500020 0.319680 0.381230 -0.582436
O3    O     O_R   0.288380 0.499980 0.618770 -0.583283
O4    O     O_R   0.288400 0.500020 0.381190 -0.586684
O5    O     O_R   0.499980 0.680320 0.618770 -0.581531
O6    O     O_R   0.500000 0.680360 0.381190 -0.592749
O7    O     O_R   0.711600 0.499980 0.618810 -0.581068
O8    O     O_R   0.711620 0.500020 0.381230 -0.580239
Cl1   Cl    Cl    0.344083 0.120656 0.853194 -0.627229
C21   C     C_2   0.650284 0.125896 0.831734 0.395496
H11   H     H_    0.756473 0.100247 0.788702 0.037514
O9    O     O_2   0.645116 0.203699 0.923263 -0.510781

loop_
_geom_bond_atom_site_label_1
_geom_bond_atom_site_label_2
_ccdc_geom_bond_type
C7    C10   A    
C2    H5    S    
Cu1   O1    S    
C5    H6    S    
C11   C13   S    
C15   O8    A    
C19   C20   A    
Cu1   O5    S    
C20   H1    S    
C8    N1    A    
C4    C18   A    
C2    C3    A    
C8    H8    S    
C10   N2    A    
C6    C21   S    
Cu1   Cu2   S    
C7    N1    A    
C13   H3    S    
Cu2   O8    S    
C3    C14   S    
Cu1   O7    S    
C5    C6    S    
C21   O9    D    
C11   H10   S    
C5    H7    S    
C6    Cl1   S    
C12   O4    A    
C9    N2    A    
C6    C18   S    
C13   H4    S    
C1    C19   S    
C16   C17   T    
C10   C11   S    
C9    H9    S    
C2    C20   A    
C3    C4    A    
Cu2   O4    S    
C11   H2    S    
C7    C13   S    
Cu1   O3    S    
C21   H11   S    
C15   O7    A    
C18   C19   A    
C12   O3    A    
C15   C17   S    
Cu2   N1    S    
Cu2   O6    S    
C8    C9    A    
Cu1   N2    S    
C1    O1    A    
C14   O5    A    
C14   O6    A    
Cu2   O2    S    
C12   C16   S    
C1    O2    A    
C4    C5    S    
