data_mof_unit_3348.cif
_audit_creation_date              2012-12-11T15:10:48-0500
_audit_creation_method            fapswitch 2.2
_symmetry_space_group_name_H-M    P1
_symmetry_Int_Tables_number       1
_space_group_crystal_system       triclinic
_cell_length_a                    21.162053
_cell_length_b                    7.239929
_cell_length_c                    18.245673
_cell_angle_alpha                 90.006953
_cell_angle_beta                  93.418406
_cell_angle_gamma                 90.000051
_cell_volume                      2790.47779558

loop_
_atom_site_label
_atom_site_type_symbol
_atom_type_description
_atom_site_fract_x
_atom_site_fract_y
_atom_site_fract_z
_atom_type_partial_charge
O1    O     O_R   0.448880 0.506250 0.415280 -0.529904
O2    O     O_R   0.551120 0.006250 0.584720 -0.529912
O3    O     O_R   0.434830 0.174000 0.557310 -0.521335
O4    O     O_R   0.565170 0.674000 0.442690 -0.521342
C1    C     C_R   0.417002 0.344587 0.579667 0.696014
C2    C     C_R   0.582998 0.844575 0.420332 0.696005
O5    O     O_R   0.441680 0.176440 0.414130 -0.531277
O6    O     O_R   0.558320 0.676440 0.585870 -0.531266
O7    O     O_R   0.558020 0.007570 0.440520 -0.519273
O8    O     O_R   0.441980 0.507570 0.559480 -0.519285
C3    C     C_R   0.428140 0.344785 0.388231 0.691027
C4    C     C_R   0.571858 0.844804 0.611770 0.691037
O9    O     O_3   0.538160 0.339670 0.508820 -0.364905
O10   O     O_3   0.461840 0.839670 0.491180 -0.364907
V1    V     V_3+5 0.492920 0.064260 0.498360 1.418218
V2    V     V_3+5 0.507080 0.564260 0.501640 1.418213
C5    C     C_R   0.876754 0.953064 0.687383 -0.163772
C6    C     C_R   0.123262 0.453396 0.312613 -0.163776
H1    H     H_    0.965024 0.979062 0.750433 0.106421
H2    H     H_    0.034995 0.479441 0.249566 0.106423
H3    H     H_    0.796895 0.950513 0.570483 0.123092
H4    H     H_    0.203124 0.450919 0.429507 0.123090
H5    H     H_    0.899037 0.971905 0.635937 0.113081
H6    H     H_    0.100987 0.472375 0.364058 0.113079
C7    C     C_R   0.887222 0.939865 0.819839 -0.054023
C8    C     C_R   0.112783 0.439942 0.180159 -0.054011
C9    C     C_R   0.581321 0.815919 0.745854 -0.243602
C10   C     C_R   0.418674 0.315700 0.254151 -0.243590
C11   C     C_R   0.616006 0.794101 0.812180 -0.175784
C12   C     C_R   0.383989 0.293864 0.187824 -0.175867
C13   C     C_R   0.682047 0.804906 0.816384 0.410784
C14   C     C_R   0.317949 0.304754 0.183615 0.410832
C15   C     C_R   0.714847 0.860751 0.753695 -0.043954
C16   C     C_R   0.285153 0.360713 0.246301 -0.043910
C17   C     C_R   0.678493 0.874025 0.684730 0.023832
C18   C     C_R   0.321509 0.374048 0.315266 0.023841
C19   C     C_R   0.782008 0.897333 0.755691 0.075381
C20   C     C_R   0.217995 0.397372 0.244303 0.075341
C21   C     C_R   0.811130 0.925088 0.688241 0.143046
C22   C     C_R   0.188881 0.425304 0.311753 0.143068
C23   C     C_R   0.774767 0.927892 0.621806 -0.199369
C24   C     C_R   0.225246 0.428172 0.378186 -0.199371
C25   C     C_R   0.709563 0.906646 0.620128 -0.165152
C26   C     C_R   0.290446 0.406825 0.379865 -0.165167
C27   C     C_R   0.821481 0.913745 0.821558 -0.233778
C28   C     C_R   0.178518 0.413694 0.178436 -0.233829
C29   C     C_R   0.914463 0.958155 0.752507 -0.159123
C30   C     C_R   0.085551 0.458432 0.247491 -0.159117
C31   C     C_R   0.611631 0.849854 0.681430 -0.075667
C32   C     C_R   0.388367 0.349778 0.318570 -0.075666
H7    H     H_    0.802870 0.914744 0.875061 0.165510
H8    H     H_    0.197120 0.414541 0.124929 0.165531
H9    H     H_    0.530389 0.798458 0.744273 0.128647
H10   H     H_    0.469604 0.298163 0.255735 0.128652
H11   H     H_    0.591436 0.759011 0.860680 0.136492
H12   H     H_    0.408556 0.258697 0.139326 0.136501
H13   H     H_    0.683591 0.914317 0.567257 0.106251
H14   H     H_    0.316419 0.414545 0.432735 0.106269
C33   C     C_1   0.864505 0.938931 0.132051 -0.204784
C34   C     C_1   0.135493 0.438899 0.867949 -0.204794
C35   C     C_1   0.821654 0.924873 0.175811 0.002015
C36   C     C_1   0.178344 0.424847 0.824189 0.002012
C37   C     C_1   0.771114 0.905745 0.227965 -0.001572
C38   C     C_1   0.228885 0.405737 0.772035 -0.001564
C39   C     C_1   0.728576 0.889107 0.271999 -0.003357
C40   C     C_1   0.271425 0.389115 0.728001 -0.003352
C41   C     C_1   0.678057 0.869979 0.324184 -0.002261
C42   C     C_1   0.321944 0.370005 0.675816 -0.002264
C43   C     C_1   0.635240 0.855926 0.367987 -0.206068
C44   C     C_1   0.364761 0.355957 0.632013 -0.206067
O11   O     O_R   0.058070 0.289240 0.940580 -0.519105
O12   O     O_R   0.941930 0.789240 0.059420 -0.519095
O13   O     O_R   0.058330 0.616740 0.085880 -0.533253
O14   O     O_R   0.941670 0.116740 0.914120 -0.533244
C45   C     C_R   0.071911 0.448624 0.111783 0.685650
C46   C     C_R   0.928090 0.948605 0.888216 0.685651
O15   O     O_R   0.065180 0.619040 0.942700 -0.522643
O16   O     O_R   0.934820 0.119040 0.057300 -0.522648
O17   O     O_R   0.948870 0.787780 0.915270 -0.529626
O18   O     O_R   0.051130 0.287780 0.084730 -0.529617
C47   C     C_R   0.083207 0.450307 0.920236 0.707344
C48   C     C_R   0.916792 0.950319 0.079764 0.707342
O19   O     O_3   0.961870 0.453310 0.991210 -0.366807
O20   O     O_3   0.038130 0.953310 0.008790 -0.366810
V3    V     V_3+5 0.007070 0.728770 0.001630 1.404429
V4    V     V_3+5 0.992930 0.228770 0.998370 1.404429
O21   O     O_3   0.712666 0.753922 0.882285 -0.588866
C49   C     C_3   0.735778 0.570885 0.877334 0.067801
H15   H     H_    0.780464 0.562206 0.912379 0.146615
H16   H     H_    0.748116 0.530697 0.820808 0.117507
C50   C     C_3   0.688275 0.433644 0.906514 -0.331116
H17   H     H_    0.677778 0.472262 0.963483 0.206716
H18   H     H_    0.643477 0.437965 0.871605 0.192691
C51   C     C_3   0.714169 0.237183 0.906279 -0.784729
H19   H     H_    0.723771 0.195965 0.849426 0.234413
H20   H     H_    0.678782 0.140669 0.927443 0.246834
H21   H     H_    0.758572 0.227258 0.941740 0.225300
O22   O     O_3   0.287329 0.253780 0.117707 -0.588871
C52   C     C_3   0.264204 0.070753 0.122638 0.067766
H22   H     H_    0.219571 0.062025 0.087501 0.146638
H23   H     H_    0.251773 0.030703 0.179140 0.117523
C53   C     C_3   0.311759 0.933434 0.093589 -0.331217
H24   H     H_    0.322371 0.971974 0.036652 0.206728
H25   H     H_    0.356497 0.937744 0.128609 0.192692
C54   C     C_3   0.285847 0.736991 0.093768 -0.784694
H26   H     H_    0.276126 0.695863 0.150591 0.234423
H27   H     H_    0.321272 0.640422 0.072713 0.246850
H28   H     H_    0.241509 0.727054 0.058192 0.225317

loop_
_geom_bond_atom_site_label_1
_geom_bond_atom_site_label_2
_ccdc_geom_bond_type
C2    C43   S    
C40   C42   S    
O21   C49   S    
C37   C39   T    
C9    C11   A    
C23   C25   A    
O1    C3    A    
C46   O17   A    
O2    C4    A    
C2    O7    A    
C4    C31   S    
O3    V1    S    
C21   C23   A    
O5    C3    A    
C54   H27   S    
C5    H5    S    
O14   C46   A    
C6    H6    S    
H1    C29   S    
C27   H7    S    
C28   H8    S    
C53   C54   S    
C34   C36   T    
C5    C21   A    
C35   C37   S    
C6    C22   A    
O18   V4    S    
C10   C32   A    
C26   H14   S    
C39   C41   S    
C17   C31   A    
C36   C38   S    
C33   C48   S    
C12   C14   A    
C17   C25   A    
C45   O18   A    
C7    C29   A    
C8    C30   A    
O16   V4    S    
O5    V1    S    
O15   V3    S    
O6    V2    S    
O13   C45   A    
C53   H24   S    
C24   C26   A    
O12   V3    S    
C54   H28   S    
C33   C35   T    
C13   O21   S    
O20   V3    S    
O4    C2    A    
C50   H17   S    
C10   H10   S    
C11   H11   S    
C51   H21   S    
C12   H12   S    
C15   C19   A    
C41   C43   T    
C14   C16   A    
O4    V2    S    
C51   H20   S    
C1    C44   S    
C50   H18   S    
O11   V4    S    
C34   C47   S    
O16   C48   A    
C52   H22   S    
C49   C50   S    
O15   C47   A    
O6    C4    A    
C52   C53   S    
C13   C15   A    
C8    C45   S    
C25   H13   S    
O1    V2    S    
O14   V4    S    
C53   H25   S    
O2    V1    S    
O13   V3    S    
H2    C30   S    
H3    C23   S    
C42   C44   T    
C52   H23   S    
C49   H16   S    
C18   C26   A    
C19   C27   A    
C7    C27   A    
O17   V3    S    
C18   C32   A    
C16   C20   A    
C5    C29   A    
O3    C1    A    
C6    C30   A    
C9    H9    S    
C54   H26   S    
C7    C46   S    
C10   C12   A    
O7    V1    S    
C1    O8    A    
C11   C13   A    
C3    C32   S    
O8    V2    S    
C50   C51   S    
C20   C22   A    
H4    C24   S    
C22   C24   A    
C15   C17   A    
C14   O22   S    
C16   C18   A    
C51   H19   S    
C20   C28   A    
C8    C28   A    
O19   V4    S    
C49   H15   S    
C19   C21   A    
O22   C52   S    
O9    V2    S    
O10   V1    S    
O12   C48   A    
C9    C31   A    
C38   C40   T    
O11   C47   A    
