data_mof_unit_4006.cif
_audit_creation_date              2013-03-05T16:47:55-0500
_audit_creation_method            fapswitch 2.2
_symmetry_space_group_name_H-M    P1
_symmetry_Int_Tables_number       1
_space_group_crystal_system       triclinic
_cell_length_a                    8.099082
_cell_length_b                    8.911701
_cell_length_c                    17.132896
_cell_angle_alpha                 90.087944
_cell_angle_beta                  85.964562
_cell_angle_gamma                 89.932891
_cell_volume                      1233.52579523

loop_
_atom_site_label
_atom_site_type_symbol
_atom_site_description
_atom_site_fract_x
_atom_site_fract_y
_atom_site_fract_z
_atom_type_partial_charge
O1    O     O_R   0.363150 0.714660 0.500000 -0.629050
O2    O     O_R   0.636850 0.285340 0.500000 -0.598455
O3    O     O_R   0.636850 0.714660 0.500000 -0.629077
O4    O     O_R   0.363150 0.285340 0.500000 -0.598646
C1    C     C_R   0.500004 0.781993 0.499495 0.898759
C2    C     C_R   0.500085 0.217994 0.499753 0.995737
O5    O     O_R   0.346950 0.500000 0.615800 -0.588337
O6    O     O_R   0.653050 0.500000 0.384200 -0.581684
O7    O     O_R   0.620700 0.500000 0.615800 -0.631519
O8    O     O_R   0.379300 0.500000 0.384200 -0.632699
C3    C     C_R   0.478479 0.503605 0.652548 0.942056
C4    C     C_R   0.520741 0.504614 0.347472 0.926860
Zn1   Zn    Zn3+2 0.317220 0.500000 0.500010 1.031290
Zn2   Zn    Zn3+2 0.682780 0.500000 0.499990 1.033519
H1    H     H_    0.276557 0.622656 0.124305 0.174738
H2    H     H_    0.584457 0.723973 0.888047 0.177228
N1    N     N_1   0.926360 0.500000 0.499990 -0.017150
N2    N     N_1   0.073640 0.500000 0.500010 -0.018375
C5    C     C_R   0.463719 0.512263 0.737143 -0.211275
C6    C     C_R   0.524102 0.504798 0.262920 -0.221491
C7    C     C_R   0.551338 0.623489 0.776652 0.066878
C8    C     C_R   0.406520 0.594085 0.226753 0.076999
C9    C     C_R   0.518100 0.639999 0.856635 -0.167342
C10   C     C_R   0.375440 0.562751 0.150239 -0.160975
C11   C     C_R   0.405417 0.546881 0.897608 -0.018586
C12   C     C_R   0.469050 0.456673 0.106364 -0.041308
C13   C     C_R   0.316653 0.436687 0.859455 0.230814
C14   C     C_R   0.594423 0.374572 0.140084 0.239843
C15   C     C_R   0.346524 0.418723 0.778508 0.182769
C16   C     C_R   0.621481 0.398129 0.219263 0.178864
C17   C     C_2   0.400798 0.557567 0.981802 -0.131712
C18   C     C_2   0.437163 0.437799 0.024155 -0.025972
C19   C     C_1   0.499970 0.934770 0.499314 -0.173267
C20   C     C_1   0.500113 0.065227 0.499424 -0.150219
H3    H     H_    0.458637 0.329277 0.996198 0.197770
H4    H     H_    0.398938 0.669677 0.006935 0.161189
N3    N     N_R   0.198213 0.343119 0.902756 0.231849
O9    O     O_R   0.092041 0.401886 0.954613 -0.304209
O10   O     O_R   0.199796 0.198352 0.892545 -0.320486
N4    N     N_R   0.691057 0.265311 0.095045 0.228220
O11   O     O_R   0.764135 0.301154 0.027612 -0.306777
O12   O     O_R   0.709667 0.130484 0.122169 -0.334832
C21   C     C_3   0.674523 0.732185 0.736837 -0.403687
C22   C     C_3   0.586582 0.871446 0.707730 -0.343422
C23   C     C_3   0.710877 0.983635 0.670616 -0.734884
H5    H     H_    0.800229 0.018442 0.713489 0.285341
H6    H     H_    0.779534 0.933047 0.618637 0.254832
H7    H     H_    0.644740 0.085058 0.651880 0.268219
H8    H     H_    0.498206 0.838219 0.664173 0.219156
H9    H     H_    0.515477 0.926864 0.757688 0.266695
H10   H     H_    0.764477 0.768741 0.779238 0.221302
H11   H     H_    0.751996 0.678699 0.688851 0.237927
C24   C     C_3   0.312446 0.724771 0.266734 -0.399489
C25   C     C_3   0.428957 0.854281 0.284078 -0.344229
C26   C     C_3   0.331486 0.990183 0.316530 -0.755036
H12   H     H_    0.247339 0.032205 0.272954 0.281580
H13   H     H_    0.257377 0.959870 0.371240 0.256666
H14   H     H_    0.418005 0.081636 0.329716 0.270531
H15   H     H_    0.517000 0.818288 0.327238 0.214784
H16   H     H_    0.501476 0.887820 0.229368 0.268863
H17   H     H_    0.218427 0.769142 0.228395 0.216691
H18   H     H_    0.240150 0.689095 0.320744 0.236131
N5    N     N_R   0.747579 0.314079 0.254763 0.243039
O13   O     O_R   0.901033 0.323641 0.227000 -0.326890
O14   O     O_R   0.708060 0.219178 0.310582 -0.405656
N6    N     N_R   0.256228 0.307298 0.738209 0.243723
O15   O     O_R   0.095186 0.305706 0.745251 -0.332107
O16   O     O_R   0.334675 0.207734 0.694027 -0.422021

loop_
_geom_bond_atom_site_label_1
_geom_bond_atom_site_label_2
_geom_bond_distance
_ccdc_geom_bond_type
C22   H8    1.109916 S    
C11   C17   1.443330 S    
N6    O16   1.301094 A    
O7    Zn2   2.012282 S    
N5    O14   1.300903 A    
C12   C18   1.459240 S    
N3    O9    1.301178 A    
C13   C15   1.399843 A    
C24   H18   1.106932 S    
C25   C26   1.527432 S    
C12   C14   1.407926 A    
C17   C18   1.335745 D    
O6    C4    1.280940 A    
C3    C5    1.447790 S    
C15   N6    1.438131 S    
C4    C6    1.446977 S    
C26   H12   1.110829 S    
C23   H6    1.110856 S    
C19   C20   1.162594 T    
N3    O10   1.301588 A    
C6    C16   1.413558 A    
C23   H5    1.110899 S    
O5    C3    1.275400 A    
O7    C3    1.273572 A    
Zn2   N1    1.972774 S    
C21   H10   1.113084 S    
O2    C2    1.260700 A    
O3    Zn2   1.948388 S    
O8    C4    1.268327 A    
Zn1   N2    1.972774 S    
C13   N3    1.438555 S    
O1    C1    1.260511 A    
C8    C24   1.525812 S    
C14   C16   1.404794 A    
N4    O11   1.300939 A    
C5    C7    1.418271 A    
C10   C12   1.396230 A    
N1    N2    1.192857 T    
H2    C9    1.085783 S    
C25   H15   1.110188 S    
C26   H13   1.110772 S    
C7    C9    1.385379 A    
C21   C22   1.531662 S    
O2    Zn2   1.949244 S    
C8    C10   1.380318 A    
C21   H11   1.105583 S    
C26   H14   1.108749 S    
C11   C13   1.405095 A    
C14   N4    1.437703 S    
N5    O13   1.302041 A    
C5    C15   1.416710 A    
C18   H3    1.086940 S    
O5    Zn1   2.015128 S    
C9    C11   1.388417 A    
O1    Zn1   1.949244 S    
C22   C23   1.526933 S    
O4    C2    1.260147 A    
C23   H7    1.109443 S    
C22   H9    1.112120 S    
N6    O15   1.301471 A    
C17   H4    1.086997 S    
H1    C10   1.083335 S    
C25   H16   1.112074 S    
O6    Zn2   2.015129 S    
O4    Zn1   1.948389 S    
C7    C21   1.519059 S    
C24   H17   1.112711 S    
C16   N5    1.435618 S    
C2    C20   1.361418 S    
C24   C25   1.533558 S    
C6    C8    1.416601 A    
N4    O12   1.301351 A    
O3    C1    1.260296 A    
O8    Zn1   2.012282 S    
C1    C19   1.361509 S    
