data_mof_unit_675.cif
_audit_creation_date              2012-12-10T20:38:15-0500
_audit_creation_method            fapswitch 2.2
_symmetry_space_group_name_H-M    P1
_symmetry_Int_Tables_number       1
_space_group_crystal_system       triclinic
_cell_length_a                    9.874713
_cell_length_b                    10.704309
_cell_length_c                    16.80551
_cell_angle_alpha                 90.456466
_cell_angle_beta                  85.426411
_cell_angle_gamma                 89.540595
_cell_volume                      1770.59631185

loop_
_atom_site_label
_atom_site_type_symbol
_atom_type_description
_atom_site_fract_x
_atom_site_fract_y
_atom_site_fract_z
_atom_type_partial_charge
C1    C     C_R   0.500041 0.740003 0.498930 0.879681
C2    C     C_R   0.349758 0.437668 0.780021 -0.215606
C3    C     C_R   0.407660 0.434941 0.143184 0.260282
C4    C     C_R   0.406608 0.456368 0.224763 -0.315215
C5    C     C_R   0.644048 0.518167 0.210936 0.227470
C6    C     C_R   0.646582 0.492162 0.129345 -0.304625
C7    C     C_R   0.530671 0.448120 0.095708 0.110714
C8    C     C_2   0.470510 0.341179 0.973400 -0.228059
C9    C     C_2   0.539579 0.429338 0.009472 -0.203601
C10   C     C_R   0.524661 0.493177 0.259669 -0.119553
C11   C     C_R   0.395217 0.937061 0.462860 0.084488
C12   C     C_R   0.481892 0.491851 0.652716 0.854129
C13   C     C_R   0.504261 0.871716 0.490467 -0.099346
C14   C     C_R   0.624079 0.934845 0.504738 -0.221391
C15   C     C_R   0.624727 0.063481 0.504702 -0.228345
C16   C     C_R   0.506174 0.128582 0.489306 -0.142581
C17   C     C_R   0.396963 0.064904 0.461558 0.129149
C18   C     C_3   0.247724 0.075021 0.485373 0.038279
C19   C     C_3   0.246514 0.932963 0.487846 -0.550328
C20   C     C_R   0.919242 0.528747 0.567885 0.158179
C21   C     C_R   0.938369 0.455377 0.435906 0.236397
C22   C     C_R   0.082169 0.457363 0.435968 -0.191979
C23   C     C_R   0.500991 0.260143 0.498542 0.873607
C24   C     C_R   0.061491 0.528116 0.568029 0.206751
C25   C     C_3   0.059621 0.646825 0.614928 -0.509039
C26   C     C_3   0.905766 0.647567 0.614521 -0.497732
C27   C     C_R   0.518080 0.501017 0.346698 0.881375
C28   C     C_R   0.474748 0.448237 0.734770 -0.029171
C29   C     C_R   0.593979 0.402295 0.764956 -0.209726
C30   C     C_R   0.589618 0.352406 0.840580 -0.175829
C31   C     C_R   0.466678 0.350134 0.887656 0.181538
C32   C     C_R   0.345903 0.388810 0.856722 -0.154351
H1    H     H_    0.691403 0.405442 0.730526 0.156509
H2    H     H_    0.738797 0.508740 0.091560 0.138861
H3    H     H_    0.223850 0.119836 0.544856 0.134661
H4    H     H_    0.144646 0.424045 0.384240 0.160787
H5    H     H_    0.095537 0.633205 0.675303 0.194760
H6    H     H_    0.312033 0.444450 0.260920 0.179166
H7    H     H_    0.865838 0.725703 0.579777 0.207304
H8    H     H_    0.603794 0.493460 0.973778 0.154936
H9    H     H_    0.250855 0.389088 0.893711 0.133837
H10   H     H_    0.683489 0.323629 0.864654 0.133615
N1    N     N_R   0.857140 0.500860 0.500530 -0.118637
N2    N     N_R   0.142780 0.500820 0.500530 -0.114698
O1    O     O_R   0.385310 0.683210 0.499990 -0.610859
O2    O     O_R   0.614650 0.683240 0.500000 -0.623793
O3    O     O_R   0.371780 0.500000 0.615800 -0.617212
O4    O     O_R   0.601120 0.500040 0.615800 -0.622001
O5    O     O_R   0.385350 0.316760 0.500000 -0.607037
O6    O     O_R   0.614690 0.316790 0.500010 -0.622052
O7    O     O_R   0.398880 0.499960 0.384200 -0.633544
O8    O     O_R   0.628220 0.500000 0.384200 -0.556071
Zn1   Zn    Zn3+2 0.346870 0.499980 0.499990 0.945586
Zn2   Zn    Zn3+2 0.653130 0.500020 0.500010 0.957495
H11   H     H_    0.713803 0.886061 0.521583 0.162748
H12   H     H_    0.714042 0.110866 0.522558 0.163244
N3    N     N_2   0.167176 0.127460 0.424366 -0.276365
H13   H     H_    0.064633 0.111300 0.435215 0.222412
C33   C     C_3   0.215783 0.115716 0.340803 -0.762085
H14   H     H_    0.141981 0.160232 0.303278 0.218472
H15   H     H_    0.227442 0.015846 0.323070 0.234233
H16   H     H_    0.314091 0.164610 0.329313 0.246359
H17   H     H_    0.226612 0.897760 0.549544 0.180767
H18   H     H_    0.187180 0.887533 0.442308 0.211967
N4    N     N_2   0.880330 0.407249 0.367646 -0.248989
H19   H     H_    0.934890 0.428429 0.314651 0.196915
C34   C     C_3   0.842984 0.276721 0.371493 -0.696692
H20   H     H_    0.910187 0.220881 0.328435 0.192700
H21   H     H_    0.737153 0.266506 0.354835 0.248735
H22   H     H_    0.850782 0.237739 0.432030 0.222737
H23   H     H_    0.108463 0.724096 0.580333 0.210676
H24   H     H_    0.852819 0.634031 0.674673 0.200119
N5    N     N_2   0.760162 0.571721 0.242495 -0.286563
H25   H     H_    0.850211 0.552302 0.209074 0.206902
C35   C     C_3   0.746332 0.703360 0.262146 -0.753622
H26   H     H_    0.735857 0.758412 0.207151 0.223441
H27   H     H_    0.838113 0.735140 0.290380 0.231733
H28   H     H_    0.656560 0.721151 0.304937 0.239748
N6    N     N_2   0.283231 0.413015 0.108144 -0.309930
H29   H     H_    0.224660 0.492704 0.104856 0.223825
C36   C     C_3   0.205640 0.306643 0.137993 -0.866522
H30   H     H_    0.126501 0.285022 0.096729 0.246171
H31   H     H_    0.154276 0.327750 0.197836 0.230579
H32   H     H_    0.272551 0.223158 0.141315 0.255168
H33   H     H_    0.256260 0.469522 0.756950 0.145810
H34   H     H_    0.405975 0.274673 0.006192 0.188132

loop_
_geom_bond_atom_site_label_1
_geom_bond_atom_site_label_2
_ccdc_geom_bond_type
C10   C27   S    
C26   H24   S    
N5    H25   S    
C12   O4    A    
C3    N6    S    
C20   N1    A    
C36   H30   S    
O4    Zn2   S    
C11   C19   S    
O6    Zn2   S    
C12   C28   S    
C28   C29   A    
C3    C7    A    
C5    C6    A    
C26   H7    S    
C23   O5    A    
C15   C16   A    
C29   H1    S    
C2    H33   S    
C2    C32   A    
C18   C19   S    
N1    Zn2   S    
C25   H5    S    
C21   N1    A    
N2    Zn1   S    
C22   N2    A    
C20   C24   A    
O8    Zn2   S    
C8    C9    D    
N4    C34   S    
C32   H9    S    
C25   H23   S    
C18   H3    S    
O3    Zn1   S    
C14   H11   S    
O1    Zn1   S    
C33   H14   S    
C21   C22   A    
N5    C35   S    
C12   O3    A    
C36   H31   S    
C27   O7    A    
C33   H15   S    
C34   H20   S    
C24   C25   S    
C19   H17   S    
N6    C36   S    
C16   C17   A    
C23   O6    A    
C25   C26   S    
C9    H8    S    
C6    H2    S    
C34   H21   S    
C35   H26   S    
C29   C30   A    
C18   N3    S    
C31   C32   A    
C19   H18   S    
O2    Zn2   S    
C17   C18   S    
C35   H27   S    
C4    H6    S    
C16   C23   S    
C24   N2    A    
C1    C13   S    
C4    C10   A    
C3    C4    A    
C36   H32   S    
C27   O8    A    
C7    C9    S    
C11   C17   A    
C33   H16   S    
C21   N4    S    
C8    C31   S    
C6    C7    A    
C22   H4    S    
C34   H22   S    
C15   H12   S    
C5    C10   A    
C11   C13   A    
C1    O1    A    
N3    H13   S    
C30   C31   A    
C20   C26   S    
O5    Zn1   S    
C8    H34   S    
C5    N5    S    
C1    O2    A    
C35   H28   S    
N3    C33   S    
N6    H29   S    
N4    H19   S    
C14   C15   A    
C30   H10   S    
C2    C28   A    
O7    Zn1   S    
C13   C14   A    
