data_mof_unit_102.cif
_audit_creation_date              2012-12-10T18:34:25-0500
_audit_creation_method            fapswitch 2.2
_symmetry_space_group_name_H-M    P1
_symmetry_Int_Tables_number       1
_space_group_crystal_system       triclinic
_cell_length_a                    14.987475
_cell_length_b                    15.32668
_cell_length_c                    15.723713
_cell_angle_alpha                 89.972932
_cell_angle_beta                  104.979955
_cell_angle_gamma                 81.757893
_cell_volume                      3450.42190561

loop_
_atom_site_label
_atom_site_type_symbol
_atom_type_description
_atom_site_fract_x
_atom_site_fract_y
_atom_site_fract_z
_atom_type_partial_charge
C1    C     C_R   0.440960 0.663226 0.485487 0.912682
C2    C     C_R   0.558948 0.336866 0.510522 0.914398
C3    C     C_R   0.279287 0.880604 0.406359 0.449190
C4    C     C_R   0.716800 0.121730 0.493504 0.443998
C5    C     C_R   0.308485 0.793334 0.441264 0.067933
C6    C     C_R   0.690497 0.208306 0.517932 0.061531
C7    C     C_R   0.468829 0.810278 0.448473 -0.302539
C8    C     C_R   0.527580 0.190152 0.462844 -0.303544
C9    C     C_R   0.442464 0.898876 0.420599 0.024749
C10   C     C_R   0.551876 0.102606 0.443408 0.024974
C11   C     C_R   0.346513 0.934521 0.400788 0.027528
C12   C     C_R   0.647773 0.067600 0.460926 0.027068
C13   C     C_R   0.510451 0.954725 0.420572 0.116930
C14   C     C_R   0.482603 0.047014 0.415309 0.120005
C15   C     C_R   0.386303 0.080129 0.386738 -0.249194
C16   C     C_R   0.605864 0.922063 0.430389 -0.250780
C17   C     C_R   0.319580 0.024598 0.379193 -0.190418
C18   C     C_R   0.673085 0.977909 0.449163 -0.189785
C19   C     C_R   0.843548 0.635082 0.633676 -0.307576
C20   C     C_R   0.158228 0.360744 0.370223 -0.315167
C21   C     C_R   0.753576 0.614590 0.609460 0.022936
C22   C     C_R   0.246184 0.386104 0.389764 0.018813
C23   C     C_R   0.501344 0.500287 0.662197 0.911177
C24   C     C_R   0.498656 0.499709 0.337805 0.893357
C25   C     C_R   0.794331 0.509043 0.510256 -0.022419
C26   C     C_R   0.207946 0.485149 0.495244 -0.023136
C27   C     C_R   0.887336 0.525931 0.532560 0.000138
C28   C     C_R   0.116612 0.464094 0.477041 -0.002644
C29   C     C_R   0.910864 0.590827 0.595526 0.169660
C30   C     C_R   0.092862 0.399890 0.413385 0.182378
C31   C     C_R   0.956727 0.481664 0.494399 0.087758
C32   C     C_R   0.048526 0.505049 0.518533 0.079233
C33   C     C_R   0.068873 0.569261 0.582478 -0.205785
C34   C     C_R   0.937336 0.415123 0.432853 -0.218574
C35   C     C_R   0.001179 0.611102 0.620065 -0.191458
C36   C     C_R   0.004284 0.375294 0.393193 -0.209628
C37   C     C_3   0.440029 0.569726 0.012543 -0.161643
C38   C     C_3   0.559967 0.430133 0.987485 -0.161039
C39   C     C_3   0.528413 0.574978 0.980383 -0.161301
C40   C     C_3   0.471583 0.424881 0.019648 -0.163769
C41   C     C_1   0.504006 0.500928 0.751949 -0.173277
C42   C     C_1   0.496000 0.499017 0.248066 -0.181822
C43   C     C_3   0.414174 0.495302 0.948446 -0.158562
C44   C     C_3   0.585822 0.504558 0.051583 -0.163084
C45   C     C_3   0.502547 0.500551 0.918053 0.202863
C46   C     C_3   0.497449 0.499309 0.081973 0.202687
C47   C     C_1   0.504317 0.500996 0.827449 -0.071866
C48   C     C_1   0.495685 0.498900 0.172571 -0.079849
C49   C     C_R   0.404179 0.757032 0.459947 -0.176970
C50   C     C_R   0.594514 0.243577 0.499739 -0.178732
H1    H     H_    0.551786 0.636293 0.962287 0.138508
H2    H     H_    0.448215 0.363568 0.037757 0.137704
H3    H     H_    0.233833 0.531012 0.543758 0.148626
H4    H     H_    0.768987 0.461786 0.462979 0.136209
H5    H     H_    0.297571 0.356545 0.356938 0.127949
H6    H     H_    0.700860 0.647459 0.639030 0.137715
H7    H     H_    0.860464 0.684670 0.681969 0.150355
H8    H     H_    0.141309 0.311442 0.321607 0.141516
H9    H     H_    0.136662 0.589274 0.605382 0.158082
H10   H     H_    0.870854 0.391876 0.413435 0.142313
H11   H     H_    0.390855 0.626704 0.024847 0.137973
H12   H     H_    0.609145 0.373154 0.975194 0.140838
H13   H     H_    0.655970 0.508293 0.095895 0.137854
H14   H     H_    0.344024 0.491566 0.904135 0.140266
H15   H     H_    0.246766 0.053816 0.361265 0.181890
H16   H     H_    0.745586 0.949181 0.459607 0.186833
H17   H     H_    0.455273 0.216832 0.453934 0.185377
H18   H     H_    0.541490 0.782453 0.466475 0.186252
H19   H     H_    0.360440 0.149030 0.369909 0.139669
H20   H     H_    0.630683 0.853414 0.423831 0.149168
H21   H     H_    0.019680 0.660250 0.668523 0.152544
H22   H     H_    0.986210 0.325225 0.345662 0.141717
N1    N     N_R   0.731710 0.552730 0.549140 -0.099252
N2    N     N_R   0.268290 0.447270 0.450860 -0.097767
O1    O     O_R   0.383110 0.605620 0.475230 -0.581162
O2    O     O_R   0.616890 0.394380 0.524770 -0.582673
O3    O     O_R   0.531900 0.639510 0.506760 -0.630492
O4    O     O_R   0.468100 0.360490 0.493240 -0.626406
O5    O     O_R   0.425620 0.483070 0.607460 -0.612462
O6    O     O_R   0.574380 0.516930 0.392540 -0.618630
O7    O     O_R   0.574400 0.516960 0.638990 -0.606637
O8    O     O_R   0.425600 0.483040 0.361010 -0.615487
Zn1   Zn    Zn3+2 0.400660 0.477370 0.478940 0.960185
Zn2   Zn    Zn3+2 0.599340 0.522630 0.521060 0.959682
I1    I     I_    0.799339 0.275951 0.591508 -0.356147
I2    I     I_    0.205514 0.726446 0.474136 -0.394245
O9    O     O_3   0.185797 0.916896 0.387958 -0.632524
C51   C     C_3   0.136380 0.888667 0.305558 0.109054
H23   H     H_    0.064798 0.882544 0.310223 0.189363
H24   H     H_    0.166828 0.822446 0.287976 0.138772
C52   C     C_3   0.128950 0.956921 0.231959 -0.412363
H25   H     H_    0.099249 0.022821 0.249974 0.233352
H26   H     H_    0.199609 0.960684 0.223409 0.221360
C53   C     C_3   0.066801 0.932597 0.144717 -0.928005
H27   H     H_    0.095921 0.867432 0.124650 0.265561
H28   H     H_    0.063125 0.983081 0.092769 0.270797
H29   H     H_    0.994997 0.930061 0.150797 0.260910
O10   O     O_3   0.810461 0.086333 0.511086 -0.629537
C54   C     C_3   0.850560 0.117420 0.446613 0.112919
H30   H     H_    0.921574 0.130932 0.481124 0.197167
H31   H     H_    0.812005 0.180566 0.411536 0.118590
C55   C     C_3   0.859668 0.046714 0.379405 -0.379942
H32   H     H_    0.896191 0.983425 0.414472 0.246330
H33   H     H_    0.788955 0.036568 0.340447 0.213047
C56   C     C_3   0.914413 0.073426 0.316627 -0.940941
H34   H     H_    0.879091 0.136446 0.280447 0.257862
H35   H     H_    0.918578 0.021430 0.268081 0.267006
H36   H     H_    0.986513 0.081305 0.353745 0.275931

loop_
_geom_bond_atom_site_label_1
_geom_bond_atom_site_label_2
_ccdc_geom_bond_type
C39   H1    S    
O9    C51   S    
C4    O10   S    
C27   C29   A    
C1    O3    A    
N2    Zn1   S    
O6    Zn2   S    
O2    Zn2   S    
C20   C30   A    
C19   H7    S    
C40   C46   S    
C56   H35   S    
C6    I1    S    
C19   C21   A    
C21   N1    A    
C24   C42   S    
C55   C56   S    
C15   C17   A    
C9    C13   A    
C38   C45   S    
C24   O8    A    
C2    C50   S    
C26   N2    A    
C7    H18   S    
O4    Zn1   S    
C24   O6    A    
C40   C43   S    
C31   C32   A    
C4    C12   A    
N1    Zn2   S    
C25   N1    A    
C39   C45   S    
C35   H21   S    
C33   H9    S    
C38   C40   S    
C13   C14   A    
C34   H10   S    
C5    C49   A    
C55   H32   S    
C44   C46   S    
C43   H14   S    
C45   C47   S    
C44   H13   S    
C15   H19   S    
C56   H36   S    
C46   C48   S    
C3    O9    S    
C1    O1    A    
C28   C32   A    
C16   H20   S    
C25   H4    S    
C7    C49   A    
C4    C6    A    
C10   C14   A    
C52   H25   S    
O3    Zn2   S    
C40   H2    S    
C27   C31   A    
C37   C43   S    
C55   H33   S    
C38   C44   S    
C2    O4    A    
C52   H26   S    
C9    C11   A    
C54   H30   S    
C51   C52   S    
C41   C47   T    
C31   C34   A    
C42   C48   T    
C6    C50   A    
C53   H28   S    
C43   C45   S    
C22   H5    S    
C10   C12   A    
C5    I2    S    
C8    C10   A    
C54   H31   S    
C51   H24   S    
O10   C54   S    
C25   C27   A    
C22   N2    A    
C20   H8    S    
C19   C29   A    
C26   H3    S    
C8    C50   A    
O7    Zn2   S    
C2    O2    A    
C7    C9    A    
C11   C17   A    
C23   O7    A    
C26   C28   A    
C20   C22   A    
C3    C5    A    
C23   C41   S    
C21   H6    S    
C37   H11   S    
C39   C44   S    
C18   H16   S    
C56   H34   S    
C29   C35   A    
C17   H15   S    
C53   H29   S    
C30   C36   A    
C32   C33   A    
C28   C30   A    
C37   C39   S    
C52   C53   S    
O5    Zn1   S    
O1    Zn1   S    
C33   C35   A    
C34   C36   A    
C53   H27   S    
C3    C11   A    
C54   C55   S    
C51   H23   S    
C8    H17   S    
C16   C18   A    
O8    Zn1   S    
C13   C16   A    
C12   C18   A    
C14   C15   A    
C23   O5    A    
C37   C46   S    
C1    C49   S    
C36   H22   S    
C38   H12   S    
