data_mof_unit_1157.cif
_audit_creation_date              2013-03-05T15:44:18-0500
_audit_creation_method            fapswitch 2.2
_symmetry_space_group_name_H-M    P1
_symmetry_Int_Tables_number       1
_space_group_crystal_system       triclinic
_cell_length_a                    20.742825
_cell_length_b                    7.090898
_cell_length_c                    16.768494
_cell_angle_alpha                 89.54563
_cell_angle_beta                  92.863199
_cell_angle_gamma                 90.128978
_cell_volume                      2463.23759603

loop_
_atom_site_label
_atom_site_type_symbol
_atom_site_description
_atom_site_fract_x
_atom_site_fract_y
_atom_site_fract_z
_atom_type_partial_charge
O1    O     O_R   0.564840 0.505290 0.579830 -0.554042
O2    O     O_R   0.435160 0.005290 0.420170 -0.554064
O3    O     O_R   0.556720 0.179930 0.409350 -0.533761
O4    O     O_R   0.443280 0.679930 0.590650 -0.557549
C1    C     C_R   0.570364 0.346361 0.381339 0.901365
C2    C     C_R   0.430408 0.845279 0.618959 0.916231
O5    O     O_R   0.572280 0.175810 0.578530 -0.502763
O6    O     O_R   0.427720 0.675810 0.421470 -0.500255
O7    O     O_R   0.450830 0.001920 0.590540 -0.559182
O8    O     O_R   0.549170 0.501920 0.409460 -0.568704
C3    C     C_R   0.590744 0.344703 0.604007 0.849696
C4    C     C_R   0.409763 0.845154 0.395125 0.878772
O9    O     O_3   0.460130 0.338030 0.503750 -0.264250
O10   O     O_3   0.539870 0.838030 0.496250 -0.255815
V1    V     V_3+5 0.507400 0.064560 0.499310 1.292600
V2    V     V_3+5 0.492600 0.564560 0.500690 1.279577
C5    C     C_R   0.138934 0.897838 0.172467 -0.096617
C6    C     C_R   0.860895 0.401398 0.827466 -0.108441
C7    C     C_R   0.355518 0.864857 0.333087 -0.178807
C8    C     C_R   0.644726 0.361534 0.666190 -0.174045
C9    C     C_R   0.303221 0.069172 0.231749 0.033177
C10   C     C_R   0.692326 0.550432 0.775118 0.018210
C11   C     C_R   0.355867 0.024134 0.282820 -0.083255
C12   C     C_R   0.640008 0.502842 0.723824 -0.098802
C13   C     C_R   0.301538 0.741344 0.327486 0.342407
C14   C     C_R   0.703293 0.259259 0.663432 0.321945
C15   C     C_R   0.245617 0.791434 0.277891 -0.091867
C16   C     C_R   0.755902 0.299275 0.719490 -0.073422
C17   C     C_R   0.247467 0.958233 0.229940 0.003945
C18   C     C_R   0.750757 0.453135 0.772754 0.007301
C19   C     C_R   0.194248 0.011031 0.178728 0.045090
C20   C     C_R   0.803489 0.505754 0.824611 0.030869
C21   C     C_R   0.135630 0.740238 0.222857 -0.097807
C22   C     C_R   0.865796 0.250340 0.774861 -0.107521
C23   C     C_R   0.187407 0.684462 0.274170 0.361320
C24   C     C_R   0.814154 0.193540 0.723638 0.369877
H1    H     H_    0.197149 0.135936 0.141598 0.146285
H2    H     H_    0.798606 0.622320 0.865054 0.153983
H3    H     H_    0.092474 0.654714 0.220432 0.163196
H4    H     H_    0.909391 0.167410 0.777361 0.165462
H5    H     H_    0.305713 0.194469 0.194555 0.113935
H6    H     H_    0.687037 0.664827 0.816770 0.102268
H7    H     H_    0.397424 0.116795 0.283586 0.171865
H8    H     H_    0.595768 0.582058 0.727360 0.152114
C25   C     C_R   0.384589 0.975630 0.825904 -0.070576
C26   C     C_R   0.619891 0.544928 0.185136 -0.066650
H9    H     H_    0.308933 0.025971 0.943499 0.108047
H10   H     H_    0.697528 0.631515 0.072478 0.108171
H11   H     H_    0.407849 0.023555 0.881517 0.121329
H12   H     H_    0.598563 0.626221 0.135495 0.116315
C27   C     C_R   0.392113 0.863156 0.690734 -0.190778
C28   C     C_R   0.607874 0.368739 0.308420 -0.189160
C29   C     C_R   0.078998 0.863009 0.737052 0.269485
C30   C     C_R   0.919437 0.319573 0.259436 0.280897
C31   C     C_R   0.112521 0.879195 0.666226 -0.084619
C32   C     C_R   0.884918 0.300149 0.329306 -0.085127
C33   C     C_R   0.179336 0.905259 0.670941 -0.091250
C34   C     C_R   0.818458 0.332577 0.326093 -0.091860
C35   C     C_R   0.215215 0.904595 0.744359 0.024996
C36   C     C_R   0.784334 0.383040 0.254601 0.030314
C37   C     C_R   0.180409 0.926173 0.815437 -0.100880
C38   C     C_R   0.820513 0.432380 0.186796 -0.092639
C39   C     C_R   0.284947 0.898061 0.748523 0.038612
C40   C     C_R   0.714997 0.397815 0.250705 0.037174
C41   C     C_R   0.317512 0.955018 0.820327 -0.008908
C42   C     C_R   0.685708 0.504333 0.187414 -0.000322
C43   C     C_R   0.283319 0.988762 0.887780 -0.079037
C44   C     C_R   0.721436 0.561734 0.123618 -0.074049
C45   C     C_R   0.216813 0.965482 0.887252 0.372476
C46   C     C_R   0.786180 0.514086 0.119925 0.371044
C47   C     C_R   0.323981 0.835825 0.685428 -0.080814
C48   C     C_R   0.673546 0.309772 0.306242 -0.101408
C49   C     C_R   0.422233 0.937429 0.761424 -0.048974
C50   C     C_R   0.581013 0.483532 0.245534 -0.044094
C51   C     C_R   0.111165 0.906282 0.811347 -0.185171
C52   C     C_R   0.888928 0.396910 0.188968 -0.183222
H13   H     H_    0.202739 0.933452 0.616115 0.138328
H14   H     H_    0.793681 0.324590 0.381219 0.140876
O11   O     O_R   0.950790 0.256670 0.090520 -0.539317
O12   O     O_R   0.049210 0.756670 0.909480 -0.539878
O13   O     O_R   0.927720 0.590370 0.921470 -0.508298
O14   O     O_R   0.072280 0.090370 0.078530 -0.512962
C53   C     C_R   0.912149 0.421502 0.892615 0.933889
C54   C     C_R   0.087691 0.920610 0.107489 0.947349
O15   O     O_R   0.943270 0.586180 0.090640 -0.541765
O16   O     O_R   0.056730 0.086180 0.909360 -0.544194
O17   O     O_R   0.064850 0.759970 0.079840 -0.564386
O18   O     O_R   0.935150 0.259970 0.920160 -0.562903
C55   C     C_R   0.929023 0.415853 0.117633 0.943116
C56   C     C_R   0.071308 0.917324 0.882778 0.946794
O19   O     O_3   0.039850 0.428050 0.996240 -0.274571
O20   O     O_3   0.960150 0.928050 0.003760 -0.266400
V3    V     V_3+5 0.992610 0.701540 0.000700 1.304443
V4    V     V_3+5 0.007390 0.201540 0.999300 1.300028
C57   C     C_2   0.296079 0.725470 0.617772 0.876165
O21   O     O_2   0.303946 0.778001 0.549391 -0.574565
O22   O     O_R   0.259199 0.564852 0.632679 -0.729793
H15   H     H_    0.240956 0.503692 0.582017 0.368841
C58   C     C_2   0.694198 0.132376 0.348022 0.887089
O23   O     O_2   0.679614 0.100281 0.416374 -0.524542
O24   O     O_R   0.730349 0.000088 0.307918 -0.742621
H16   H     H_    0.741497 0.884633 0.341875 0.331685
N1    N     N_R   0.013762 0.791831 0.733505 0.105753
O25   O     O_R   0.969051 0.871168 0.773132 -0.359489
O26   O     O_R   0.999975 0.637857 0.694452 -0.309681
N2    N     N_R   0.984778 0.251836 0.259188 0.104378
O27   O     O_R   0.997855 0.078316 0.279936 -0.342637
O28   O     O_R   0.030979 0.360583 0.236379 -0.351202
C59   C     C_2   0.078681 0.875380 0.585823 0.983219
O29   O     O_2   0.021478 0.916346 0.577570 -0.511620
O30   O     O_R   0.112888 0.829834 0.518783 -0.695852
H17   H     H_    0.084951 0.834480 0.467428 0.363117
C60   C     C_2   0.917595 0.249733 0.407527 0.967592
O31   O     O_2   0.974784 0.286001 0.420906 -0.494612
O32   O     O_R   0.882432 0.164666 0.467035 -0.678751
H18   H     H_    0.909841 0.139936 0.517731 0.380730
N3    N     N_R   0.188432 0.979908 0.962062 0.028369
O33   O     O_R   0.181288 0.147050 0.991662 -0.385449
O34   O     O_R   0.192939 0.834734 0.009802 -0.421887
N4    N     N_R   0.813253 0.532693 0.044269 0.038272
O35   O     O_R   0.818291 0.699764 0.012542 -0.370132
O36   O     O_R   0.811358 0.385517 0.998568 -0.433368
N5    N     N_R   0.178831 0.517646 0.320808 0.140266
O37   O     O_R   0.136508 0.517293 0.375503 -0.246309
O38   O     O_R   0.199426 0.357490 0.294939 -0.322871
N6    N     N_R   0.819519 0.015161 0.684891 0.137500
O39   O     O_R   0.871377 0.975314 0.647950 -0.244346
O40   O     O_R   0.780320 0.879160 0.702203 -0.334164
N7    N     N_R   0.305630 0.563178 0.368098 0.119152
O41   O     O_R   0.276697 0.535634 0.434113 -0.275057
O42   O     O_R   0.342099 0.431359 0.341520 -0.327953
N8    N     N_R   0.712691 0.138596 0.596932 0.116115
O43   O     O_R   0.757314 0.179243 0.547721 -0.283447
O44   O     O_R   0.681566 0.979607 0.589888 -0.261777
C61   C     C_2   0.493073 0.975161 0.771146 0.846229
O45   O     O_2   0.531144 0.894186 0.729936 -0.621162
O46   O     O_R   0.516440 0.103168 0.828783 -0.754315
H19   H     H_    0.565118 0.117771 0.829593 0.315942
C62   C     C_2   0.511424 0.535999 0.238876 0.866948
O47   O     O_2   0.470682 0.431867 0.265876 -0.599311
O48   O     O_R   0.492305 0.703139 0.199707 -0.758946
H20   H     H_    0.443863 0.722819 0.198600 0.308502

loop_
_geom_bond_atom_site_label_1
_geom_bond_atom_site_label_2
_geom_bond_distance
_ccdc_geom_bond_type
C42   C44   1.389323 A    
C39   C41   1.412221 A    
N6    O39   1.300524 A    
O14   V4    2.001932 S    
C15   C17   1.426432 A    
N3    O33   1.300184 A    
C57   O21   1.221407 D    
O1    C3    1.312785 A    
C54   O17   1.311845 A    
O2    C4    1.313790 A    
C2    O7    1.284490 A    
O22   H15   1.012896 S    
O3    V1    2.030329 S    
C61   O45   1.222167 D    
C37   C51   1.441187 A    
O5    C3    1.324071 A    
C21   H3    1.079403 S    
C5    C21   1.399276 A    
C22   H4    1.078656 S    
C10   C12   1.393240 A    
C25   C49   1.393596 A    
N7    O41   1.298518 A    
C28   C50   1.419411 A    
C59   O30   1.399280 S    
C33   C35   1.406380 A    
C47   C57   1.476756 S    
N2    O27   1.301469 A    
C34   C36   1.405636 A    
O32   H18   1.013135 S    
C11   H7    1.082332 S    
C38   C46   1.418436 A    
C36   C38   1.433904 A    
C45   N3    1.416594 S    
C8    C12   1.404571 A    
O16   V4    2.041730 S    
C51   C56   1.491648 S    
O15   V3    2.030268 S    
C49   C61   1.494098 S    
C46   N4    1.417886 S    
N8    O43   1.300807 A    
C41   C43   1.387398 A    
C32   C60   1.487445 S    
C1    C28   1.488984 S    
C20   H2    1.081432 S    
C2    C27   1.481217 S    
C52   C55   1.495627 S    
O5    V1    2.007823 S    
C53   O18   1.313386 A    
C13   N7    1.431122 S    
O6    V2    2.001916 S    
C31   C59   1.489018 S    
C38   C52   1.440414 A    
C29   C51   1.418985 A    
C27   C47   1.424506 A    
H9    C43   1.085612 S    
O13   C53   1.328200 A    
N4    O36   1.299003 A    
O18   V4    1.993377 S    
C29   C31   1.409677 A    
C9    C11   1.389850 A    
C30   C32   1.408957 A    
C3    C8    1.496671 S    
C35   C37   1.433378 A    
C30   N2    1.439173 S    
O24   H16   1.014023 S    
C33   H13   1.077979 S    
N5    O37   1.300874 A    
O11   V4    2.015416 S    
O4    C2    1.301625 A    
O16   C56   1.321859 A    
O15   C55   1.324395 A    
C15   C23   1.423459 A    
C9    C17   1.396437 A    
C19   H1    1.081884 S    
C43   C45   1.388596 A    
C40   C42   1.410983 A    
O4    V2    2.041795 S    
C7    C11   1.404132 A    
C28   C48   1.428126 A    
O19   V3    2.178257 S    
O13   V3    2.007834 S    
C58   O23   1.219502 D    
C25   H11   1.085006 S    
O6    C4    1.324005 A    
C8    C14   1.419172 A    
O20   V4    2.173267 S    
C6    C53   1.493250 S    
N1    O26   1.301503 A    
O1    V2    1.994602 S    
H10   C44   1.085377 S    
O2    V1    1.997611 S    
C6    C22   1.400080 A    
C9    H5    1.084095 S    
N8    O44   1.301137 A    
C58   O24   1.399301 S    
C39   C47   1.436776 A    
O14   C54   1.328146 A    
C31   C33   1.396188 A    
C25   C41   1.397234 A    
C5    C19   1.398882 A    
C30   C52   1.419186 A    
C6    C20   1.401956 A    
C26   C50   1.392337 A    
C14   N8    1.432188 S    
N4    O35   1.300938 A    
C60   O31   1.223357 D    
O46   H19   1.014202 S    
C37   C45   1.418304 A    
C61   O46   1.399310 S    
N6    O40   1.300386 A    
C10   C18   1.398419 A    
O30   H17   1.014033 S    
C35   C39   1.445458 A    
C24   N6    1.433640 S    
C27   C49   1.416778 A    
O3    C1    1.302479 A    
C62   O47   1.222506 D    
C57   O22   1.398389 S    
C26   C42   1.394465 A    
C13   C15   1.436691 A    
C50   C62   1.490037 S    
C26   H12   1.085203 S    
C14   C16   1.433632 A    
C36   C40   1.440474 A    
C5    C54   1.491760 S    
N3    O34   1.299686 A    
O7    V1    2.020070 S    
C16   C18   1.422992 A    
C17   C19   1.413614 A    
O8    V2    2.026552 S    
O48   H20   1.014012 S    
O19   V4    1.741553 S    
C18   C20   1.414240 A    
C62   O48   1.398939 S    
C10   H6    1.083921 S    
N2    O28   1.299209 A    
C29   N1    1.441775 S    
C12   H8    1.081409 S    
O17   V3    1.996347 S    
C4    C7    1.499743 S    
C23   N5    1.428536 S    
O20   V3    1.745096 S    
C21   C23   1.398014 A    
C32   C34   1.396452 A    
C22   C24   1.399673 A    
C40   C48   1.436896 A    
O12   C56   1.310875 A    
C7    C13   1.419845 A    
O11   C55   1.309805 A    
N5    O38   1.299568 A    
C34   H14   1.080872 S    
C1    O8    1.289766 A    
C16   C24   1.421914 A    
C44   C46   1.390068 A    
O9    V2    1.741765 S    
N1    O25   1.299223 A    
O10   V1    1.745307 S    
C60   O32   1.397416 S    
O12   V3    2.009677 S    
C59   O29   1.223087 D    
N7    O42   1.299238 A    
C48   C58   1.488324 S    
