data_mof_unit_2645.cif
_audit_creation_date              2013-03-05T16:07:26-0500
_audit_creation_method            fapswitch 2.2
_symmetry_space_group_name_H-M    P1
_symmetry_Int_Tables_number       1
_space_group_crystal_system       triclinic
_cell_length_a                    19.387316
_cell_length_b                    7.093865
_cell_length_c                    17.586884
_cell_angle_alpha                 89.993601
_cell_angle_beta                  108.570425
_cell_angle_gamma                 90.002721
_cell_volume                      2292.80496027

loop_
_atom_site_label
_atom_site_type_symbol
_atom_site_description
_atom_site_fract_x
_atom_site_fract_y
_atom_site_fract_z
_atom_type_partial_charge
O1    O     O_R   0.413720 0.494330 0.415730 -0.590099
O2    O     O_R   0.586280 0.994330 0.584270 -0.590658
O3    O     O_R   0.560210 0.819300 0.430070 -0.600281
O4    O     O_R   0.439790 0.319300 0.569930 -0.603738
C1    C     C_R   0.581736 0.655405 0.414731 0.959678
C2    C     C_R   0.418592 0.155281 0.585670 0.960571
O5    O     O_R   0.412670 0.823730 0.406310 -0.597314
O6    O     O_R   0.587330 0.323730 0.593690 -0.597065
O7    O     O_R   0.437690 0.998790 0.560340 -0.595661
O8    O     O_R   0.562310 0.498790 0.439660 -0.597567
C3    C     C_R   0.385478 0.655226 0.383487 0.959431
C4    C     C_R   0.614524 0.155219 0.616505 0.960416
O9    O     O_3   0.508380 0.662350 0.550560 -0.283430
O10   O     O_3   0.491620 0.162350 0.449440 -0.283872
V1    V     V_3+5 0.498450 0.935370 0.490620 1.150471
V2    V     V_3+5 0.501550 0.435370 0.509380 1.149011
C5    C     C_R   0.740431 0.028048 0.683014 0.159774
C6    C     C_R   0.259619 0.527794 0.316946 0.160170
C7    C     C_R   0.683508 0.148109 0.683996 -0.244629
C8    C     C_R   0.316485 0.648123 0.316001 -0.244696
C9    C     C_R   0.696047 0.271101 0.749860 -0.269064
C10   C     C_R   0.303885 0.771293 0.250172 -0.270570
H1    H     H_    0.654009 0.369827 0.751879 0.167149
H2    H     H_    0.345883 0.870160 0.248160 0.167315
C11   C     C_R   0.760547 0.259686 0.816338 0.384083
C12   C     C_R   0.239383 0.759822 0.183703 0.380622
C13   C     C_R   0.815559 0.125906 0.816657 -0.362143
C14   C     C_R   0.184423 0.625879 0.183363 -0.362752
C15   C     C_R   0.804697 0.018402 0.746933 0.116032
C16   C     C_R   0.195334 0.518166 0.253046 0.116936
C17   C     C_3   0.812132 0.811749 0.735365 -0.422308
C18   C     C_3   0.188008 0.311419 0.264491 -0.423647
C19   C     C_3   0.741477 0.822585 0.665523 -0.462936
C20   C     C_3   0.258690 0.322206 0.334281 -0.462411
H3    H     H_    0.807240 0.726950 0.786346 0.247251
H4    H     H_    0.192896 0.226956 0.213441 0.247130
H5    H     H_    0.860224 0.778396 0.716360 0.173541
H6    H     H_    0.139964 0.277702 0.283525 0.174173
H7    H     H_    0.695871 0.744387 0.676613 0.214587
H8    H     H_    0.304309 0.244334 0.323076 0.214176
H9    H     H_    0.748954 0.795444 0.606387 0.176053
H10   H     H_    0.251272 0.294598 0.393410 0.176770
C21   C     C_R   0.325587 0.988139 0.632995 -0.251481
C22   C     C_R   0.677250 0.802226 0.365703 -0.255913
C23   C     C_R   0.369650 0.147307 0.635519 -0.147224
C24   C     C_R   0.631460 0.648157 0.365816 -0.143295
C25   C     C_R   0.365783 0.300754 0.684852 -0.241681
C26   C     C_R   0.633640 0.488311 0.319251 -0.241940
C27   C     C_R   0.318891 0.295896 0.731350 0.141514
C28   C     C_R   0.680045 0.482974 0.272048 0.144203
C29   C     C_R   0.274203 0.136887 0.727609 0.033867
C30   C     C_R   0.726234 0.637456 0.272906 0.035144
C31   C     C_R   0.277451 0.982722 0.678080 0.154816
C32   C     C_R   0.725113 0.797068 0.320335 0.155481
C33   C     C_R   0.315808 0.447444 0.781493 -0.196456
C34   C     C_R   0.680956 0.326181 0.223729 -0.206498
C35   C     C_R   0.268233 0.442680 0.826889 -0.187282
C36   C     C_R   0.727817 0.321226 0.177463 -0.168968
C37   C     C_R   0.222887 0.286267 0.822951 0.129936
C38   C     C_R   0.774753 0.472762 0.178818 0.118274
C39   C     C_R   0.226114 0.132150 0.773396 0.033639
C40   C     C_R   0.773657 0.632302 0.226292 0.028545
C41   C     C_R   0.181357 0.973256 0.769568 0.158010
C42   C     C_R   0.819903 0.786693 0.227234 0.163730
C43   C     C_R   0.184494 0.821623 0.719491 -0.217849
C44   C     C_R   0.818937 0.943581 0.275475 -0.222637
C45   C     C_R   0.232138 0.826269 0.674181 -0.221944
C46   C     C_R   0.772008 0.948659 0.321645 -0.220370
C47   C     C_R   0.174690 0.280930 0.867966 -0.199162
C48   C     C_R   0.822661 0.467580 0.133496 -0.165282
C49   C     C_R   0.130391 0.122066 0.865202 -0.140557
C50   C     C_R   0.868633 0.621430 0.133595 -0.156387
C51   C     C_R   0.134292 0.968630 0.815856 -0.244488
C52   C     C_R   0.866447 0.781196 0.180214 -0.262133
H11   H     H_    0.327760 0.869760 0.594815 0.136790
H12   H     H_    0.676403 0.925355 0.401927 0.134577
H13   H     H_    0.399713 0.423725 0.687572 0.145482
H14   H     H_    0.598369 0.369377 0.318739 0.143584
H15   H     H_    0.349959 0.570337 0.785302 0.151344
H16   H     H_    0.645656 0.206729 0.222015 0.150367
H17   H     H_    0.266658 0.561956 0.864812 0.162242
H18   H     H_    0.727666 0.198088 0.140957 0.158335
H19   H     H_    0.172614 0.399268 0.906205 0.148551
H20   H     H_    0.823428 0.344524 0.097207 0.160357
H21   H     H_    0.100234 0.845817 0.812902 0.134845
H22   H     H_    0.901812 0.900036 0.180921 0.137538
H23   H     H_    0.150314 0.698771 0.715649 0.137940
H24   H     H_    0.854253 0.063011 0.277206 0.137087
H25   H     H_    0.233738 0.706952 0.636293 0.138462
H26   H     H_    0.772118 0.071875 0.358092 0.140013
O11   O     O_R   0.937800 0.775460 0.060470 -0.594518
O12   O     O_R   0.062200 0.275460 0.939530 -0.603184
O13   O     O_R   0.087350 0.441340 0.093710 -0.581844
O14   O     O_R   0.912650 0.941340 0.906290 -0.581907
C53   C     C_R   0.115660 0.610485 0.115180 0.961708
C54   C     C_R   0.884329 0.110493 0.884833 0.961973
O15   O     O_R   0.939820 0.446010 0.069950 -0.601352
O16   O     O_R   0.060180 0.946010 0.930050 -0.591897
O17   O     O_R   0.913690 0.271230 0.915700 -0.561045
O18   O     O_R   0.086310 0.771230 0.084300 -0.560425
C55   C     C_R   0.918506 0.614275 0.084812 1.008684
C56   C     C_R   0.081203 0.114372 0.914822 1.007183
O19   O     O_3   0.991670 0.603050 0.949510 -0.279193
O20   O     O_3   0.008330 0.103050 0.050490 -0.279573
V3    V     V_3+5 0.001550 0.329940 0.009370 1.212750
V4    V     V_3+5 0.998450 0.829940 0.990630 1.218193
N1    N     N_R   0.765014 0.369201 0.886193 0.221913
O21   O     O_R   0.716564 0.345016 0.922210 -0.410549
O22   O     O_R   0.806563 0.517368 0.903256 -0.422453
N2    N     N_R   0.234884 0.869316 0.113829 0.224973
O23   O     O_R   0.282998 0.844213 0.077437 -0.402505
O24   O     O_R   0.193495 0.017785 0.096854 -0.420562

loop_
_geom_bond_atom_site_label_1
_geom_bond_atom_site_label_2
_geom_bond_distance
_ccdc_geom_bond_type
C44   C46   1.399644 A    
C41   C43   1.403824 A    
C2    C23   1.483880 S    
C13   C15   1.401875 A    
C5    C15   1.388749 A    
O1    C3    1.313864 A    
O2    C4    1.313854 A    
C2    O7    1.293497 A    
O20   V4    2.184147 S    
C25   C27   1.403538 A    
O5    C3    1.316494 A    
C19   H7    1.112339 S    
C14   C53   1.486221 S    
C20   H8    1.112341 S    
C18   H4    1.108315 S    
C7    C9    1.408176 A    
C26   C28   1.405603 A    
C36   H18   1.083593 S    
C44   H24   1.083594 S    
C35   C37   1.403553 A    
C32   C46   1.403606 A    
C50   C55   1.483891 S    
C36   C38   1.403666 A    
C54   O17   1.312294 A    
C45   H25   1.083832 S    
C38   C40   1.410643 A    
C26   H14   1.084216 S    
C47   C49   1.408307 A    
N2    O23   1.300688 A    
C40   C42   1.412126 A    
O13   V3    2.005048 S    
C21   C31   1.404428 A    
C22   C24   1.408414 A    
C27   C29   1.410999 A    
C20   H10   1.111589 S    
C46   H26   1.083577 S    
N1    O21   1.300733 A    
C17   C19   1.522939 S    
C6    C16   1.388819 A    
C18   H6    1.111502 S    
C48   H20   1.084315 S    
C12   N2    1.432675 S    
C6    C8    1.398547 A    
O12   C56   1.316249 A    
O15   V3    2.014393 S    
O5    V1    2.005239 S    
O6    V2    2.005172 S    
N1    O22   1.299887 A    
O11   V4    1.990064 S    
C13   C54   1.486252 S    
C5    C19   1.491142 S    
O11   C55   1.316229 A    
O20   V3    1.752155 S    
C30   C32   1.410684 A    
C43   H23   1.083791 S    
C23   C25   1.408876 A    
C21   H11   1.084433 S    
O17   V3    2.000380 S    
C24   C26   1.407299 A    
C3    C8    1.479588 S    
C37   C39   1.411981 A    
O4    C2    1.292926 A    
C49   C51   1.409114 A    
C53   O18   1.312293 A    
C41   C51   1.403394 A    
C43   C45   1.399310 A    
O16   C56   1.316699 A    
C28   C34   1.403335 A    
C17   H5    1.111549 S    
C29   C31   1.412049 A    
C42   C44   1.403258 A    
O4    V2    2.014315 S    
C47   H19   1.084425 S    
C33   H15   1.083783 S    
C28   C30   1.412216 A    
C38   C48   1.403893 A    
O6    C4    1.316491 A    
C27   C33   1.403847 A    
C39   C41   1.410920 A    
O19   V3    2.183954 S    
O1    V2    2.000170 S    
C52   H22   1.084194 S    
O14   C54   1.323536 A    
O2    V1    2.000213 S    
C6    C20   1.491182 S    
C51   H21   1.084343 S    
C37   C47   1.404441 A    
C50   C52   1.407423 A    
C49   C56   1.484587 S    
C8    C10   1.408219 A    
C9    H1    1.083717 S    
C17   H3    1.108509 S    
C25   H13   1.084383 S    
O3    V1    2.014458 S    
C11   N1    1.432747 S    
C9    C11   1.416319 A    
O14   V4    2.004982 S    
C12   C14   1.426199 A    
O3    C1    1.292484 A    
C34   H16   1.083582 S    
C48   C50   1.408705 A    
C11   C13   1.426344 A    
C1    C24   1.483329 S    
O18   V4    2.000337 S    
O16   V4    2.014249 S    
C19   H9    1.111653 S    
C33   C35   1.399386 A    
O7    V1    2.003408 S    
C1    O8    1.293610 A    
C15   C17   1.493327 S    
C30   C40   1.413797 A    
C16   C18   1.493264 S    
C29   C39   1.413135 A    
C4    C7    1.479511 S    
C14   C16   1.401842 A    
C5    C7    1.398509 A    
C34   C36   1.399828 A    
O19   V4    1.752291 S    
C10   H2    1.083705 S    
C31   C45   1.403488 A    
C35   H17   1.083874 S    
N2    O24   1.299882 A    
C22   C32   1.403770 A    
O12   V3    1.990138 S    
O13   C53   1.323481 A    
C10   C12   1.416286 A    
O9    V2    1.753234 S    
C42   C52   1.405296 A    
O10   V1    1.753097 S    
O8    V2    2.003321 S    
C22   H12   1.084374 S    
C21   C23   1.407982 A    
O15   C55   1.316346 A    
C18   C20   1.522783 S    
