data_mof_unit_2372.cif
_audit_creation_date              2013-03-05T15:55:43-0500
_audit_creation_method            fapswitch 2.2
_symmetry_space_group_name_H-M    P1
_symmetry_Int_Tables_number       1
_space_group_crystal_system       triclinic
_cell_length_a                    6.92514
_cell_length_b                    17.638272
_cell_length_c                    19.448585
_cell_angle_alpha                 108.594316
_cell_angle_beta                  89.77037
_cell_angle_gamma                 90.376937
_cell_volume                      2251.53679365

loop_
_atom_site_label
_atom_site_type_symbol
_atom_site_description
_atom_site_fract_x
_atom_site_fract_y
_atom_site_fract_z
_atom_type_partial_charge
O1    O     O_R   0.494330 0.415710 0.413720 -0.594727
O2    O     O_R   0.819360 0.430070 0.560210 -0.566664
O3    O     O_R   0.994320 0.584290 0.586280 -0.607418
C1    C     C_R   0.650362 0.412818 0.580076 1.007453
O4    O     O_R   0.823740 0.406290 0.412670 -0.579918
O5    O     O_R   0.998730 0.560340 0.437690 -0.600529
C2    C     C_R   0.654567 0.382644 0.385014 0.974926
O6    O     O_R   0.489920 0.439660 0.562310 -0.584102
O7    O     O_3   0.662330 0.550570 0.508380 -0.282702
V1    V     V_3+5 0.935370 0.490620 0.498440 1.235212
O8    O     O_R   0.328720 0.569930 0.439790 -0.573075
C3    C     C_R   0.160193 0.583002 0.416321 0.971768
O9    O     O_R   0.324340 0.593710 0.587330 -0.611636
C4    C     C_R   0.155212 0.616893 0.615328 0.901105
V2    V     V_3+5 0.435940 0.509380 0.501560 1.207470
O10   O     O_3   0.159110 0.449430 0.491620 -0.239328
C5    C     C_R   0.312415 0.723783 0.718650 -0.147526
H1    H     H_    0.453402 0.704656 0.695610 0.119360
C6    C     C_R   0.301151 0.787571 0.783606 -0.135622
H2    H     H_    0.434064 0.815733 0.808481 0.123684
C7    C     C_R   0.121207 0.814644 0.815858 -0.123505
C8    C     C_R   0.952855 0.776148 0.781271 -0.145331
H3    H     H_    0.811859 0.795268 0.804304 0.120692
C9    C     C_R   0.964118 0.712366 0.716320 -0.137787
H4    H     H_    0.831193 0.684210 0.691450 0.121104
C10   C     C_R   0.144054 0.685289 0.684066 -0.117160
C11   C     C_R   0.991860 0.620813 0.315513 -0.126896
C12   C     C_R   0.149538 0.629714 0.364362 -0.230870
C13   C     C_R   0.298016 0.684460 0.364145 -0.172231
C14   C     C_R   0.291890 0.730776 0.317452 0.133481
C15   C     C_R   0.132277 0.724258 0.270975 0.032602
C16   C     C_R   0.980664 0.669762 0.270132 0.051239
C17   C     C_R   0.443414 0.783829 0.316609 -0.190638
C18   C     C_R   0.438001 0.829800 0.269827 -0.208720
C19   C     C_R   0.280091 0.824164 0.223439 0.142708
C20   C     C_R   0.126007 0.771605 0.224279 0.042155
C21   C     C_R   0.966235 0.766026 0.178098 0.154945
C22   C     C_R   0.816172 0.712472 0.177761 -0.214112
C23   C     C_R   0.823765 0.664494 0.222500 -0.182197
C24   C     C_R   0.273575 0.870101 0.176210 -0.240268
C25   C     C_R   0.112955 0.865525 0.130768 -0.148142
C26   C     C_R   0.959481 0.813575 0.132481 -0.257210
H5    H     H_    0.419033 0.691434 0.400903 0.159784
H6    H     H_    0.567316 0.789309 0.351786 0.143599
H7    H     H_    0.557701 0.869731 0.269888 0.144658
H8    H     H_    0.392259 0.910329 0.175650 0.139384
H9    H     H_    0.835771 0.809096 0.097345 0.142232
H10   H     H_    0.692625 0.707260 0.142449 0.141086
H11   H     H_    0.704457 0.623684 0.219431 0.160079
C27   C     C_R   0.469551 0.186314 0.867549 -0.250519
C28   C     C_R   0.623216 0.135094 0.869564 -0.149140
C29   C     C_R   0.782028 0.129703 0.822967 -0.253314
C30   C     C_R   0.786285 0.173433 0.773923 0.156570
C31   C     C_R   0.632778 0.225217 0.772697 0.062941
C32   C     C_R   0.474263 0.231944 0.820084 0.144043
C33   C     C_R   0.940238 0.165280 0.725271 -0.235984
C34   C     C_R   0.942351 0.207647 0.675588 -0.124870
C35   C     C_R   0.792527 0.261053 0.674447 -0.029384
C36   C     C_R   0.636997 0.269850 0.723689 -0.008339
C37   C     C_R   0.484156 0.322349 0.723531 0.148191
C38   C     C_R   0.327990 0.328943 0.771321 -0.178307
C39   C     C_R   0.322561 0.283839 0.818849 -0.220908
C40   C     C_R   0.792718 0.304577 0.624489 0.295933
C41   C     C_R   0.643116 0.360143 0.626726 -0.305051
C42   C     C_R   0.489957 0.367811 0.676070 -0.196570
H12   H     H_    0.346567 0.191130 0.903340 0.144019
H13   H     H_    0.900117 0.089827 0.823499 0.139147
H14   H     H_    0.058864 0.125466 0.725168 0.142240
H15   H     H_    0.063119 0.198293 0.638467 0.183834
H16   H     H_    0.375637 0.410200 0.678171 0.163875
H17   H     H_    0.208962 0.368607 0.771556 0.137904
H18   H     H_    0.199414 0.289551 0.854669 0.143033
C43   C     C_R   0.811029 0.274157 0.283266 -0.090144
H19   H     H_    0.951526 0.292322 0.307343 0.136489
C44   C     C_R   0.800116 0.210653 0.218103 -0.131323
H20   H     H_    0.932681 0.181624 0.194166 0.124825
C45   C     C_R   0.620905 0.184953 0.184462 -0.132850
C46   C     C_R   0.452873 0.224455 0.217930 -0.134490
H21   H     H_    0.312394 0.206386 0.193800 0.123444
C47   C     C_R   0.463819 0.288055 0.283039 -0.103807
H22   H     H_    0.331316 0.317226 0.306894 0.135229
C48   C     C_R   0.643075 0.313856 0.316584 -0.159627
O11   O     O_R   0.774940 0.060470 0.937800 -0.595200
O12   O     O_R   0.440880 0.093730 0.087350 -0.600803
O13   O     O_R   0.266130 0.939630 0.062280 -0.596785
C49   C     C_R   0.609815 0.116864 0.115491 0.924102
O14   O     O_R   0.445480 0.069960 0.939820 -0.600197
O15   O     O_R   0.270770 0.915690 0.913690 -0.596300
C50   C     C_R   0.614508 0.085535 0.918569 0.956203
O16   O     O_R   0.770300 0.084410 0.086380 -0.596630
O17   O     O_3   0.602600 0.949510 0.991670 -0.275537
V3    V     V_3+5 0.329470 0.009370 0.001550 1.149836
O18   O     O_R   0.940760 0.906160 0.912560 -0.601974
C51   C     C_R   0.109951 0.883037 0.884597 0.915406
O19   O     O_R   0.936150 0.929930 0.060100 -0.599220
C52   C     C_R   0.104595 0.915065 0.081861 0.956715
V4    V     V_3+5 0.828930 0.990450 0.998310 1.148745
O20   O     O_3   0.105670 0.050490 0.008320 -0.273776
N1    N     N_R   0.938535 0.289391 0.569178 0.234663
O21   O     O_R   0.116790 0.310346 0.586303 -0.422413
O22   O     O_R   0.890351 0.260478 0.501150 -0.404576
C53   C     C_2   0.849357 0.555483 0.306760 1.007352
O23   O     O_2   0.682554 0.570904 0.326958 -0.658899
O24   O     O_R   0.907337 0.476293 0.274713 -0.807862
H23   H     H_    0.795721 0.437204 0.267668 0.307649

loop_
_geom_bond_atom_site_label_1
_geom_bond_atom_site_label_2
_geom_bond_distance
_ccdc_geom_bond_type
O18   C51   1.301786 A    
C43   H19   1.082790 S    
O19   C52   1.298978 A    
C1    O6    1.300903 A    
V4    O20   2.162644 S    
V3    O20   1.702250 S    
C45   C46   1.406617 A    
C24   H8    1.084567 S    
C13   C14   1.402768 A    
C3    C12   1.495930 S    
C5    C10   1.406207 A    
C7    C8    1.406186 A    
C20   C21   1.410939 A    
C6    C7    1.408856 A    
O12   C49   1.300435 A    
C15   C20   1.417236 A    
O5    C3    1.295805 A    
C14   C15   1.411421 A    
O13   C52   1.295984 A    
C46   C47   1.400506 A    
C25   C52   1.484181 S    
C7    C51   1.490128 S    
C42   H16   1.084191 S    
C32   C39   1.403193 A    
C33   C34   1.397318 A    
C5    H1    1.082720 S    
C18   C19   1.403191 A    
C25   C26   1.405950 A    
C16   C23   1.413938 A    
C21   C26   1.402861 A    
C40   N1    1.435175 S    
O8    V2    1.992729 S    
O15   V3    2.002867 S    
O1    V2    2.003733 S    
O7    V1    2.150299 S    
O16   V4    2.009541 S    
C22   H10   1.084225 S    
C38   H17   1.083707 S    
C36   C37   1.411563 A    
O14   V3    2.007013 S    
C13   H5    1.084383 S    
C43   C44   1.400295 A    
C38   C39   1.398946 A    
O24   H23   1.012517 S    
O13   V3    2.003959 S    
C27   C28   1.409155 A    
C31   C36   1.416707 A    
O11   C50   1.298052 A    
O15   C51   1.296517 A    
C28   C29   1.406524 A    
C9    H4    1.082737 S    
C47   C48   1.408347 A    
C49   O16   1.296163 A    
O17   V3    2.150187 S    
O4    C2    1.300515 A    
C46   H21   1.082777 S    
C35   C36   1.414390 A    
C33   H14   1.083844 S    
O17   V4    1.709391 S    
C37   C38   1.404149 A    
C19   C20   1.412368 A    
O2    C1    1.295462 A    
C44   H20   1.082790 S    
O5    V1    2.004010 S    
C21   C22   1.398372 A    
C27   H12   1.084248 S    
C15   C16   1.415410 A    
C17   C18   1.399243 A    
C39   H18   1.083685 S    
C18   H7    1.083972 S    
C4    C10   1.490108 S    
C53   O24   1.396731 S    
C44   C45   1.408461 A    
O3    C4    1.296427 A    
C24   C25   1.409266 A    
C23   H11   1.081439 S    
C45   C49   1.489904 S    
O6    V2    1.996026 S    
O14   C50   1.296440 A    
C8    C9    1.400529 A    
O2    V1    2.007104 S    
O18   V4    2.003741 S    
C43   C48   1.406530 A    
C29   C30   1.405091 A    
C30   C33   1.399938 A    
C35   C40   1.417404 A    
C31   C32   1.411502 A    
C12   C13   1.406836 A    
C14   C17   1.404893 A    
N1    O22   1.301111 A    
C11   C16   1.420498 A    
O1    C2    1.295800 A    
C17   H6    1.084005 S    
C9    C10   1.408834 A    
C47   H22   1.082838 S    
C37   C42   1.402845 A    
O8    C3    1.303264 A    
O19   V4    1.992644 S    
C30   C31   1.411312 A    
C1    C41   1.491820 S    
C11   C53   1.480521 S    
C27   C32   1.405081 A    
N1    O21   1.300064 A    
C41   C42   1.405401 A    
C6    H2    1.082735 S    
O9    V2    2.003692 S    
C19   C24   1.406303 A    
O7    V2    1.711312 S    
O4    V1    2.001380 S    
O3    V1    2.002889 S    
V1    O10   1.702313 S    
C28   C50   1.485340 S    
C34   C35   1.410935 A    
C22   C23   1.395184 A    
C29   H13   1.084373 S    
C5    C6    1.400646 A    
C26   H9    1.084684 S    
C53   O23   1.222697 D    
C40   C41   1.421825 A    
C2    C48   1.489776 S    
O11   V4    1.996631 S    
C11   C12   1.424960 A    
C8    H3    1.082720 S    
O12   V3    2.001393 S    
C34   H15   1.081156 S    
O9    C4    1.301799 A    
V2    O10   2.162558 S    
