data_mof_unit_3064.cif
_audit_creation_date              2012-10-26T20:43:35-0400
_audit_creation_method            fapswitch 2.2
_symmetry_space_group_name_H-M    P1
_symmetry_Int_Tables_number       1
_space_group_crystal_system       triclinic
_cell_length_a                    10.80744
_cell_length_b                    9.517076
_cell_length_c                    23.506817
_cell_angle_alpha                 89.929689
_cell_angle_beta                  89.20981
_cell_angle_gamma                 90.002833
_cell_volume                      2417.5672599

loop_
_atom_site_label
_atom_site_type_symbol
_atom_type_description
_atom_site_fract_x
_atom_site_fract_y
_atom_site_fract_z
_atom_type_partial_charge
C1    C     C_R   0.262576 0.500004 0.499975 0.557020
C2    C     C_R   0.487526 0.627011 0.702005 -0.112463
C3    C     C_R   0.512553 0.371826 0.238949 -0.055335
C4    C     C_R   0.482665 0.626450 0.761325 -0.047084
C5    C     C_R   0.517025 0.498867 0.209018 0.251534
C6    C     C_R   0.483022 0.498940 0.790989 0.251472
C7    C     C_R   0.065966 0.431294 0.455817 -0.049207
C8    C     C_R   0.934033 0.568700 0.544168 -0.049697
C9    C     C_R   0.936627 0.431184 0.455866 -0.049851
C10   C     C_R   0.063370 0.568823 0.544116 -0.050092
C11   C     C_R   0.871404 0.499957 0.500021 -0.026854
C12   C     C_R   0.737423 0.499995 0.500015 0.556948
C13   C     C_R   0.128595 0.500041 0.499964 -0.026805
C14   C     C_R   0.425114 0.074516 0.464272 0.021087
C15   C     C_R   0.574888 0.925485 0.535727 0.021125
C16   C     C_R   0.574900 0.074316 0.535724 0.021106
C17   C     C_R   0.425099 0.925684 0.464277 0.021091
C18   C     C_R   0.501634 0.500031 0.390867 0.563358
C19   C     C_R   0.498370 0.499932 0.609134 0.563173
C20   C     C_R   0.601158 0.497612 0.877017 0.386914
C21   C     C_R   0.398887 0.497441 0.122993 0.386800
C22   C     C_R   0.380653 0.497341 0.882823 0.396176
C23   C     C_R   0.517547 0.626419 0.238526 -0.053084
C24   C     C_R   0.619391 0.497244 0.117186 0.396104
C25   C     C_R   0.383838 0.495731 0.942373 0.013525
C26   C     C_R   0.616204 0.495689 0.057638 0.013517
C27   C     C_R   0.498772 0.494436 0.969879 -0.044101
C28   C     C_R   0.501270 0.494398 0.030133 -0.044095
C29   C     C_R   0.610676 0.492601 0.937165 0.031452
C30   C     C_R   0.389367 0.492492 0.062849 0.031391
C31   C     C_R   0.273908 0.492332 0.974418 -0.121782
C32   C     C_R   0.726132 0.492349 0.025597 -0.121847
C33   C     C_R   0.274047 0.486138 0.033949 -0.010825
C34   C     C_R   0.487318 0.371847 0.761211 -0.061319
C35   C     C_R   0.725996 0.486232 0.966071 -0.010821
C36   C     C_3   0.149172 0.464331 0.063258 -0.215004
C37   C     C_3   0.134993 0.311991 0.084117 -0.283429
C38   C     C_3   0.011186 0.289256 0.114693 -0.408411
C39   C     C_3   0.850872 0.464415 0.936790 -0.214614
C40   C     C_3   0.865021 0.312063 0.916096 -0.283400
C41   C     C_3   0.989027 0.289159 0.885743 -0.411174
C42   C     C_1   0.134468 0.365174 0.409445 0.220360
C43   C     C_1   0.865527 0.634809 0.590540 0.220105
C44   C     C_1   0.870780 0.364477 0.409664 0.231011
C45   C     C_R   0.512675 0.627078 0.297848 -0.139797
C46   C     C_1   0.129213 0.635568 0.590309 0.231149
C47   C     C_R   0.492069 0.372019 0.701922 -0.139545
C48   C     C_R   0.507012 0.499826 0.328244 0.018327
C49   C     C_R   0.493005 0.499698 0.671758 0.018184
C50   C     C_R   0.507787 0.372096 0.298231 -0.111867
Cu1   Cu    Cu3+1 0.500000 0.640660 0.500000 0.978244
Cu2   Cu    Cu3+1 0.500000 0.359340 0.500000 0.978046
H1    H     H_    0.186236 0.491190 0.952700 0.147387
H2    H     H_    0.480557 0.724961 0.784315 0.123016
H3    H     H_    0.365143 0.130666 0.435651 0.134159
H4    H     H_    0.634861 0.869336 0.564347 0.134452
H5    H     H_    0.634911 0.130324 0.564340 0.117893
H6    H     H_    0.365085 0.869677 0.435661 0.118503
H7    H     H_    0.000822 0.363404 0.150905 0.209473
H8    H     H_    0.933913 0.304548 0.084730 0.156174
H9    H     H_    0.006451 0.180173 0.131387 0.153392
H10   H     H_    0.140743 0.239715 0.047032 0.151054
H11   H     H_    0.210573 0.283587 0.113471 0.206331
H12   H     H_    0.813803 0.491178 0.047317 0.147163
H13   H     H_    0.132842 0.542323 0.097477 0.209261
H14   H     H_    0.073205 0.485002 0.033250 0.103903
H15   H     H_    0.999813 0.363392 0.849508 0.207709
H16   H     H_    0.066076 0.304199 0.915833 0.156632
H17   H     H_    0.993711 0.180113 0.869116 0.152341
H18   H     H_    0.858907 0.239775 0.953241 0.151553
H19   H     H_    0.789630 0.283793 0.886647 0.205326
H20   H     H_    0.867238 0.542381 0.902487 0.210213
H21   H     H_    0.926829 0.485099 0.966783 0.104001
H22   H     H_    0.519787 0.724890 0.215412 0.123348
H23   H     H_    0.488832 0.273095 0.784121 0.118127
H24   H     H_    0.512533 0.727032 0.319816 0.130893
H25   H     H_    0.495987 0.272334 0.679801 0.130792
H26   H     H_    0.503725 0.272440 0.320469 0.141324
H27   H     H_    0.487793 0.726946 0.679920 0.141387
H28   H     H_    0.510912 0.273044 0.216162 0.117559
N1    N     N_R   0.488033 0.498440 0.851837 -0.395170
N2    N     N_R   0.512013 0.498301 0.148171 -0.395111
N3    N     N_R   0.500000 0.852070 0.500000 -0.229105
N4    N     N_R   0.500000 0.147930 0.500000 -0.228944
N5    N     N_1   0.189070 0.312703 0.372479 -0.297144
N6    N     N_1   0.810915 0.687269 0.627506 -0.293826
N7    N     N_1   0.818208 0.311466 0.372878 -0.275324
N8    N     N_1   0.181783 0.688615 0.627087 -0.274537
O1    O     O_R   0.319640 0.618740 0.500000 -0.496772
O2    O     O_2   0.297318 0.503360 0.156717 -0.516087
O3    O     O_2   0.271121 0.497673 0.855895 -0.510048
O4    O     O_2   0.728923 0.497570 0.144114 -0.510501
O5    O     O_R   0.680360 0.381260 0.500000 -0.496802
O6    O     O_R   0.680360 0.618740 0.500000 -0.496474
O7    O     O_R   0.319640 0.381260 0.500000 -0.496454
O8    O     O_R   0.499960 0.618810 0.417880 -0.511444
O9    O     O_R   0.500040 0.381190 0.582120 -0.511703
O10   O     O_R   0.500040 0.618810 0.582120 -0.494526
O11   O     O_R   0.499960 0.381190 0.417880 -0.494659
O12   O     O_2   0.702728 0.503616 0.843291 -0.515449

loop_
_geom_bond_atom_site_label_1
_geom_bond_atom_site_label_2
_ccdc_geom_bond_type
C25   C31   A    
C26   C32   A    
C23   C45   A    
C40   H19   S    
C27   C29   A    
C18   O8    A    
C2    C4    A    
C8    C43   S    
C14   N4    A    
C37   H10   S    
C19   O9    A    
C41   H15   S    
C40   H18   S    
C45   H24   S    
C36   C37   S    
C24   C26   A    
C36   H14   S    
C15   C16   A    
C24   O4    S    
Cu2   O9    S    
C16   N4    A    
C33   C36   S    
Cu2   O7    S    
C7    C42   S    
Cu2   N4    S    
C24   N2    A    
C2    H27   S    
C3    C50   A    
C22   C25   A    
C5    C23   A    
C10   C46   S    
C22   O3    S    
C31   C33   A    
C44   N7    T    
C17   H6    S    
C21   O2    S    
C38   H9    S    
Cu1   O10   S    
C48   C50   A    
C14   H3    S    
C6    N1    S    
C20   N1    A    
C14   C17   A    
C12   O6    A    
C3    H28   S    
C50   H26   S    
C37   H11   S    
C19   O10   A    
C41   H16   S    
C46   N8    T    
C20   C29   A    
Cu1   Cu2   S    
C22   N1    A    
C32   H12   S    
C4    C6    A    
C39   C40   S    
C36   H13   S    
C15   N3    A    
C6    C34   A    
C17   N3    A    
C35   C39   S    
C32   C35   A    
C37   C38   S    
C2    C49   A    
C19   C49   S    
C20   O12   S    
C1    O7    A    
Cu2   O5    S    
C42   N5    T    
C31   H1    S    
C9    C11   A    
C39   H20   S    
C38   H8    S    
C40   C41   S    
C25   C27   A    
C12   O5    A    
C1    C13   S    
C18   O11   A    
C47   H25   S    
C23   H22   S    
Cu1   N3    S    
Cu1   O8    S    
C41   H17   S    
C45   C48   A    
C7    C9    A    
C9    C44   S    
C1    O1    A    
C30   C33   A    
C4    H2    S    
C43   N6    T    
C3    C5    A    
C10   C13   A    
C18   C48   S    
C11   C12   S    
C47   C49   A    
C21   C30   A    
C29   C35   A    
Cu2   O11   S    
C26   C28   A    
C15   H4    S    
C28   C30   A    
Cu1   O1    S    
C5    N2    S    
C8    C11   A    
C16   H5    S    
C39   H21   S    
Cu1   O6    S    
C38   H7    S    
C7    C13   A    
C34   H23   S    
C21   N2    A    
C8    C10   A    
C27   C28   A    
C34   C47   A    
