data_mof_unit_4219.cif
_audit_creation_date              2012-12-10T18:36:26-0500
_audit_creation_method            fapswitch 2.2
_symmetry_space_group_name_H-M    P1
_symmetry_Int_Tables_number       1
_space_group_crystal_system       triclinic
_cell_length_a                    13.837875
_cell_length_b                    15.130337
_cell_length_c                    15.818224
_cell_angle_alpha                 90.450929
_cell_angle_beta                  70.226306
_cell_angle_gamma                 90.933569
_cell_volume                      3116.18358945

loop_
_atom_site_label
_atom_site_type_symbol
_atom_type_description
_atom_site_fract_x
_atom_site_fract_y
_atom_site_fract_z
_atom_type_partial_charge
C1    C     C_R   0.500792 0.670329 0.500460 0.860914
C2    C     C_R   0.498909 0.329759 0.500643 0.858550
C3    C     C_R   0.374704 0.456869 0.094909 -0.212325
C4    C     C_R   0.623183 0.454706 0.905109 -0.217670
C5    C     C_R   0.304163 0.456779 0.050008 -0.227892
C6    C     C_R   0.693729 0.454445 0.949998 -0.221792
C7    C     C_R   0.404686 0.902416 0.548964 0.467072
C8    C     C_R   0.557804 0.099139 0.552426 0.454141
C9    C     C_R   0.407405 0.810760 0.540239 -0.333498
C10   C     C_R   0.560290 0.191091 0.543864 -0.352607
C11   C     C_R   0.501349 0.767071 0.505482 -0.197617
C12   C     C_R   0.495633 0.233194 0.505560 -0.198834
C13   C     C_R   0.594255 0.816406 0.478890 0.412473
C14   C     C_R   0.427988 0.182389 0.474545 0.432360
C15   C     C_R   0.590779 0.908525 0.481535 -0.246613
C16   C     C_R   0.433339 0.090534 0.474875 -0.256209
C17   C     C_R   0.497097 0.951839 0.516491 -0.018828
C18   C     C_R   0.496522 0.048672 0.514593 -0.027681
C19   C     C_R   0.921165 0.533863 0.427160 -0.298558
C20   C     C_R   0.080347 0.536526 0.571611 -0.283494
C21   C     C_R   0.819075 0.533018 0.428358 0.035280
C22   C     C_R   0.182426 0.535612 0.570574 0.024410
C23   C     C_R   0.437922 0.498360 0.672387 0.784221
C24   C     C_R   0.562026 0.498413 0.327591 0.816972
C25   C     C_R   0.762561 0.466430 0.571581 -0.049108
C26   C     C_R   0.236161 0.465451 0.428712 -0.034685
C27   C     C_R   0.864235 0.465376 0.573400 0.332042
C28   C     C_R   0.134954 0.465101 0.426575 0.326091
C29   C     C_R   0.945292 0.500861 0.500372 0.060180
C30   C     C_R   0.054824 0.501261 0.499172 0.064228
C31   C     C_R   0.401369 0.489524 0.770598 -0.050117
C32   C     C_R   0.598233 0.489563 0.229314 -0.051974
C33   C     C_R   0.264644 0.470860 0.913191 -0.198397
C34   C     C_R   0.733996 0.469132 0.086726 -0.195563
C35   C     C_R   0.296530 0.482150 0.820409 -0.200121
C36   C     C_R   0.702687 0.481023 0.179496 -0.187299
C37   C     C_R   0.473715 0.484489 0.814292 -0.259506
C38   C     C_R   0.525686 0.485416 0.185586 -0.241915
C39   C     C_R   0.443769 0.470024 0.907225 0.088887
C40   C     C_R   0.554873 0.470223 0.092699 0.090270
C41   C     C_R   0.337230 0.465663 0.957009 0.161357
C42   C     C_R   0.661153 0.464422 0.042934 0.160845
C43   C     C_R   0.516677 0.463183 0.952245 0.061071
C44   C     C_R   0.481620 0.463808 0.047723 0.061984
Cu1   Cu    Cu3+1 0.403570 0.500010 0.500000 0.943497
Cu2   Cu    Cu3+1 0.596430 0.499990 0.500000 0.944204
H1    H     H_    0.222957 0.451577 0.088655 0.153743
H2    H     H_    0.774637 0.448191 0.911403 0.148906
H3    H     H_    0.980839 0.561799 0.369773 0.185890
H4    H     H_    0.021786 0.565823 0.628369 0.180625
H5    H     H_    0.802218 0.559882 0.371852 0.142769
H6    H     H_    0.200458 0.563998 0.626491 0.132801
H7    H     H_    0.700592 0.440449 0.628079 0.125451
H8    H     H_    0.296500 0.437208 0.372819 0.149100
H9    H     H_    0.446629 0.496463 0.225249 0.150201
H10   H     H_    0.553310 0.494471 0.774626 0.148427
H11   H     H_    0.760050 0.483569 0.212093 0.150156
H12   H     H_    0.239302 0.485317 0.787817 0.149691
H13   H     H_    0.183130 0.466520 0.950819 0.131951
H14   H     H_    0.815266 0.463748 0.049111 0.131081
H15   H     H_    0.342923 0.448799 0.166754 0.159726
H16   H     H_    0.654465 0.445593 0.833345 0.149845
H17   H     H_    0.335600 0.773674 0.562614 0.185386
H18   H     H_    0.610982 0.229723 0.569415 0.175158
H19   H     H_    0.661751 0.946305 0.454691 0.187970
H20   H     H_    0.387970 0.051511 0.444046 0.184149
N1    N     N_R   0.741310 0.499980 0.500000 -0.184059
N2    N     N_R   0.258690 0.500020 0.500000 -0.191486
O1    O     O_R   0.418570 0.628550 0.499990 -0.582860
O2    O     O_R   0.581430 0.371450 0.500010 -0.586260
O3    O     O_R   0.581440 0.628540 0.499990 -0.550413
O4    O     O_R   0.418560 0.371460 0.500010 -0.558483
O5    O     O_R   0.372890 0.500010 0.629830 -0.598258
O6    O     O_R   0.627110 0.499990 0.370170 -0.588618
O7    O     O_R   0.535760 0.500000 0.629840 -0.600214
O8    O     O_R   0.464240 0.500000 0.370160 -0.589248
O9    O     O_3   0.884591 0.434294 0.647738 -0.593443
C45   C     C_3   0.857038 0.343883 0.661328 0.050315
H21   H     H_    0.882055 0.305837 0.597014 0.131445
H22   H     H_    0.772601 0.336033 0.694380 0.140471
C46   C     C_3   0.909010 0.304796 0.722895 -0.794756
H23   H     H_    0.880047 0.336783 0.790028 0.241922
H24   H     H_    0.892454 0.232697 0.730621 0.205014
H25   H     H_    0.993434 0.315484 0.693922 0.250469
O10   O     O_3   0.116044 0.433250 0.351502 -0.595339
C47   C     C_3   0.104013 0.340602 0.358629 0.053483
H26   H     H_    0.039141 0.321811 0.420297 0.144237
H27   H     H_    0.175946 0.309297 0.359474 0.149694
C48   C     C_3   0.079919 0.305158 0.277688 -0.774618
H28   H     H_    0.143816 0.321883 0.214929 0.243487
H29   H     H_    0.070052 0.232172 0.282633 0.201893
H30   H     H_    0.007892 0.334626 0.275263 0.248284
O11   O     O_3   0.310342 0.942960 0.583315 -0.624582
C49   C     C_3   0.294168 0.972273 0.672214 0.051923
H31   H     H_    0.243695 0.030779 0.684473 0.163595
H32   H     H_    0.365943 0.994731 0.683763 0.121407
C50   C     C_3   0.239986 0.900037 0.739705 -0.353797
H33   H     H_    0.167807 0.879279 0.728550 0.229247
H34   H     H_    0.290358 0.841647 0.729636 0.209870
C51   C     C_3   0.214551 0.932737 0.836175 -0.916766
H35   H     H_    0.285959 0.952567 0.849103 0.252720
H36   H     H_    0.175696 0.878958 0.883412 0.259822
H37   H     H_    0.162421 0.990104 0.848687 0.254873
O12   O     O_3   0.618481 0.057793 0.593879 -0.622315
C52   C     C_3   0.587253 0.080591 0.686278 0.043846
H38   H     H_    0.566330 0.018478 0.725746 0.154551
H39   H     H_    0.518078 0.123439 0.710057 0.122813
C53   C     C_3   0.676718 0.125535 0.706866 -0.335645
H40   H     H_    0.741332 0.078670 0.692840 0.223840
H41   H     H_    0.704167 0.184052 0.662882 0.203158
C54   C     C_3   0.644764 0.155324 0.804793 -0.926894
H42   H     H_    0.582864 0.204903 0.819180 0.258101
H43   H     H_    0.711503 0.186135 0.818149 0.258503
H44   H     H_    0.617127 0.097857 0.850329 0.259633
O13   O     O_3   0.687992 0.775835 0.440611 -0.598314
C55   C     C_3   0.742913 0.778601 0.501623 0.067447
H45   H     H_    0.717648 0.721943 0.548748 0.171435
H46   H     H_    0.731495 0.840857 0.541924 0.133663
C56   C     C_3   0.857626 0.771245 0.449071 -0.323811
H47   H     H_    0.871006 0.714549 0.401816 0.225164
H48   H     H_    0.884904 0.832288 0.408853 0.216488
C57   C     C_3   0.919472 0.758761 0.511675 -0.916947
H49   H     H_    0.909439 0.816172 0.557886 0.256624
H50   H     H_    0.002182 0.753194 0.471364 0.262245
H51   H     H_    0.894290 0.697417 0.551764 0.259257
O14   O     O_3   0.360939 0.221832 0.438820 -0.604930
C58   C     C_3   0.261719 0.225500 0.505061 0.085276
H52   H     H_    0.229465 0.291031 0.499582 0.163690
H53   H     H_    0.261570 0.221038 0.575659 0.118469
C59   C     C_3   0.190952 0.153738 0.488101 -0.373508
H54   H     H_    0.192608 0.157697 0.417505 0.223666
H55   H     H_    0.217581 0.087436 0.498989 0.239825
C60   C     C_3   0.080695 0.164052 0.551360 -0.940445
H56   H     H_    0.076954 0.157362 0.622287 0.260097
H57   H     H_    0.031015 0.112004 0.536781 0.265359
H58   H     H_    0.051212 0.229639 0.541967 0.246915

loop_
_geom_bond_atom_site_label_1
_geom_bond_atom_site_label_2
_ccdc_geom_bond_type
O14   C58   S    
C27   C29   A    
C54   H42   S    
C34   C42   A    
C21   H5    S    
C2    C12   S    
C50   C51   S    
C58   H53   S    
C46   H23   S    
C39   C41   A    
C20   C30   A    
O9    C45   S    
C55   H45   S    
C52   H39   S    
O11   C49   S    
C6    H2    S    
C35   H12   S    
C32   C36   A    
C19   C21   A    
C25   H7    S    
C45   H22   S    
C8    O12   S    
C3    H15   S    
O13   C55   S    
C15   H19   S    
C4    H16   S    
C53   H40   S    
Cu1   O5    S    
Cu2   O7    S    
C20   H4    S    
C50   H34   S    
C37   H10   S    
C38   H9    S    
C55   H46   S    
C7    C17   A    
C25   N1    A    
C60   H58   S    
C14   C16   A    
C32   C38   A    
C48   H29   S    
C40   C42   A    
C33   H13   S    
C21   N1    A    
Cu1   O4    S    
C34   H14   S    
C23   O5    A    
C2    O4    A    
C26   H8    S    
O12   C52   S    
C46   H24   S    
C50   H33   S    
C7    C9    A    
C56   H48   S    
C7    O11   S    
C52   C53   S    
C3    C44   A    
C47   H27   S    
Cu1   O1    S    
C4    C6    A    
C36   H11   S    
C23   O7    A    
C45   H21   S    
C24   O8    A    
C39   C43   A    
C49   C50   S    
C3    C5    A    
O10   C47   S    
C51   H37   S    
C1    O1    A    
C31   C37   A    
C23   C31   S    
C59   H55   S    
C43   C44   A    
C24   C32   S    
C29   C30   S    
C5    H1    S    
C19   H3    S    
Cu1   N2    S    
C51   H36   S    
C17   C18   S    
C54   H43   S    
C1    O3    A    
C48   H30   S    
C49   H32   S    
C9    C11   A    
C22   N2    A    
Cu2   O3    S    
C13   O13   S    
C10   C12   A    
C16   C18   A    
C12   C14   A    
C13   C15   A    
C60   H56   S    
C31   C35   A    
C59   C60   S    
C16   H20   S    
C57   H50   S    
C58   H52   S    
C19   C29   A    
Cu2   O6    S    
C46   H25   S    
C47   H26   S    
C22   H6    S    
C56   C57   S    
C15   C17   A    
C5    C41   A    
C9    H17   S    
C10   H18   S    
C20   C22   A    
C27   O9    S    
C47   C48   S    
C56   H47   S    
C55   C56   S    
C4    C43   A    
C25   C27   A    
C52   H38   S    
C26   C28   A    
C14   O14   S    
C53   C54   S    
C26   N2    A    
C57   H51   S    
C28   C30   A    
C59   H54   S    
C48   H28   S    
C58   C59   S    
C33   C41   A    
Cu2   N1    S    
C37   C39   A    
C38   C40   A    
C11   C13   A    
C45   C46   S    
C24   O6    A    
Cu1   O8    S    
C51   H35   S    
C33   C35   A    
C53   H41   S    
C54   H44   S    
C34   C36   A    
C49   H31   S    
C8    C18   A    
Cu2   O2    S    
Cu1   Cu2   S    
C40   C44   A    
C8    C10   A    
C6    C42   A    
C28   O10   S    
C60   H57   S    
C1    C11   S    
C57   H49   S    
C2    O2    A    
