data_mof_unit_131.cif
_audit_creation_date              2012-12-11T18:07:17-0500
_audit_creation_method            fapswitch 2.2
_symmetry_space_group_name_H-M    P1
_symmetry_Int_Tables_number       1
_space_group_crystal_system       triclinic
_cell_length_a                    8.224341
_cell_length_b                    12.717464
_cell_length_c                    26.890028
_cell_angle_alpha                 96.392448
_cell_angle_beta                  93.139909
_cell_angle_gamma                 81.223249
_cell_volume                      2760.24217773

loop_
_atom_site_label
_atom_site_type_symbol
_atom_type_description
_atom_site_fract_x
_atom_site_fract_y
_atom_site_fract_z
_atom_type_partial_charge
Ba1   Ba    Ba6+2 0.859560 0.448380 0.523550 1.675687
Ba2   Ba    Ba6+2 0.330270 0.551530 0.476440 1.671210
C1    C     C_3   0.641571 0.080135 0.663634 0.228928
C2    C     C_R   0.946246 0.617024 0.182637 0.588051
C3    C     C_2   0.767428 0.583945 0.272996 -0.089781
C4    C     C_3   0.177687 0.220618 0.659853 0.268742
C5    C     C_3   0.740263 0.612297 0.328437 -0.084068
C6    C     C_1   0.986801 0.481527 0.342748 -0.030267
C7    C     C_2   0.025433 0.472027 0.294856 -0.111166
C8    C     C_2   0.910355 0.525632 0.256893 0.235864
C9    C     C_R   0.038006 0.518034 0.103521 -0.080408
C10   C     C_R   0.055404 0.422750 0.126804 -0.030780
C11   C     C_R   0.114757 0.326049 0.098901 -0.061960
C12   C     C_3   0.672495 0.180696 0.641499 0.387822
C13   C     C_R   0.981955 0.615622 0.131691 -0.029679
C14   C     C_2   0.857392 0.545400 0.361162 -0.208616
C15   C     C_2   0.352654 0.476272 0.641483 -0.276837
C16   C     C_3   0.157557 0.197453 0.713175 -0.323680
C17   C     C_R   0.191422 0.417225 0.974472 0.019550
C18   C     C_R   0.078959 0.608557 0.976277 0.019588
C19   C     C_R   0.154230 0.511915 0.949903 0.051123
C20   C     C_R   0.276874 0.325160 0.947593 -0.098828
C21   C     C_R   0.319531 0.325328 0.898107 -0.054547
C22   C     C_R   0.277143 0.416746 0.872743 -0.032988
C23   C     C_3   0.482028 0.720378 0.628599 0.291169
C24   C     C_R   0.193045 0.510052 0.898463 -0.077725
C25   C     C_R   0.148555 0.601694 0.872851 -0.035445
C26   C     C_R   0.185750 0.598269 0.821808 0.593207
C27   C     C_R   0.317940 0.416785 0.822238 0.581930
C28   C     C_3   0.241572 0.225513 0.341038 0.487148
C29   C     C_2   0.465002 0.484617 0.729577 -0.061884
C30   C     C_3   0.502954 0.488477 0.675085 -0.057991
C31   C     C_1   0.208886 0.523692 0.657323 0.038643
C32   C     C_2   0.171930 0.526501 0.705067 -0.110688
C33   C     C_2   0.306935 0.504438 0.744311 0.202805
C34   C     C_3   0.443976 0.764768 0.682301 -0.353021
C35   C     C_R   0.143688 0.417878 0.024931 0.020316
C36   C     C_R   0.077284 0.515900 0.052101 0.050027
C37   C     C_R   0.049909 0.611936 0.028407 0.020245
C38   C     C_R   0.158804 0.323561 0.049335 -0.099934
C39   C     C_R   0.963950 0.710366 0.108532 -0.064196
C40   C     C_3   0.118326 0.180400 0.302999 -0.424396
C41   C     C_R   0.033955 0.698615 0.949235 -0.101129
C42   C     C_R   0.067360 0.694944 0.898753 -0.058360
C43   C     C_R   0.995928 0.708675 0.058091 -0.102101
C44   C     C_R   0.758931 0.821022 0.480049 -0.278870
C45   C     C_3   0.911799 0.838908 0.343514 0.306480
C46   C     C_R   0.426603 0.188242 0.516924 -0.247541
C47   C     C_R   0.408160 0.009784 0.535475 -0.110709
C48   C     C_R   0.342795 0.117277 0.537274 0.000807
C49   C     C_R   0.573640 0.152264 0.492792 0.067493
C50   C     C_R   0.638900 0.041445 0.488272 -0.063781
C51   C     C_R   0.554548 0.969807 0.510459 -0.058393
C52   C     C_3   0.984892 0.777420 0.580601 0.282350
C53   C     C_R   0.617414 0.859662 0.506252 0.057684
C54   C     C_R   0.847456 0.890328 0.460578 -0.016068
C55   C     C_R   0.785528 0.999530 0.462904 -0.097606
C56   C     C_3   0.831484 0.941843 0.322773 -0.392879
C57   C     C_3   0.996462 0.895748 0.590728 -0.337368
C58   C     C_3   0.731193 0.297868 0.375289 0.304115
C59   C     C_3   0.703258 0.280440 0.318728 -0.367689
C60   C     C_3   0.338560 0.063374 0.384285 -0.137438
C61   C     C_3   0.416585 0.791409 0.315862 0.331252
C62   C     C_3   0.316789 0.851179 0.275687 -0.322859
C63   C     C_R   0.011188 0.425917 0.177302 0.589831
H1    H     H_    0.794138 0.164752 0.623860 0.045905
H2    H     H_    0.864357 0.283102 0.384103 0.030340
H3    H     H_    0.680370 0.381404 0.388892 0.054787
H4    H     H_    0.658872 0.009986 0.634816 -0.011958
H5    H     H_    0.756509 0.197845 0.304425 0.106143
H6    H     H_    0.760629 0.338634 0.300343 0.074591
H7    H     H_    0.569904 0.291386 0.308682 0.143428
H8    H     H_    0.573595 0.198797 0.612591 -0.140637
H9    H     H_    0.512276 0.090257 0.675097 0.088851
H10   H     H_    0.368199 0.695231 0.610113 0.029374
H11   H     H_    0.581005 0.650509 0.628669 0.031746
H12   H     H_    0.033108 0.246820 0.288326 0.113878
H13   H     H_    0.351079 0.838060 0.682523 0.141657
H14   H     H_    0.393474 0.705236 0.701755 0.077857
H15   H     H_    0.557859 0.784938 0.702854 0.138509
H16   H     H_    0.184558 0.266466 0.739514 0.131050
H17   H     H_    0.943730 0.777296 0.311597 0.103233
H18   H     H_    0.819660 0.809249 0.365084 -0.079409
H19   H     H_    0.916496 0.968770 0.297854 0.120810
H20   H     H_    0.717100 0.928154 0.300777 0.089674
H21   H     H_    0.799826 0.005611 0.353810 0.115285
H22   H     H_    0.548300 0.789497 0.308036 -0.062733
H23   H     H_    0.183278 0.132931 0.270841 0.108938
H24   H     H_    0.391247 0.835150 0.353327 0.049048
H25   H     H_    0.346357 0.809222 0.238080 0.119430
H26   H     H_    0.347271 0.933626 0.277559 0.052603
H27   H     H_    0.097509 0.296774 0.654141 0.100572
H28   H     H_    0.183308 0.855393 0.280934 0.149337
H29   H     H_    0.146282 0.432823 0.283583 0.094492
H30   H     H_    0.128133 0.251149 0.115435 0.118131
H31   H     H_    0.565832 0.472388 0.757111 0.102985
H32   H     H_    0.385638 0.252553 0.879567 0.129074
H33   H     H_    0.316721 0.251842 0.964224 0.070823
H34   H     H_    0.046175 0.128789 0.320715 0.113802
H35   H     H_    0.200580 0.245473 0.030652 0.069266
H36   H     H_    0.680047 0.622779 0.246588 0.094729
H37   H     H_    0.923346 0.786980 0.129362 0.119126
H38   H     H_    0.968416 0.773036 0.965748 0.070867
H39   H     H_    0.307544 0.230452 0.655039 -0.023292
H40   H     H_    0.029505 0.766378 0.880028 0.127570
H41   H     H_    0.044977 0.545599 0.716012 0.123082
H42   H     H_    0.981171 0.785488 0.043745 0.069085
H43   H     H_    0.845277 0.564979 0.401242 0.070290
H44   H     H_    0.361918 0.428213 0.605432 0.068588
H45   H     H_    0.855440 0.766660 0.572924 0.000756
H46   H     H_    0.340637 0.958482 0.552833 0.099303
H47   H     H_    0.854403 0.049700 0.445239 0.101584
H48   H     H_    0.806440 0.736480 0.477552 0.052334
H49   H     H_    0.374450 0.271938 0.518692 0.078833
H50   H     H_    0.028791 0.185449 0.718112 0.148155
H51   H     H_    0.242583 0.124649 0.721819 0.132790
H52   H     H_    0.296980 0.284818 0.322750 0.026605
H53   H     H_    0.858865 0.043060 0.694194 0.302736
H54   H     H_    0.444561 0.108563 0.322555 0.164977
H55   H     H_    0.453097 0.008169 0.391953 0.062737
H56   H     H_    0.058702 0.745016 0.547522 0.068659
H57   H     H_    0.245470 0.016333 0.365552 0.112498
H58   H     H_    0.292394 0.103115 0.420693 0.125958
H59   H     H_    0.932136 0.929211 0.625213 0.117347
H60   H     H_    0.938751 0.938615 0.559215 0.083338
H61   H     H_    0.127365 0.907599 0.595964 0.126350
N1    N     N_R   0.956161 0.522473 0.204775 -0.422109
N2    N     N_R   0.269304 0.506315 0.796908 -0.427526
N3    N     N_2   0.374392 0.141409 0.352651 -0.406353
O1    O     O_2   0.907040 0.557650 0.617910 -0.467798
O2    O     O_2   0.190897 0.883703 0.460582 -0.485407
O3    O     O_3   0.058836 0.856576 0.370592 -0.598215
O4    O     O_3   0.139040 0.557570 0.557730 -0.495540
O5    O     O_3   0.571310 0.369620 0.475470 -0.472639
O6    O     O_2   0.348200 0.764910 0.523260 -0.474440
O7    O     O_3   0.535688 0.800415 0.604741 -0.646731
O8    O     O_2   0.489398 0.494374 0.332280 -0.492410
O9    O     O_3   0.372444 0.688525 0.314263 -0.563949
O10   O     O_2   0.020064 0.342483 0.196530 -0.614592
O11   O     O_2   0.396245 0.336776 0.800778 -0.583809
O12   O     O_3   0.655376 0.224177 0.396952 -0.624668
O13   O     O_2   0.907824 0.702934 0.207460 -0.618961
O14   O     O_2   0.145835 0.677837 0.799760 -0.588503
O15   O     O_3   0.684960 0.360550 0.588460 -0.486706
O16   O     O_2   0.843379 0.417818 0.673741 -0.506411
O17   O     O_3   0.041428 0.728938 0.623620 -0.622968
O18   O     O_3   0.670205 0.265511 0.679776 -0.569133
O19   O     O_2   0.841490 0.235060 0.476710 -0.467012
O20   O     O_3   0.099640 0.305100 0.564190 -0.484281
O21   O     O_2   0.004108 0.117063 0.535729 -0.486348
O22   O     O_3   0.744911 0.061422 0.705957 -0.669864
O23   O     O_3   0.131628 0.136140 0.626563 -0.623044
O24   O     O_2   0.282660 0.442310 0.382060 -0.438895
O25   O     O_3   0.050670 0.442340 0.442260 -0.468751
O26   O     O_3   0.504750 0.639360 0.411530 -0.461705
O27   O     O_3   0.161836 0.269808 0.385534 -0.622301
O28   O     O_3   0.618400 0.630290 0.524520 -0.476320
O29   O     O_3   0.090070 0.694820 0.435810 -0.464928
P1    P     P_3+3 0.072810 0.589830 0.610360 0.993558
P2    P     P_3+3 0.661990 0.251250 0.462170 1.011986
P3    P     P_3+3 0.144369 0.167275 0.565280 0.949003
P4    P     P_3+3 0.116900 0.410080 0.389630 0.986361
P5    P     P_3+3 0.046658 0.833414 0.433122 0.973502
P6    P     P_3+3 0.676433 0.385248 0.653746 0.979773
P7    P     P_3+3 0.533469 0.764338 0.540076 0.938719
P8    P     P_3+3 0.526312 0.609315 0.346549 0.973142

loop_
_geom_bond_atom_site_label_1
_geom_bond_atom_site_label_2
_ccdc_geom_bond_type
C59   H5    S    
O5    P2    S    
C19   C24   A    
Ba2   O26   S    
C20   H33   S    
C62   H25   S    
Ba2   P4    S    
C58   C59   S    
C42   H40   S    
C39   H37   S    
C57   H61   S    
C54   P5    S    
C24   C25   A    
Ba2   O5    S    
C11   H30   S    
C63   N1    Am   
C25   C26   A    
C1    H4    S    
C22   C24   A    
C62   H28   S    
C32   C33   S    
C35   C38   A    
O18   P6    S    
C2    O13   D    
C36   C37   A    
C47   C51   A    
C55   H47   S    
O7    P7    S    
O26   P8    S    
C29   H31   S    
C49   P2    S    
C16   H16   S    
C54   C55   A    
C52   H45   S    
Ba1   Ba2   S    
O19   P2    D    
C45   H17   S    
C23   O7    S    
C1    H9    S    
C22   C27   A    
C60   H58   S    
C11   C38   A    
C17   C35   A    
C9    C13   A    
C25   C42   A    
C46   C49   A    
C58   H2    S    
C6    C7    D    
C44   C53   A    
C21   C22   A    
Ba1   O20   S    
C45   H18   S    
C7    C8    S    
C60   H55   S    
O23   P3    S    
C44   H48   S    
C52   O17   S    
C4    O23   S    
C59   H6    S    
C46   C48   A    
O27   P4    S    
O16   P6    D    
Ba2   O25   S    
O15   P6    S    
C48   P3    S    
C60   N3    S    
H53   O22   S    
C26   N2    Am   
C15   C31   D    
Ba1   O4    S    
C56   H21   S    
O8    P8    D    
O25   P4    S    
C52   C57   S    
C51   C53   A    
O6    P7    D    
C4    C16   S    
C3    H36   S    
Ba2   O4    S    
C49   C50   A    
C32   H41   S    
C12   H8    S    
Ba1   P1    S    
C17   C20   A    
C13   C39   A    
Ba1   O1    S    
C34   H15   S    
O28   P7    S    
C3    C5    S    
C18   C37   A    
C37   C43   A    
O17   P1    S    
C12   O18   S    
O1    P1    D    
O4    P1    S    
C9    C36   A    
C41   C42   A    
C35   C36   A    
C56   H19   S    
C58   O12   S    
O12   P2    S    
C29   C30   S    
O2    P5    D    
Ba2   O29   S    
C61   H24   S    
C31   C32   D    
C12   H1    S    
C26   O14   D    
C18   C19   A    
C1    C12   S    
O29   P5    S    
C59   H7    S    
C5    C14   S    
C21   H32   S    
C5    P8    S    
Ba2   O24   S    
C4    H39   S    
C61   O9    S    
C29   C33   D    
O20   P3    S    
C53   P7    S    
C16   H51   S    
C8    N1    S    
C56   H20   S    
Ba1   O5    S    
C60   H57   S    
C18   C41   A    
C50   C51   A    
C46   H49   S    
C57   H59   S    
C27   O11   D    
C2    N1    Am   
C61   H22   S    
C52   H56   S    
Ba1   P2    S    
C34   H14   S    
C15   H44   S    
C16   H50   S    
C38   H35   S    
C9    C10   A    
O21   P3    D    
C28   H52   S    
C57   H60   S    
C28   N3    S    
C10   C63   A    
C45   O3    S    
C1    O22   S    
Ba2   O6    S    
C47   H46   S    
O24   P4    D    
O9    P8    S    
C23   H11   S    
C2    C13   A    
Ba1   O28   S    
O3    P5    S    
C3    C8    D    
Ba1   O15   S    
C34   H13   S    
C40   H34   S    
C45   C56   S    
Ba2   O28   S    
C4    H27   S    
C30   P6    S    
C28   O27   S    
H54   N3    S    
Ba1   O25   S    
C41   H38   S    
C50   C55   A    
C14   H43   S    
C23   C34   S    
C61   C62   S    
C63   O10   D    
C43   H42   S    
C40   H23   S    
C10   C11   A    
C58   H3    S    
C40   H12   S    
C6    C14   D    
C47   C48   A    
C27   N2    Am   
C44   C54   A    
C33   N2    S    
C15   C30   S    
C39   C43   A    
C20   C21   A    
C28   C40   S    
Ba1   O19   S    
C6    P4    S    
C62   H26   S    
C23   H10   S    
C7    H29   S    
C31   P1    S    
C17   C19   A    
