data_mof_unit_4622.cif
_audit_creation_date              2012-12-10T16:49:28-0500
_audit_creation_method            fapswitch 2.2
_symmetry_space_group_name_H-M    P1
_symmetry_Int_Tables_number       1
_space_group_crystal_system       triclinic
_cell_length_a                    7.765046
_cell_length_b                    8.625697
_cell_length_c                    12.872969
_cell_angle_alpha                 89.593081
_cell_angle_beta                  88.219854
_cell_angle_gamma                 93.343774
_cell_volume                      860.300113511

loop_
_atom_site_label
_atom_site_type_symbol
_atom_type_description
_atom_site_fract_x
_atom_site_fract_y
_atom_site_fract_z
_atom_type_partial_charge
C1    C     C_R   0.455261 0.205733 0.497360 0.849986
C2    C     C_R   0.711309 0.463171 0.140857 -0.164300
C3    C     C_R   0.589921 0.474731 0.869119 -0.248010
C4    C     C_R   0.410079 0.525269 0.130881 -0.248010
C5    C     C_R   0.578967 0.482402 0.975536 0.174640
C6    C     C_R   0.421033 0.517598 0.024464 0.174640
C7    C     C_2   0.431179 0.043462 0.496024 0.286509
C8    C     C_2   0.568821 0.956538 0.503976 0.286509
C9    C     C_R   0.544739 0.794267 0.502640 0.849986
C10   C     C_R   0.466095 0.501986 0.699762 0.847741
C11   C     C_R   0.533904 0.498014 0.300237 0.847741
C12   C     C_R   0.553868 0.496485 0.189137 -0.043205
C13   C     C_R   0.446132 0.503515 0.810863 -0.043205
C14   C     C_R   0.276188 0.543955 0.966404 -0.213887
C15   C     C_R   0.723812 0.456045 0.033596 -0.213887
C16   C     C_R   0.288690 0.536829 0.859143 -0.164300
F1    F     F_    0.984223 0.636945 0.405044 -0.531138
F2    F     F_    0.015777 0.363055 0.594956 -0.531138
F3    F     F_    0.265722 0.983795 0.486681 -0.580662
F4    F     F_    0.734277 0.016205 0.513319 -0.580662
H1    H     H_    0.288314 0.552560 0.168011 0.183946
H2    H     H_    0.711685 0.447440 0.831989 0.183946
H3    H     H_    0.823202 0.440986 0.185690 0.185669
H4    H     H_    0.176798 0.559014 0.814310 0.185669
H5    H     H_    0.154595 0.570756 0.003769 0.147491
H6    H     H_    0.845405 0.429244 0.996231 0.147491
N1    N     N_2   0.054030 0.541640 0.471970 0.268883
N2    N     N_2   0.945970 0.458360 0.528030 0.268883
O1    O     O_R   0.609680 0.261530 0.506880 -0.572610
O2    O     O_R   0.390320 0.738470 0.493120 -0.572610
O3    O     O_R   0.323330 0.288220 0.488910 -0.538900
O4    O     O_R   0.676670 0.711780 0.511090 -0.538900
O5    O     O_R   0.619510 0.488830 0.661140 -0.624365
O6    O     O_R   0.380490 0.511170 0.338860 -0.624365
O7    O     O_R   0.333160 0.515520 0.643180 -0.596183
O8    O     O_R   0.666840 0.484480 0.356820 -0.596183
Zn1   Zn    Zn3+2 0.691200 0.482180 0.511990 1.168394
Zn2   Zn    Zn3+2 0.308800 0.517820 0.488010 1.168394

loop_
_geom_bond_atom_site_label_1
_geom_bond_atom_site_label_2
_ccdc_geom_bond_type
C11   C12   S    
C15   H6    S    
C10   O7    A    
C4    H1    S    
C4    C12   A    
C3    C13   A    
O3    Zn2   S    
C2    C12   A    
C1    O1    A    
C7    C8    D    
C16   H4    S    
C1    C7    S    
O4    Zn1   S    
C2    C15   A    
C8    F4    S    
N2    Zn1   S    
C9    O2    A    
C11   O8    A    
C10   O5    A    
C7    F3    S    
C14   H5    S    
C5    C6    A    
C14   C16   A    
C5    C15   A    
C6    C14   A    
N1    Zn2   S    
F1    N1    S    
C1    O3    A    
O7    Zn2   S    
F2    N2    S    
O2    Zn2   S    
C4    C6    A    
C13   C16   A    
O1    Zn1   S    
C2    H3    S    
O8    Zn1   S    
C3    H2    S    
C9    O4    A    
C3    C5    A    
O6    Zn2   S    
C11   O6    A    
O5    Zn1   S    
C8    C9    S    
N1    N2    D    
C10   C13   S    
