data_mof_unit_4105.cif
_audit_creation_date              2013-03-05T15:45:55-0500
_audit_creation_method            fapswitch 2.2
_symmetry_space_group_name_H-M    P1
_symmetry_Int_Tables_number       1
_space_group_crystal_system       triclinic
_cell_length_a                    18.30085
_cell_length_b                    18.337802
_cell_length_c                    18.299744
_cell_angle_alpha                 120.007182
_cell_angle_beta                  119.984189
_cell_angle_gamma                 60.013239
_cell_volume                      4343.30452657

loop_
_atom_site_label
_atom_site_type_symbol
_atom_site_description
_atom_site_fract_x
_atom_site_fract_y
_atom_site_fract_z
_atom_type_partial_charge
Zn1   Zn    Zn3+2 0.956630 0.130130 0.543370 1.156124
Zn2   Zn    Zn3+2 0.130140 0.956620 0.543380 1.113556
Zn3   Zn    Zn3+2 0.956630 0.956620 0.369870 1.048636
Zn4   Zn    Zn3+2 0.956610 0.956630 0.543370 1.119345
O1    O     O_3   1.000000 0.000000 0.500000 -0.538202
O2    O     O_R   0.055060 0.884200 0.615800 -0.637380
O3    O     O_R   0.884210 0.176520 0.444920 -0.603350
O4    O     O_R   0.176540 0.055080 0.615800 -0.593794
O5    O     O_R   0.884190 0.884200 0.323480 -0.646717
O6    O     O_R   0.176540 0.884190 0.444930 -0.625161
O7    O     O_R   0.884180 0.055090 0.615790 -0.574036
O8    O     O_R   0.055100 0.884190 0.323490 -0.628569
O9    O     O_R   0.884190 0.176530 0.615790 -0.587030
O10   O     O_R   0.055100 0.176520 0.615800 -0.599789
O11   O     O_R   0.884180 0.884200 0.444920 -0.593889
O12   O     O_R   0.176510 0.884190 0.615800 -0.596894
O13   O     O_R   0.884210 0.055080 0.323480 -0.620200
C1    C     C_R   0.139537 0.857087 0.637391 0.836102
C2    C     C_R   0.859358 0.140011 0.360085 0.850220
C3    C     C_R   0.140330 0.139860 0.646492 0.956976
C4    C     C_R   0.860564 0.859377 0.359858 0.829174
C5    C     C_R   0.140011 0.862102 0.359891 0.862638
C6    C     C_R   0.859352 0.139574 0.638974 0.929793
C7    C     C_R   0.664547 0.173538 0.560122 0.330487
C8    C     C_R   0.572047 0.191717 0.526613 -0.118157
C9    C     C_R   0.521113 0.248112 0.582363 -0.086394
C10   C     C_R   0.561927 0.286279 0.672954 -0.040274
C11   C     C_R   0.655714 0.266890 0.710689 0.034544
C12   C     C_R   0.708908 0.210699 0.654333 -0.059565
C13   C     C_R   0.695808 0.306967 0.803049 -0.032801
C14   C     C_R   0.786675 0.300248 0.838904 -0.012227
C15   C     C_R   0.843002 0.236943 0.787334 -0.062432
C16   C     C_R   0.803160 0.194428 0.694521 -0.103356
C17   C     C_R   0.821833 0.357394 0.924678 -0.254777
C18   C     C_R   0.911669 0.351486 0.960240 0.284112
C19   C     C_R   0.971085 0.277738 0.916114 0.189567
C20   C     C_R   0.937549 0.219423 0.830732 0.185439
H1    H     H_    0.518766 0.331856 0.713129 0.199359
H2    H     H_    0.684055 0.209512 0.307389 0.212474
C21   C     C_R   0.939523 0.191400 0.298676 -0.173938
H3    H     H_    0.983271 0.153077 0.343491 0.194161
C22   C     C_R   0.978501 0.212830 0.266609 -0.135922
C23   C     C_R   0.925086 0.263238 0.209137 0.329804
C24   C     C_R   0.831610 0.293550 0.185747 -0.232592
C25   C     C_R   0.790901 0.272527 0.217881 0.017891
C26   C     C_R   0.845845 0.219530 0.273914 0.083200
C27   C     C_R   0.805828 0.196483 0.304496 -0.112124
C28   C     C_R   0.713217 0.227908 0.282716 -0.219370
C29   C     C_R   0.657627 0.281228 0.228392 0.288952
C30   C     C_R   0.696719 0.303469 0.195670 -0.155622
C31   C     C_R   0.936849 0.671260 0.344709 -0.218964
C32   C     C_R   0.972854 0.581650 0.339878 0.382261
C33   C     C_R   0.915926 0.530902 0.292365 -0.046248
H4    H     H_    0.941597 0.462216 0.288919 0.198454
C34   C     C_R   0.825797 0.567118 0.246605 -0.140776
H5    H     H_    0.785515 0.524033 0.208360 0.145111
C35   C     C_R   0.789700 0.655949 0.247982 0.107458
C36   C     C_R   0.845328 0.709568 0.300038 0.056271
C37   C     C_R   0.808468 0.799389 0.303343 -0.037216
C38   C     C_R   0.720352 0.833004 0.251065 -0.109255
H6    H     H_    0.598607 0.806827 0.157513 0.159025
C39   C     C_R   0.666924 0.779444 0.197401 -0.136621
C40   C     C_R   0.700198 0.692041 0.196603 -0.020260
C41   C     C_R   0.087050 0.710471 0.607390 -0.199738
C42   C     C_R   0.064243 0.641202 0.593730 0.312479
C43   C     C_R   0.129636 0.575334 0.631838 -0.195615
H7    H     H_    0.115644 0.516614 0.613976 0.231652
C44   C     C_R   0.214538 0.581870 0.689077 0.271921
C45   C     C_R   0.230714 0.662196 0.718019 -0.014257
C46   C     C_R   0.169571 0.723459 0.670502 0.019118
C47   C     C_R   0.193875 0.794990 0.687881 -0.042399
C48   C     C_R   0.272540 0.808624 0.756012 -0.105720
H8    H     H_    0.384387 0.770924 0.864464 0.174138
C49   C     C_R   0.326701 0.754969 0.808625 -0.191830
C50   C     C_R   0.305568 0.683716 0.792179 -0.039319
H9    H     H_    0.124615 0.719446 0.218805 0.174385
C51   C     C_R   0.275528 0.926031 0.380841 0.279076
C52   C     C_R   0.351507 0.942562 0.400679 -0.226017
C53   C     C_R   0.411264 0.883031 0.353381 0.310992
C54   C     C_R   0.393794 0.806049 0.284345 -0.250310
H10   H     H_    0.436764 0.765188 0.244088 0.197039
C55   C     C_R   0.321773 0.783406 0.266792 0.010393
C56   C     C_R   0.263502 0.842263 0.318196 -0.013191
C57   C     C_R   0.194855 0.815123 0.302907 -0.040023
C58   C     C_R   0.178158 0.738919 0.231816 -0.176518
H11   H     H_    0.217529 0.625815 0.124630 0.178087
C59   C     C_R   0.231396 0.685220 0.178535 -0.144597
C60   C     C_R   0.304396 0.704836 0.196749 -0.026161
C61   C     C_R   0.341562 0.066720 0.737609 0.334634
C62   C     C_R   0.427509 0.025624 0.731864 -0.297760
H12   H     H_    0.464596 0.956806 0.729452 0.230856
C63   C     C_R   0.467134 0.072070 0.729712 0.210394
C64   C     C_R   0.424099 0.164348 0.742659 0.255594
C65   C     C_R   0.341007 0.208428 0.758714 -0.091557
C66   C     C_R   0.292757 0.156057 0.737265 -0.077265
C67   C     C_R   0.197940 0.195258 0.714296 -0.125046
C68   C     C_R   0.159218 0.289428 0.744944 0.298793
H13   H     H_    0.184349 0.413011 0.816991 0.207190
C69   C     C_R   0.213395 0.341418 0.788155 -0.201109
C70   C     C_R   0.303858 0.302487 0.796026 -0.043112
Zn5   Zn    Zn3+2 0.543340 0.369890 0.956600 1.097911
Zn6   Zn    Zn3+2 0.543340 0.543410 0.130100 1.026831
Zn7   Zn    Zn3+2 0.369830 0.543410 0.956590 1.052984
Zn8   Zn    Zn3+2 0.543370 0.543400 0.956600 1.021752
O14   O     O_3   0.499970 0.500030 0.999970 -0.523046
O15   O     O_R   0.615800 0.615830 0.055050 -0.636667
O16   O     O_R   0.444880 0.323510 0.884180 -0.617571
O17   O     O_R   0.615760 0.444950 0.176490 -0.627131
O18   O     O_R   0.323460 0.615830 0.884170 -0.632880
O19   O     O_R   0.444880 0.615840 0.176480 -0.626305
O20   O     O_R   0.615800 0.444940 0.884180 -0.639452
O21   O     O_R   0.323440 0.615840 0.055040 -0.638094
O22   O     O_R   0.615780 0.323500 0.884180 -0.578614
O23   O     O_R   0.615760 0.323500 0.055050 -0.608963
O24   O     O_R   0.444910 0.615830 0.884180 -0.622383
O25   O     O_R   0.615780 0.615830 0.176490 -0.627145
O26   O     O_R   0.323430 0.444950 0.884170 -0.623381
C71   C     C_R   0.640502 0.639586 0.140112 0.782781
C72   C     C_R   0.359934 0.359618 0.856211 0.935902
C73   C     C_R   0.639532 0.360063 0.139941 0.868465
C74   C     C_R   0.360136 0.637636 0.857611 0.861825
C75   C     C_R   0.360078 0.642273 0.140199 0.793880
C76   C     C_R   0.641156 0.360598 0.861206 0.780338
N1    N     N_R   0.065877 0.257172 0.961030 0.267878
O27   O     O_R   0.115601 0.255900 0.928449 -0.246990
O28   O     O_R   0.101920 0.244877 0.037603 -0.244128
H14   H     H_    0.050728 0.189362 0.286499 0.213874
N2    N     N_R   0.965437 0.283447 0.174334 0.211474
O29   O     O_R   0.051944 0.261730 0.201260 -0.294561
O30   O     O_R   0.915924 0.322843 0.114433 -0.403864
H15   H     H_    0.791060 0.333592 0.142335 0.148982
N3    N     N_R   0.562115 0.311858 0.207393 0.215405
O31   O     O_R   0.507203 0.319948 0.129530 -0.383056
O32   O     O_R   0.529872 0.322823 0.262847 -0.322349
H16   H     H_    0.692652 0.901357 0.252420 0.178709
H17   H     H_    0.980939 0.710458 0.382616 0.139155
N4    N     N_R   0.066858 0.542365 0.383022 0.216256
O33   O     O_R   0.121780 0.585691 0.418375 -0.395085
O34   O     O_R   0.098724 0.462198 0.385939 -0.312035
N5    N     N_R   0.709809 0.119694 0.495688 0.161658
O35   O     O_R   0.724252 0.158704 0.463557 -0.431566
O36   O     O_R   0.712041 0.037204 0.451475 -0.371791
H18   H     H_    0.289766 0.864509 0.772177 0.231566
H19   H     H_    0.038508 0.752712 0.567506 0.200097
N6    N     N_R   0.975793 0.635978 0.538244 0.214440
O37   O     O_R   0.910293 0.704769 0.516888 -0.354197
O38   O     O_R   0.958502 0.564739 0.513848 -0.347980
N7    N     N_R   0.285267 0.502859 0.707611 0.215044
O39   O     O_R   0.362892 0.480985 0.703399 -0.410877
O40   O     O_R   0.266589 0.442930 0.707266 -0.366340
N8    N     N_R   0.206735 0.999731 0.415738 0.199184
O41   O     O_R   0.228517 0.056867 0.495478 -0.409657
O42   O     O_R   0.125949 0.022635 0.360716 -0.457113
H20   H     H_    0.360941 0.005381 0.449777 0.228265
H21   H     H_    0.538948 0.163460 0.455744 0.201461
N9    N     N_R   0.487250 0.902853 0.372515 0.243297
O43   O     O_R   0.502208 0.975667 0.435331 -0.320130
O44   O     O_R   0.543237 0.847496 0.328561 -0.369549
N10   N     N_R   0.066543 0.333557 0.738143 0.228650
O45   O     O_R   0.031934 0.309728 0.766489 -0.305606
O46   O     O_R   0.021567 0.407181 0.719155 -0.335576
N11   N     N_R   0.310264 0.020966 0.755110 0.227183
O47   O     O_R   0.342630 0.934356 0.732418 -0.399102
O48   O     O_R   0.257366 0.065635 0.802435 -0.326474
N12   N     N_R   0.551598 0.024447 0.715334 0.260356
O49   O     O_R   0.559141 0.954867 0.643880 -0.303922
O50   O     O_R   0.623697 0.036910 0.781838 -0.286919
N13   N     N_R   0.455725 0.208848 0.723993 0.211943
O51   O     O_R   0.398890 0.264012 0.679552 -0.371988
O52   O     O_R   0.540846 0.189870 0.745111 -0.330695
H22   H     H_    0.449282 0.263309 0.554993 0.220803
H23   H     H_    0.778724 0.410126 0.963189 0.201025
N14   N     N_R   0.941334 0.420508 0.040701 0.267725
O53   O     O_R   0.015880 0.430310 0.061694 -0.283117
O54   O     O_R   0.887722 0.482483 0.085814 -0.390759
N15   N     N_R   0.000111 0.136600 0.795231 0.198427
O55   O     O_R   0.054047 0.135195 0.767601 -0.344310
O56   O     O_R   0.006597 0.062739 0.795423 -0.346582

loop_
_geom_bond_atom_site_label_1
_geom_bond_atom_site_label_2
_geom_bond_distance
_ccdc_geom_bond_type
Zn5   O16   1.934996 S    
C48   H18   1.078727 S    
C43   C44   1.399862 A    
C59   C60   1.393079 A    
C21   H3    1.079444 S    
N12   O49   1.300946 A    
O24   C74   1.274209 A    
C12   C16   1.429066 A    
C8    H21   1.083393 S    
Zn5   O22   1.933560 S    
H8    C49   1.084311 S    
O17   C73   1.277610 A    
C66   C67   1.425043 A    
C34   H5    1.082097 S    
O18   C74   1.278812 A    
N2    O29   1.301574 A    
C51   N8    1.434878 S    
Zn8   O15   1.935578 S    
N6    O37   1.301634 A    
C35   C36   1.416002 A    
N14   O53   1.301270 A    
C7    N5    1.430221 S    
C24   H15   1.081898 S    
C21   C26   1.408500 A    
N4    O34   1.301717 A    
C9    C10   1.385786 A    
C64   C65   1.425642 A    
Zn3   O13   1.937448 S    
C56   C57   1.427805 A    
Zn1   O1    1.948418 S    
C68   N10   1.436899 S    
C11   C12   1.418067 A    
C19   N1    1.434612 S    
N7    O40   1.300402 A    
C4    C37   1.453817 S    
O26   C72   1.285524 A    
C13   C14   1.412986 A    
C2    C27   1.452740 S    
N13   O52   1.299247 A    
C51   C56   1.430628 A    
C10   H1    1.081152 S    
O8    C5    1.276171 A    
O9    C6    1.278343 A    
Zn6   O14   1.944423 S    
C38   C39   1.385849 A    
C17   C18   1.400474 A    
C7    C12   1.440387 A    
Zn3   O8    1.934073 S    
C68   C69   1.387259 A    
C53   N9    1.442156 S    
N13   O51   1.300828 A    
C63   N12   1.431288 S    
N10   O45   1.301132 A    
C64   N13   1.437396 S    
N3    O31   1.301282 A    
C6    C16   1.445927 S    
N8    O41   1.301093 A    
N10   O46   1.301367 A    
Zn6   O17   1.937447 S    
C46   C47   1.429754 A    
C41   C46   1.418576 A    
C21   C22   1.391728 A    
Zn2   O12   1.936606 S    
H6    C39   1.083964 S    
C44   N7    1.437989 S    
C33   C34   1.394150 A    
C43   H7    1.082489 S    
C3    C67   1.478328 S    
C37   C38   1.396375 A    
N12   O50   1.300979 A    
Zn1   O3    1.935289 S    
O15   C71   1.277664 A    
Zn5   O23   1.935287 S    
Zn7   O26   1.936952 S    
O16   C72   1.277445 A    
Zn8   O14   1.945791 S    
N6    O38   1.301809 A    
C35   C40   1.415785 A    
N11   O48   1.301520 A    
N14   O54   1.300893 A    
Zn5   O14   1.948567 S    
O2    C1    1.269265 A    
C29   N3    1.442769 S    
N1    O27   1.300506 A    
C49   C50   1.393898 A    
C58   C59   1.378322 A    
O20   C76   1.269412 A    
C31   C32   1.404570 A    
C18   N14   1.445192 S    
C27   C28   1.393470 A    
O10   C3    1.286147 A    
C57   C58   1.396325 A    
N5    O35   1.300933 A    
C48   C49   1.377065 A    
C31   C36   1.413070 A    
C40   C71   1.454130 S    
C52   C53   1.394443 A    
C44   C45   1.427127 A    
C41   H19   1.073061 S    
C36   C37   1.414994 A    
C51   C52   1.401396 A    
C55   C56   1.422567 A    
O6    C5    1.277908 A    
C52   H20   1.082872 S    
Zn7   O21   1.933620 S    
C18   C19   1.406677 A    
C5    C57   1.456109 S    
C61   C66   1.422564 A    
C23   C24   1.405074 A    
O21   C75   1.279856 A    
C39   C40   1.396347 A    
Zn3   O5    1.936280 S    
Zn8   O24   1.936165 S    
C31   H17   1.081906 S    
C62   C63   1.390078 A    
C14   C15   1.407564 A    
O22   C76   1.285385 A    
C65   C70   1.420328 A    
C28   C29   1.395104 A    
C67   C68   1.415660 A    
C32   N4    1.440280 S    
C14   C17   1.412519 A    
C65   C66   1.407229 A    
Zn7   O14   1.945089 S    
C70   C72   1.467863 S    
O4    C3    1.280789 A    
C15   C20   1.433130 A    
C7    C8    1.398443 A    
Zn4   O7    1.934812 S    
C38   H16   1.083994 S    
C22   H14   1.082610 S    
Zn4   O2    1.936221 S    
N15   O55   1.300403 A    
C9    H22   1.082562 S    
C29   C30   1.414518 A    
O3    C2    1.274464 A    
C34   C35   1.410840 A    
C30   C73   1.455508 S    
Zn6   O19   1.933928 S    
Zn2   O1    1.945089 S    
Zn1   O9    1.933515 S    
C22   C23   1.399186 A    
C42   N6    1.440594 S    
Zn2   O6    1.933725 S    
C61   N11   1.437749 S    
C17   H23   1.079663 S    
C32   C33   1.400652 A    
H11   C59   1.084193 S    
N1    O28   1.301141 A    
N11   O47   1.300617 A    
C1    C47   1.463326 S    
C26   C27   1.408456 A    
C19   C20   1.409918 A    
C60   C75   1.457214 S    
C50   C74   1.455466 S    
O12   C1    1.288695 A    
Zn2   O4    1.936954 S    
C24   C25   1.414628 A    
N5    O36   1.300620 A    
C54   H10   1.077256 S    
Zn3   O1    1.944424 S    
N2    O30   1.299808 A    
C23   N2    1.438058 S    
Zn8   O20   1.934811 S    
C33   H4    1.081590 S    
N4    O33   1.301627 A    
C69   C70   1.397968 A    
Zn7   O18   1.936459 S    
C15   C16   1.424837 A    
Zn4   O11   1.935578 S    
N9    O44   1.301792 A    
C8    C9    1.382327 A    
C11   C13   1.411469 A    
C42   C43   1.393163 A    
O19   C75   1.274489 A    
C20   N15   1.434570 S    
O5    C4    1.274695 A    
C62   H12   1.083158 S    
O11   C4    1.277704 A    
C25   C30   1.418043 A    
C55   C60   1.422454 A    
Zn4   O1    1.945642 S    
C41   C42   1.399385 A    
O7    C6    1.272097 A    
C63   C64   1.411807 A    
O13   C2    1.278340 A    
C54   C55   1.415393 A    
O25   C71   1.275060 A    
C45   C50   1.421468 A    
N7    O39   1.301486 A    
N8    O42   1.300162 A    
C45   C46   1.420661 A    
Zn6   O25   1.936280 S    
C53   C54   1.398107 A    
C25   C26   1.412914 A    
C47   C48   1.394088 A    
N9    O43   1.301861 A    
C13   C76   1.460827 S    
N3    O32   1.301639 A    
H13   C69   1.083718 S    
C10   C11   1.414250 A    
H2    C28   1.084252 S    
Zn1   O10   1.935244 S    
C61   C62   1.397910 A    
H9    C58   1.084392 S    
O23   C73   1.275289 A    
N15   O56   1.300858 A    
