data_mof_unit_2638.cif
_audit_creation_date              2012-12-10T20:51:45-0500
_audit_creation_method            fapswitch 2.2
_symmetry_space_group_name_H-M    P1
_symmetry_Int_Tables_number       1
_space_group_crystal_system       triclinic
_cell_length_a                    8.112799
_cell_length_b                    8.93052
_cell_length_c                    16.796294
_cell_angle_alpha                 89.525723
_cell_angle_beta                  94.907616
_cell_angle_gamma                 90.022347
_cell_volume                      1212.41402635

loop_
_atom_site_label
_atom_site_type_symbol
_atom_type_description
_atom_site_fract_x
_atom_site_fract_y
_atom_site_fract_z
_atom_type_partial_charge
C1    C     C_R   0.499956 0.218020 0.500010 0.936847
C2    C     C_R   0.530591 0.408853 0.135163 0.374831
C3    C     C_R   0.559009 0.560959 0.904204 0.211760
C4    C     C_R   0.427955 0.517836 0.094875 0.220677
C5    C     C_R   0.686833 0.484979 0.868782 0.121434
C6    C     C_R   0.334061 0.616298 0.138359 0.094522
C7    C     C_R   0.675291 0.468463 0.785909 -0.221211
C8    C     C_R   0.350711 0.608375 0.221525 -0.243446
C9    C     C_1   0.499954 0.065199 0.499992 -0.182414
C10   C     C_1   0.500036 0.934796 0.499980 -0.181632
C11   C     C_3   0.835034 0.418461 0.917414 -0.400887
C12   C     C_R   0.500039 0.781980 0.499974 0.933830
C13   C     C_3   0.839776 0.247930 0.910568 -0.700411
C14   C     C_3   0.221160 0.733622 0.098001 -0.340070
C15   C     C_3   0.064473 0.662965 0.058138 -0.760487
C16   C     C_R   0.521976 0.501129 0.653732 0.904617
C17   C     C_R   0.477858 0.501882 0.346479 0.898971
C18   C     C_R   0.536824 0.521795 0.739311 -0.136191
C19   C     C_R   0.460573 0.506367 0.260607 -0.114986
C20   C     C_R   0.415862 0.603999 0.773699 -0.256826
C21   C     C_R   0.549609 0.406360 0.217877 -0.267565
C22   C     C_R   0.428147 0.627799 0.855189 0.377731
Cl1   Cl    Cl    0.631823 0.270148 0.083918 -0.643008
Cl2   Cl    Cl    0.280218 0.746989 0.891928 -0.654859
H1    H     H_    0.630311 0.324099 0.248887 0.189045
H2    H     H_    0.096202 0.580123 0.013149 0.275745
H3    H     H_    0.994020 0.606044 0.103545 0.252853
H4    H     H_    0.985002 0.751027 0.027700 0.269449
H5    H     H_    0.183825 0.816822 0.141970 0.201784
H6    H     H_    0.288050 0.797138 0.053844 0.270090
H7    H     H_    0.313346 0.653059 0.736787 0.199771
H8    H     H_    0.772071 0.410335 0.757897 0.176519
H9    H     H_    0.280935 0.683856 0.256157 0.162488
H10   H     H_    0.719767 0.198377 0.924243 0.299335
H11   H     H_    0.866282 0.214492 0.849444 0.235103
H12   H     H_    0.939180 0.202167 0.953503 0.266311
H13   H     H_    0.949810 0.465948 0.895695 0.221143
H14   H     H_    0.835468 0.447389 0.981450 0.251637
N1    N     N_1   0.073640 0.500030 0.499990 -0.028993
N2    N     N_1   0.926360 0.499970 0.500010 -0.028756
N3    N     N_2   0.559588 0.560016 0.988221 -0.144315
N4    N     N_2   0.421333 0.529935 0.011197 -0.110939
O1    O     O_R   0.636850 0.285340 0.500000 -0.616193
O2    O     O_R   0.363150 0.714660 0.500000 -0.617994
O3    O     O_R   0.363100 0.285350 0.500000 -0.611526
O4    O     O_R   0.636900 0.714650 0.500000 -0.611996
O5    O     O_R   0.652140 0.498630 0.616140 -0.619571
O6    O     O_R   0.347860 0.501370 0.383860 -0.616140
O7    O     O_R   0.378390 0.498650 0.616130 -0.618028
O8    O     O_R   0.621610 0.501350 0.383870 -0.614825
Zn1   Zn    Zn3+2 0.682780 0.499990 0.500010 0.998735
Zn2   Zn    Zn3+2 0.317220 0.500010 0.499990 0.998039

loop_
_geom_bond_atom_site_label_1
_geom_bond_atom_site_label_2
_ccdc_geom_bond_type
C17   O8    A    
C11   H14   S    
C2    C4    A    
C5    C11   S    
C11   H13   S    
O2    Zn2   S    
C6    C14   S    
N2    Zn1   S    
C9    C10   T    
C15   H3    S    
C17   O6    A    
C7    C18   A    
O1    Zn1   S    
O7    Zn2   S    
C2    C21   A    
N1    Zn2   S    
C13   H10   S    
C12   O2    A    
C11   C13   S    
C1    O3    A    
C15   H4    S    
C4    N4    S    
C14   H6    S    
C10   C12   S    
C16   O5    A    
C4    C6    A    
C17   C19   S    
C20   C22   A    
C13   H11   S    
C18   C20   A    
C8    H9    S    
C12   O4    A    
C22   Cl2   S    
C8    C19   A    
C14   H5    S    
N1    N2    T    
C3    C5    A    
O6    Zn2   S    
C1    C9    S    
C16   O7    A    
C13   H12   S    
C16   C18   S    
N3    N4    D    
C2    Cl1   S    
C5    C7    A    
C21   H1    S    
C14   C15   S    
C3    N3    S    
C3    C22   A    
C6    C8    A    
C7    H8    S    
O3    Zn2   S    
O8    Zn1   S    
C19   C21   A    
O4    Zn1   S    
C1    O1    A    
O5    Zn1   S    
C15   H2    S    
C20   H7    S    
