data_mof_unit_2171.cif
_audit_creation_date              2012-12-10T17:58:18-0500
_audit_creation_method            fapswitch 2.2
_symmetry_space_group_name_H-M    P1
_symmetry_Int_Tables_number       1
_space_group_crystal_system       triclinic
_cell_length_a                    9.641634
_cell_length_b                    10.816294
_cell_length_c                    15.476299
_cell_angle_alpha                 87.267459
_cell_angle_beta                  74.339399
_cell_angle_gamma                 89.832542
_cell_volume                      1552.20830302

loop_
_atom_site_label
_atom_site_type_symbol
_atom_type_description
_atom_site_fract_x
_atom_site_fract_y
_atom_site_fract_z
_atom_type_partial_charge
C1    C     C_R   0.000091 0.262466 0.500002 0.791031
C2    C     C_R   0.999896 0.737532 0.500020 0.790670
C3    C     C_R   0.583402 0.481600 0.096129 -0.180203
C4    C     C_R   0.426139 0.570655 0.907055 -0.182936
C5    C     C_R   0.727687 0.467892 0.051766 -0.208804
C6    C     C_R   0.282239 0.586071 0.951587 -0.213492
C7    C     C_R   0.887252 0.065689 0.479177 -0.112076
C8    C     C_R   0.112652 0.934300 0.520941 -0.111554
C9    C     C_R   0.886721 0.937707 0.479627 -0.176147
C10   C     C_R   0.113208 0.062282 0.520463 -0.176272
C11   C     C_R   0.999639 0.871551 0.500276 -0.037844
C12   C     C_R   0.000305 0.128441 0.499797 -0.038529
C13   C     C_R   0.549263 0.423668 0.559026 0.060362
C14   C     C_R   0.450619 0.576277 0.440941 0.058319
C15   C     C_R   0.399706 0.426608 0.561445 0.062058
C16   C     C_R   0.600183 0.573632 0.438634 0.063972
C17   C     C_R   0.918245 0.499918 0.672013 0.789704
C18   C     C_R   0.081840 0.501173 0.327986 0.789894
C19   C     C_R   0.872337 0.498428 0.770710 -0.057410
C20   C     C_R   0.128685 0.511957 0.229347 -0.054504
C21   C     C_R   0.920549 0.463068 0.915117 -0.201133
C22   C     C_R   0.086465 0.575999 0.087046 -0.204314
C23   C     C_R   0.969432 0.473620 0.821876 -0.178917
C24   C     C_R   0.034711 0.551437 0.179205 -0.187930
C25   C     C_R   0.726972 0.517705 0.813985 -0.237643
C26   C     C_R   0.273897 0.492793 0.185804 -0.240644
C27   C     C_R   0.675228 0.511177 0.908222 0.096980
C28   C     C_R   0.330178 0.520465 0.093191 0.098537
C29   C     C_R   0.774619 0.480862 0.958585 0.151945
C30   C     C_R   0.232838 0.560634 0.043699 0.157347
C31   C     C_R   0.527390 0.530175 0.953489 0.062037
C32   C     C_R   0.479674 0.509633 0.048622 0.057701
Cu1   Cu    Cu3+1 0.140660 0.500020 0.500000 0.941480
Cu2   Cu    Cu3+1 0.859340 0.499980 0.500000 0.940864
H1    H     H_    0.802993 0.445688 0.090937 0.153953
H2    H     H_    0.208812 0.617964 0.913339 0.151978
H3    H     H_    0.340572 0.455747 0.226164 0.145778
H4    H     H_    0.655537 0.534506 0.772222 0.147228
H5    H     H_    0.922240 0.565975 0.211272 0.198694
H6    H     H_    0.082222 0.459381 0.789994 0.199131
H7    H     H_    0.996751 0.439109 0.953204 0.150304
H8    H     H_    0.012314 0.609292 0.049846 0.149091
H9    H     H_    0.557859 0.472110 0.168266 0.157019
H10   H     H_    0.454541 0.594792 0.836174 0.150431
H11   H     H_    0.800018 0.115307 0.461871 0.190076
H12   H     H_    0.199849 0.884684 0.538291 0.189775
H13   H     H_    0.798799 0.890892 0.463051 0.157880
H14   H     H_    0.201140 0.109094 0.537028 0.157426
N1    N     N_R   0.352080 0.500030 0.499980 -0.254661
N2    N     N_R   0.647920 0.499970 0.500020 -0.254211
O1    O     O_R   0.118740 0.319660 0.500000 -0.613332
O2    O     O_R   0.881260 0.680340 0.500000 -0.613957
O3    O     O_R   0.881170 0.319630 0.500010 -0.567608
O4    O     O_R   0.118830 0.680370 0.499990 -0.566997
O5    O     O_R   0.055570 0.500030 0.629830 -0.596212
O6    O     O_R   0.944430 0.499970 0.370170 -0.596578
O7    O     O_R   0.818000 0.500000 0.629840 -0.610831
O8    O     O_R   0.182000 0.500000 0.370160 -0.610227
C33   C     C_2   0.599050 0.329098 0.615496 0.525344
H15   H     H_    0.628002 0.353839 0.675254 0.078618
O9    O     O_2   0.598401 0.220148 0.598421 -0.568248
C34   C     C_2   0.400493 0.670222 0.384193 0.531181
H16   H     H_    0.373693 0.645035 0.323813 0.077506
O10   O     O_2   0.398899 0.779165 0.401618 -0.566038
C35   C     C_2   0.295340 0.354348 0.634700 0.376229
H17   H     H_    0.201508 0.310922 0.624566 0.124390
O11   O     O_2   0.312856 0.343497 0.709954 -0.597055
C36   C     C_2   0.704308 0.646767 0.365710 0.367471
H18   H     H_    0.799595 0.687953 0.375422 0.127145
O12   O     O_2   0.684987 0.661005 0.291071 -0.603243

loop_
_geom_bond_atom_site_label_1
_geom_bond_atom_site_label_2
_ccdc_geom_bond_type
C21   C29   A    
Cu1   O5    S    
Cu2   O7    S    
C19   C23   A    
C26   H3    S    
Cu2   O6    S    
Cu1   O8    S    
C16   C36   S    
C25   H4    S    
Cu1   O1    S    
C9    C11   A    
C17   O5    A    
C26   C28   A    
C31   C32   A    
C18   O6    A    
C3    C5    A    
C20   C24   A    
C21   H7    S    
C15   C35   S    
C28   C30   A    
Cu1   Cu2   S    
C33   H15   S    
C20   C26   A    
C22   H8    S    
C15   N1    A    
C1    O1    A    
C3    H9    S    
C34   H16   S    
C1    C12   S    
C2    O2    A    
Cu2   O3    S    
C8    C11   A    
C13   C33   S    
C2    C11   S    
C7    H11   S    
C22   C24   A    
C4    C6    A    
C17   C19   S    
C6    H2    S    
C9    H13   S    
C5    C29   A    
C13   C15   A    
C21   C23   A    
C10   H14   S    
C3    C32   A    
C10   C12   A    
C14   C16   A    
C7    C12   A    
Cu2   N2    S    
C4    C31   A    
C27   C29   A    
C19   C25   A    
Cu1   N1    S    
C13   N2    A    
C14   C34   S    
C5    H1    S    
C28   C32   A    
C24   H5    S    
C14   N1    A    
C18   C20   S    
C8    C10   A    
C35   H17   S    
C2    O4    A    
C33   O9    D    
C17   O7    A    
Cu1   O4    S    
C7    C9    A    
C36   O12   D    
C1    O3    A    
C34   O10   D    
Cu2   O2    S    
C22   C30   A    
C8    H12   S    
C6    C30   A    
C27   C31   A    
C18   O8    A    
C23   H6    S    
C16   N2    A    
C36   H18   S    
C35   O11   D    
C25   C27   A    
C4    H10   S    
