data_mof_unit_550.cif
_audit_creation_date              2012-12-10T19:06:29-0500
_audit_creation_method            fapswitch 2.2
_symmetry_space_group_name_H-M    P1
_symmetry_Int_Tables_number       1
_space_group_crystal_system       triclinic
_cell_length_a                    23.504629
_cell_length_b                    10.892982
_cell_length_c                    9.564532
_cell_angle_alpha                 89.823929
_cell_angle_beta                  90.572054
_cell_angle_gamma                 91.147739
_cell_volume                      2448.23628247

loop_
_atom_site_label
_atom_site_type_symbol
_atom_type_description
_atom_site_fract_x
_atom_site_fract_y
_atom_site_fract_z
_atom_type_partial_charge
C1    C     C_R   0.500934 0.263056 0.500295 0.832283
C2    C     C_R   0.968760 0.285145 0.471798 -0.139780
C3    C     C_R   0.027975 0.286147 0.473013 -0.151086
C4    C     C_R   0.058984 0.395180 0.500320 -0.017374
C5    C     C_R   0.030035 0.504511 0.528526 -0.016942
C6    C     C_R   0.060988 0.614695 0.557680 -0.091715
C7    C     C_R   0.030387 0.722307 0.591304 -0.031548
C8    C     C_R   0.970827 0.719916 0.583635 -0.192440
C9    C     C_R   0.118476 0.397507 0.498466 0.547171
C10   C     C_R   0.121058 0.612625 0.547189 0.562851
C11   C     C_R   0.236956 0.565016 0.403313 -0.128717
C12   C     C_R   0.391011 0.501666 0.499250 0.825186
C13   C     C_R   0.296376 0.564160 0.394249 -0.027675
C14   C     C_R   0.328333 0.502615 0.498730 -0.102357
C15   C     C_R   0.299696 0.443861 0.609390 -0.202445
C16   C     C_R   0.240604 0.444717 0.616377 -0.078751
C17   C     C_R   0.209043 0.505112 0.513488 0.321022
C18   C     C_R   0.759812 0.459894 0.629024 -0.097947
C19   C     C_R   0.700509 0.459776 0.624850 -0.212855
C20   C     C_R   0.671595 0.499827 0.504208 -0.036457
C21   C     C_R   0.703041 0.540621 0.388359 -0.208837
C22   C     C_R   0.762365 0.541247 0.392989 -0.095595
C23   C     C_R   0.498839 0.737426 0.498620 0.793936
C24   C     C_R   0.790823 0.500741 0.513207 0.355746
C25   C     C_R   0.498101 0.060974 0.619342 0.085029
C26   C     C_R   0.502553 0.130983 0.498920 -0.134772
C27   C     C_R   0.506840 0.068397 0.371457 -0.181422
C28   C     C_R   0.502422 0.939628 0.365258 -0.005083
C29   C     C_R   0.498475 0.870683 0.493116 -0.171147
C30   C     C_R   0.496754 0.937331 0.616599 0.096907
C31   C     C_3   0.489550 0.926069 0.770847 -0.389622
C32   C     C_3   0.490713 0.067415 0.773488 -0.368283
C33   C     C_R   0.526301 0.593169 0.074066 0.225930
C34   C     C_R   0.609020 0.500181 0.500833 0.797063
C35   C     C_R   0.470115 0.412366 0.070883 0.068327
C36   C     C_R   0.470476 0.413885 0.922862 -0.101239
C37   C     C_R   0.526120 0.593380 0.926716 0.256070
C38   C     C_3   0.587622 0.628704 0.921527 -0.470071
C39   C     C_3   0.588069 0.626726 0.079927 -0.482621
C40   C     C_R   0.880626 0.608829 0.546298 0.549067
C41   C     C_R   0.879582 0.394614 0.494080 0.539446
C42   C     C_R   0.939245 0.393298 0.497322 -0.022428
C43   C     C_R   0.969892 0.503208 0.526173 -0.010387
C44   C     C_R   0.940371 0.611717 0.551436 -0.035592
Cu1   Cu    Cu3+1 0.500000 0.499980 0.640670 0.953129
Cu2   Cu    Cu3+1 0.500000 0.500020 0.359330 0.988247
H1    H     H_    0.946240 0.199548 0.449731 0.204557
H2    H     H_    0.677316 0.427367 0.715454 0.152746
H3    H     H_    0.681960 0.574016 0.295365 0.147835
H4    H     H_    0.786281 0.573371 0.303402 0.142004
H5    H     H_    0.511605 0.119870 0.275351 0.221544
H6    H     H_    0.447589 0.884729 0.799162 0.204107
H7    H     H_    0.527012 0.884755 0.823059 0.215122
H8    H     H_    0.449266 0.107266 0.802028 0.216857
H9    H     H_    0.528700 0.107751 0.827696 0.223558
H10   H     H_    0.049371 0.201292 0.451209 0.209314
H11   H     H_    0.447304 0.344038 0.863977 0.161239
H12   H     H_    0.614190 0.556165 0.875656 0.212647
H13   H     H_    0.594711 0.721976 0.876963 0.202429
H14   H     H_    0.614081 0.551365 0.123058 0.208014
H15   H     H_    0.596242 0.718432 0.127389 0.225777
H16   H     H_    0.948083 0.802757 0.607714 0.208034
H17   H     H_    0.212101 0.611978 0.324271 0.161440
H18   H     H_    0.323137 0.396441 0.690604 0.166670
H19   H     H_    0.219231 0.398657 0.702148 0.157318
H20   H     H_    0.781730 0.428558 0.722223 0.141487
N1    N     N_R   0.851712 0.501427 0.517876 -0.473332
N2    N     N_R   0.148073 0.505037 0.520535 -0.467398
N3    N     N_R   0.500360 0.500930 0.147930 -0.230673
N4    N     N_R   0.500360 0.500890 0.852020 -0.202056
O1    O     O_R   0.500000 0.319640 0.618810 -0.587866
O2    O     O_2   0.849604 0.290353 0.466626 -0.521246
O3    O     O_2   0.146680 0.293475 0.472073 -0.513243
O4    O     O_2   0.152486 0.716895 0.560015 -0.484320
O5    O     O_R   0.500010 0.319680 0.381230 -0.582553
O6    O     O_R   0.417880 0.499940 0.618820 -0.590158
O7    O     O_R   0.417880 0.499980 0.381240 -0.511849
O8    O     O_R   0.499990 0.680320 0.618770 -0.572413
O9    O     O_R   0.500000 0.680360 0.381190 -0.609382
O10   O     O_R   0.582120 0.500020 0.618760 -0.585925
O11   O     O_R   0.582120 0.500060 0.381180 -0.585503
O12   O     O_2   0.851584 0.712224 0.570035 -0.521480
C45   C     C_2   0.498380 0.884894 0.223356 0.378975
H21   H     H_    0.469134 0.809110 0.201349 0.105538
O13   O     O_2   0.526196 0.927964 0.127126 -0.562707
C46   C     C_2   0.438243 0.307523 0.132850 0.870079
O14   O     O_2   0.401371 0.323386 0.219190 -0.526356
O15   O     O_R   0.446404 0.189737 0.079857 -0.805056
H22   H     H_    0.420564 0.125472 0.124589 0.342438
C47   C     C_2   0.057521 0.837606 0.642968 0.940596
O16   O     O_2   0.091080 0.835202 0.741439 -0.529118
O17   O     O_R   0.041861 0.949898 0.584467 -0.763663
H23   H     H_    0.062239 0.022346 0.630396 0.343054
C48   C     C_2   0.323238 0.633470 0.278716 0.851852
O18   O     O_2   0.321745 0.745575 0.277557 -0.586064
O19   O     O_R   0.348373 0.570800 0.168832 -0.715236
H24   H     H_    0.365381 0.628367 0.096229 0.320143

loop_
_geom_bond_atom_site_label_1
_geom_bond_atom_site_label_2
_ccdc_geom_bond_type
Cu1   O1    S    
C10   O4    S    
C41   C42   A    
C35   C36   A    
C31   H6    S    
C21   H3    S    
C7    C8    A    
C41   N1    A    
Cu1   Cu2   S    
C26   C27   A    
C29   C30   A    
Cu1   O6    S    
C18   C24   A    
C23   C29   S    
C21   C22   A    
C28   C29   A    
C2    C42   A    
C11   H17   S    
C5    C6    A    
C35   C46   S    
C46   O15   S    
C15   C16   A    
C18   C19   A    
Cu2   N3    S    
C24   N1    S    
C34   O10   A    
C38   H12   S    
Cu2   O9    S    
C31   C32   S    
C27   H5    S    
C16   C17   A    
C40   N1    A    
C15   H18   S    
Cu1   O8    S    
C34   O11   A    
C32   H9    S    
C33   N3    A    
C22   H4    S    
C20   C34   S    
O15   H22   S    
C25   C32   S    
C5    C43   A    
C13   C14   A    
O19   H24   S    
C28   C45   S    
C9    O3    S    
C32   H8    S    
Cu2   O5    S    
C36   N4    A    
C39   H15   S    
C1    O5    A    
C40   O12   S    
C36   H11   S    
C46   O14   D    
C25   C26   A    
C7    C47   S    
C33   C37   A    
C43   C44   A    
C37   C38   S    
Cu2   O11   S    
C3    H10   S    
C47   O17   S    
C45   H21   S    
C30   C31   S    
C12   O7    A    
C33   C39   S    
C31   H7    S    
C48   O19   S    
C41   O2    S    
C45   O13   D    
C12   C14   S    
C12   O6    A    
C1    C26   S    
C22   C24   A    
C42   C43   A    
C3    C4    A    
C25   C30   A    
C11   C17   A    
C17   N2    S    
Cu1   N4    S    
C19   H2    S    
C8    C44   A    
C4    C5    A    
C6    C10   A    
Cu2   O7    S    
C6    C7    A    
C10   N2    A    
C2    H1    S    
C18   H20   S    
C13   C48   S    
C19   C20   A    
C2    C3    A    
C9    N2    A    
C11   C13   A    
C47   O16   D    
C38   C39   S    
C1    O1    A    
C39   H14   S    
O17   H23   S    
Cu1   O10   S    
C23   O8    A    
C48   O18   D    
C38   H13   S    
C40   C44   A    
C20   C21   A    
C35   N3    A    
C27   C28   A    
C14   C15   A    
C16   H19   S    
C23   O9    A    
C4    C9    A    
C37   N4    A    
C8    H16   S    
