data_mof_unit_739.cif
_audit_creation_date              2012-10-26T19:50:00-0400
_audit_creation_method            fapswitch 2.2
_symmetry_space_group_name_H-M    P1
_symmetry_Int_Tables_number       1
_space_group_crystal_system       triclinic
_cell_length_a                    15.13678
_cell_length_b                    13.822889
_cell_length_c                    10.779772
_cell_angle_alpha                 90.299494
_cell_angle_beta                  90.25484
_cell_angle_gamma                 89.808918
_cell_volume                      2255.42964295

loop_
_atom_site_label
_atom_site_type_symbol
_atom_type_description
_atom_site_fract_x
_atom_site_fract_y
_atom_site_fract_z
_atom_type_partial_charge
C1    C     C_R   0.329887 0.500138 0.499536 0.549610
C2    C     C_R   0.951555 0.500717 0.490458 0.034444
C3    C     C_R   0.437521 0.107528 0.567836 -0.143252
C4    C     C_R   0.563733 0.106816 0.432926 -0.123409
C5    C     C_R   0.438509 0.209445 0.566902 0.046001
C6    C     C_R   0.562028 0.208771 0.433588 0.044891
C7    C     C_R   0.500588 0.054655 0.500067 0.054918
C8    C     C_R   0.435217 0.892648 0.433665 0.042511
C9    C     C_R   0.565858 0.892940 0.564074 0.058298
C10   C     C_R   0.436899 0.790678 0.435235 0.084799
C11   C     C_R   0.563836 0.790723 0.563344 0.031108
C12   C     C_R   0.670212 0.499947 0.499069 0.531376
C13   C     C_R   0.500458 0.945672 0.499342 0.061386
C14   C     C_R   0.503037 0.499725 0.262401 0.539825
C15   C     C_R   0.504441 0.500316 0.737651 0.544416
C16   C     C_R   0.638197 0.609578 0.132885 -0.111090
C17   C     C_R   0.636215 0.616276 0.875190 -0.114629
C18   C     C_R   0.698301 0.669744 0.072477 0.018994
C19   C     C_R   0.696893 0.673795 0.941279 0.018996
C20   C     C_R   0.573118 0.558785 0.936554 0.007462
C21   C     C_R   0.573510 0.556686 0.067193 0.005824
C22   C     C_R   0.510632 0.498948 0.128932 0.003818
C23   C     C_R   0.233571 0.500438 0.497423 0.017412
C24   C     C_R   0.510949 0.500699 0.871511 0.007684
C25   C     C_R   0.452841 0.439523 0.062749 -0.152302
C26   C     C_R   0.453238 0.440119 0.934991 -0.149258
C27   C     C_R   0.095790 0.579581 0.445101 -0.121825
C28   C     C_R   0.904819 0.586484 0.515186 -0.129139
C29   C     C_R   0.187599 0.579984 0.449036 -0.128687
C30   C     C_R   0.813057 0.586337 0.517367 -0.147117
C31   C     C_3   0.762331 0.726722 0.153002 -0.262613
C32   C     C_3   0.714143 0.808116 0.223074 -0.293484
C33   C     C_3   0.776438 0.861410 0.311386 -0.459299
C34   C     C_R   0.766673 0.500178 0.495812 0.012717
C35   C     C_3   0.758550 0.737822 0.868462 -0.260030
C36   C     C_3   0.847681 0.687597 0.847096 -0.295327
C37   C     C_3   0.911797 0.754427 0.780683 -0.455613
C38   C     C_R   0.186979 0.420851 0.542862 -0.131227
C39   C     C_R   0.813103 0.414594 0.469874 -0.129280
C40   C     C_R   0.095172 0.421198 0.541153 -0.120868
C41   C     C_R   0.904874 0.414979 0.466506 -0.121354
C42   C     C_R   0.048757 0.500371 0.491724 0.032710
Cu1   Cu    Cu3+1 0.500000 0.596430 0.500000 0.914982
Cu2   Cu    Cu3+1 0.500000 0.403570 0.500000 0.934559
H1    H     H_    0.405568 0.394298 0.110325 0.127844
H2    H     H_    0.778591 0.653336 0.537780 0.114867
H3    H     H_    0.221497 0.359119 0.581555 0.112897
H4    H     H_    0.778578 0.347520 0.451242 0.120902
H5    H     H_    0.060611 0.360092 0.580122 0.103213
H6    H     H_    0.939212 0.348305 0.444336 0.102833
H7    H     H_    0.388053 0.070190 0.621591 0.092328
H8    H     H_    0.613552 0.068904 0.379528 0.095410
H9    H     H_    0.389855 0.249119 0.620099 0.115108
H10   H     H_    0.610606 0.247949 0.380614 0.117033
H11   H     H_    0.330246 0.983172 0.422960 0.231715
H12   H     H_    0.406395 0.394980 0.885237 0.121607
H13   H     H_    0.398287 0.985485 0.298596 0.237400
H14   H     H_    0.694686 0.919756 0.597574 0.212763
H15   H     H_    0.629847 0.921400 0.724592 0.225129
H16   H     H_    0.803041 0.810912 0.382297 0.145376
H17   H     H_    0.832063 0.893699 0.259215 0.150815
H18   H     H_    0.739818 0.920300 0.359422 0.144638
H19   H     H_    0.686290 0.860493 0.155319 0.162623
H20   H     H_    0.658782 0.778113 0.278196 0.178063
H21   H     H_    0.793687 0.676543 0.220662 0.143623
H22   H     H_    0.817076 0.758319 0.099048 0.141626
H23   H     H_    0.387313 0.750698 0.383913 0.147524
H24   H     H_    0.883495 0.777987 0.690454 0.141398
H25   H     H_    0.925840 0.819160 0.838901 0.151476
H26   H     H_    0.974830 0.715468 0.763165 0.148935
H27   H     H_    0.877567 0.665272 0.936827 0.161406
H28   H     H_    0.837509 0.621447 0.789769 0.172915
H29   H     H_    0.728785 0.755064 0.776682 0.118342
H30   H     H_    0.767133 0.808649 0.916036 0.141441
H31   H     H_    0.613740 0.750792 0.613817 0.112907
H32   H     H_    0.643867 0.603948 0.232568 0.141030
H33   H     H_    0.640066 0.616341 0.775157 0.129330
H34   H     H_    0.061752 0.640777 0.404420 0.102501
H35   H     H_    0.939154 0.653349 0.535034 0.101626
H36   H     H_    0.222644 0.641685 0.412325 0.121415
N1    N     N_R   0.500000 0.258690 0.500000 -0.218655
N2    N     N_R   0.500000 0.741330 0.500000 -0.258432
N3    N     N_3   0.367800 0.940254 0.362872 -0.660119
N4    N     N_3   0.633553 0.942717 0.631839 -0.641458
O1    O     O_R   0.371460 0.581430 0.500010 -0.504811
O2    O     O_R   0.628540 0.581430 0.499990 -0.528699
O3    O     O_R   0.371470 0.418560 0.500010 -0.509578
O4    O     O_R   0.628530 0.418560 0.499990 -0.506328
O5    O     O_R   0.500000 0.581450 0.319650 -0.509722
O6    O     O_R   0.500000 0.581450 0.680350 -0.501119
O7    O     O_R   0.500010 0.418580 0.319650 -0.501458
O8    O     O_R   0.499990 0.418580 0.680350 -0.498621

loop_
_geom_bond_atom_site_label_1
_geom_bond_atom_site_label_2
_ccdc_geom_bond_type
C1    O3    A    
C31   H22   S    
C35   H30   S    
C8    C13   A    
C37   H25   S    
C27   C29   A    
C8    N3    S    
C35   C36   S    
C27   H34   S    
C39   C41   A    
C10   H23   S    
Cu1   O5    S    
C4    H8    S    
C23   C29   A    
C5    H9    S    
C36   C37   S    
C24   C26   A    
C3    C7    A    
C2    C41   A    
C40   H5    S    
C37   H24   S    
C17   C20   A    
C18   C19   A    
C28   H35   S    
C9    C13   A    
C15   O8    A    
C20   C24   A    
C33   H18   S    
C22   C25   A    
H13   N3    S    
Cu2   O3    S    
Cu2   O8    S    
C36   H27   S    
C40   C42   A    
C6    N1    A    
C37   H26   S    
C6    H10   S    
C4    C7    A    
C11   N2    A    
C1    O1    A    
Cu1   O6    S    
C30   C34   A    
C34   C39   A    
Cu1   O1    S    
H15   N4    S    
C32   H20   S    
C4    C6    A    
Cu2   N1    S    
C3    H7    S    
C25   C26   A    
C10   N2    A    
Cu1   Cu2   S    
C14   O5    A    
H14   N4    S    
C5    N1    A    
C31   C32   S    
C12   O4    A    
C17   H33   S    
C16   C18   A    
C9    C11   A    
C38   H3    S    
Cu2   O7    S    
C8    C10   A    
C15   C24   S    
C1    C23   S    
C33   H16   S    
C12   C34   S    
C25   H1    S    
C41   H6    S    
C31   H21   S    
C35   H29   S    
C16   H32   S    
Cu1   O2    S    
C30   H2    S    
C32   H19   S    
C3    C5    A    
C26   H12   S    
C2    C28   A    
C16   C21   A    
C23   C38   A    
C21   C22   A    
C12   O2    A    
C32   C33   S    
C14   C22   S    
C28   C30   A    
C11   H31   S    
C15   O6    A    
C38   C40   A    
C27   C42   A    
C29   H36   S    
C2    C42   S    
C17   C19   A    
C14   O7    A    
C9    N4    S    
C7    C13   S    
C20   C21   A    
C33   H17   S    
Cu1   N2    S    
C19   C35   S    
C18   C31   S    
Cu2   O4    S    
H11   N3    S    
C36   H28   S    
C39   H4    S    
