data_mof_unit_916.cif
_audit_creation_date              2012-12-11T14:52:48-0500
_audit_creation_method            fapswitch 2.2
_symmetry_space_group_name_H-M    P1
_symmetry_Int_Tables_number       1
_space_group_crystal_system       triclinic
_cell_length_a                    18.847077
_cell_length_b                    10.900139
_cell_length_c                    18.76947
_cell_angle_alpha                 89.699177
_cell_angle_beta                  91.239363
_cell_angle_gamma                 89.882472
_cell_volume                      3854.95609011

loop_
_atom_site_label
_atom_site_type_symbol
_atom_type_description
_atom_site_fract_x
_atom_site_fract_y
_atom_site_fract_z
_atom_type_partial_charge
C1    C     C_R   0.272223 0.042283 0.853636 0.538046
C2    C     C_R   0.725557 0.037692 0.144257 0.546367
C3    C     C_R   0.788780 0.500658 0.861323 0.538352
C4    C     C_R   0.210248 0.498331 0.138870 0.557654
C5    C     C_3   0.505692 0.727197 0.975889 -0.106162
C6    C     C_3   0.453596 0.725550 0.038124 -0.120307
C7    C     C_3   0.005312 0.222750 0.975535 -0.099287
C8    C     C_3   0.954127 0.226173 0.038475 -0.117681
C9    C     C_R   0.300687 0.523901 0.961696 -0.150093
C10   C     C_R   0.704560 0.509458 0.042087 -0.143316
C11   C     C_R   0.807165 0.039809 0.963522 -0.141680
C12   C     C_R   0.195906 0.034146 0.036249 -0.143270
C13   C     C_R   0.289288 0.495712 0.033101 -0.139371
C14   C     C_R   0.715576 0.480108 0.970763 -0.142777
C15   C     C_R   0.800522 0.026115 0.036892 -0.144815
C16   C     C_R   0.200380 0.019431 0.962711 -0.143879
C17   C     C_R   0.223095 0.520464 0.063275 0.027288
C18   C     C_R   0.774902 0.527629 0.935717 0.024142
C19   C     C_R   0.737411 0.061592 0.069223 0.031278
C20   C     C_R   0.254209 0.079463 0.925306 0.029225
C21   C     C_R   0.167384 0.565169 0.020171 -0.150598
C22   C     C_R   0.824336 0.598885 0.973273 -0.139496
C23   C     C_R   0.679332 0.101036 0.027010 -0.144684
C24   C     C_R   0.301547 0.156855 0.961490 -0.135706
C25   C     C_R   0.178274 0.591069 0.948989 -0.133927
C26   C     C_R   0.813877 0.626704 0.043434 -0.140287
C27   C     C_R   0.684921 0.109806 0.954291 -0.144497
C28   C     C_R   0.298979 0.167194 0.034177 -0.144538
C29   C     C_R   0.245706 0.575523 0.919823 0.029462
C30   C     C_R   0.753561 0.584377 0.078449 0.028606
C31   C     C_R   0.749760 0.085331 0.922298 0.031692
C32   C     C_R   0.246309 0.106325 0.072499 0.025856
C33   C     C_R   0.524974 0.728602 0.544791 -0.131849
C34   C     C_R   0.531580 0.724487 0.472070 -0.123054
C35   C     C_R   0.024980 0.228606 0.544793 -0.132431
C36   C     C_R   0.031585 0.224489 0.472071 -0.123200
C37   C     C_R   0.516010 0.828345 0.429878 0.036131
C38   C     C_R   0.499668 0.834987 0.576681 0.029393
C39   C     C_R   0.016011 0.328345 0.429878 0.035300
C40   C     C_R   0.999672 0.334988 0.576683 0.028610
C41   C     C_R   0.495982 0.938280 0.462040 -0.134626
C42   C     C_R   0.487185 0.941392 0.535458 -0.130155
C43   C     C_R   0.995980 0.438278 0.462040 -0.135044
C44   C     C_R   0.987185 0.441392 0.535459 -0.130350
C45   C     C_R   0.438218 0.816939 0.862342 0.564823
C46   C     C_R   0.526648 0.822164 0.146027 0.546832
C47   C     C_R   0.938656 0.316741 0.862430 0.543846
C48   C     C_R   0.027796 0.321793 0.145422 0.539463
C49   C     C_R   0.207252 0.685544 0.525757 -0.124097
C50   C     C_R   0.791930 0.686772 0.474053 -0.127334
C51   C     C_R   0.707276 0.185594 0.525746 -0.124282
C52   C     C_R   0.291902 0.186831 0.474065 -0.127527
C53   C     C_R   0.207737 0.679248 0.453124 -0.133622
C54   C     C_R   0.791192 0.680733 0.546687 -0.137821
C55   C     C_R   0.707759 0.179287 0.453113 -0.133542
C56   C     C_R   0.291166 0.180779 0.546701 -0.137644
C57   C     C_R   0.252303 0.594935 0.420836 0.032866
C58   C     C_R   0.747266 0.595639 0.579240 0.033989
C59   C     C_R   0.752312 0.094950 0.420829 0.033473
C60   C     C_R   0.247254 0.095659 0.579249 0.034773
C61   C     C_R   0.304392 0.531310 0.460874 -0.132650
C62   C     C_R   0.695909 0.530867 0.539407 -0.140253
C63   C     C_R   0.804395 0.031314 0.460870 -0.132175
C64   C     C_R   0.195903 0.030878 0.539413 -0.139506
C65   C     C_R   0.305663 0.540972 0.534310 -0.136375
C66   C     C_R   0.695155 0.539682 0.465956 -0.147131
C67   C     C_R   0.805668 0.040985 0.534305 -0.136102
C68   C     C_R   0.195148 0.039702 0.465963 -0.146952
C69   C     C_R   0.255170 0.614746 0.566969 0.040125
C70   C     C_R   0.744924 0.614654 0.433115 0.041803
C71   C     C_R   0.755182 0.114777 0.566961 0.039929
C72   C     C_R   0.244910 0.114692 0.433124 0.041198
C73   C     C_R   0.260167 0.634046 0.851266 0.538193
C74   C     C_R   0.739573 0.635920 0.148356 0.547710
C75   C     C_R   0.760560 0.134642 0.851287 0.535521
C76   C     C_R   0.238421 0.139735 0.146903 0.541568
C77   C     C_R   0.269806 0.049173 0.647632 0.551010
C78   C     C_R   0.730101 0.048822 0.352466 0.551158
C79   C     C_R   0.769807 0.549170 0.647631 0.561125
C80   C     C_R   0.230100 0.548819 0.352467 0.559924
C81   C     C_R   0.470684 0.824315 0.647409 0.559408
C82   C     C_R   0.533026 0.822899 0.354908 0.549416
C83   C     C_R   0.970686 0.324315 0.647410 0.559312
C84   C     C_R   0.033025 0.322899 0.354907 0.550169
C85   C     C_R   0.260957 0.641274 0.641689 0.553155
C86   C     C_R   0.739117 0.640998 0.358299 0.548814
C87   C     C_R   0.760961 0.141287 0.641684 0.555411
C88   C     C_R   0.239112 0.141013 0.358304 0.552177
C89   C     C_3   0.449609 0.927400 0.036544 -0.126164
C90   C     C_3   0.501474 0.928884 0.973578 -0.108905
C91   C     C_3   0.955089 0.427749 0.035698 -0.130530
C92   C     C_3   0.006097 0.424325 0.972137 -0.115526
C93   C     C_3   0.406527 0.823164 0.999782 -0.137833
C94   C     C_3   0.548309 0.831323 0.011669 -0.107522
C95   C     C_3   0.908894 0.326165 0.000333 -0.142485
C96   C     C_3   0.051013 0.324040 0.010220 -0.110592
C97   C     C_3   0.459092 0.824452 0.938327 0.050431
C98   C     C_3   0.496156 0.829496 0.073490 0.051148
C99   C     C_3   0.960541 0.322876 0.938097 0.049631
C100  C     C_3   0.999458 0.327650 0.072419 0.052859
Cr1   Cr    Cr6+3 0.229630 0.835900 0.747350 1.006601
Cr2   Cr    Cr6+3 0.770370 0.835900 0.252650 1.010005
Cr3   Cr    Cr6+3 0.729630 0.335900 0.747350 1.007371
Cr4   Cr    Cr6+3 0.270370 0.335900 0.252650 1.006749
Cr5   Cr    Cr6+3 0.387410 0.989850 0.750850 1.013690
Cr6   Cr    Cr6+3 0.612590 0.989850 0.249150 1.016142
Cr7   Cr    Cr6+3 0.887410 0.489850 0.750850 1.009956
Cr8   Cr    Cr6+3 0.112590 0.489850 0.249150 1.011600
Cr9   Cr    Cr6+3 0.385800 0.677120 0.749340 1.012353
Cr10  Cr    Cr6+3 0.614200 0.677120 0.250660 1.014448
Cr11  Cr    Cr6+3 0.885800 0.177120 0.749340 1.008599
Cr12  Cr    Cr6+3 0.114200 0.177120 0.250660 1.009773
H1    H     H_    0.347852 0.819631 0.993293 0.121353
H2    H     H_    0.607047 0.834916 0.017598 0.125659
H3    H     H_    0.850162 0.324550 0.995238 0.116994
H4    H     H_    0.109779 0.321727 0.015687 0.118632
H5    H     H_    0.168497 0.731847 0.422841 0.126707
H6    H     H_    0.829860 0.733987 0.576829 0.124562
H7    H     H_    0.668525 0.231894 0.422825 0.126137
H8    H     H_    0.329828 0.234040 0.576847 0.123917
H9    H     H_    0.340603 0.468141 0.436081 0.121745
H10   H     H_    0.660100 0.467059 0.564412 0.119232
H11   H     H_    0.840597 0.968123 0.436081 0.121586
H12   H     H_    0.160104 0.967048 0.564415 0.119160
H13   H     H_    0.345152 0.490353 0.565344 0.119145
H14   H     H_    0.656530 0.487731 0.435063 0.111444
H15   H     H_    0.845148 0.990351 0.565342 0.119503
H16   H     H_    0.156531 0.987735 0.435067 0.111753
H17   H     H_    0.426924 0.008975 0.062943 0.119228
H18   H     H_    0.521256 0.012033 0.946063 0.117509
H19   H     H_    0.937813 0.510941 0.064071 0.114708
H20   H     H_    0.026435 0.505579 0.943310 0.114716
H21   H     H_    0.353242 0.511698 0.940559 0.123897
H22   H     H_    0.657327 0.476789 0.067932 0.126834
H23   H     H_    0.857826 0.020415 0.939797 0.130108
H24   H     H_    0.153629 0.989333 0.064556 0.131035
H25   H     H_    0.332991 0.459358 0.065137 0.122860
H26   H     H_    0.677471 0.422415 0.942953 0.134712
H27   H     H_    0.844570 0.989380 0.068301 0.117169
H28   H     H_    0.163572 0.958222 0.935736 0.131853
H29   H     H_    0.115537 0.582241 0.041950 0.127844
H30   H     H_    0.871714 0.633830 0.948598 0.135915
H31   H     H_    0.628584 0.123259 0.049779 0.136943
H32   H     H_    0.343478 0.204773 0.934287 0.135286
H33   H     H_    0.134656 0.629961 0.917821 0.129137
H34   H     H_    0.852834 0.685277 0.069381 0.132297
H35   H     H_    0.639398 0.143266 0.923690 0.129238
H36   H     H_    0.337894 0.226050 0.059903 0.130548
H37   H     H_    0.535611 0.645854 0.575507 0.128669
H38   H     H_    0.549875 0.639455 0.449156 0.136174
H39   H     H_    0.035620 0.145860 0.575510 0.127964
H40   H     H_    0.049881 0.139459 0.449158 0.136089
H41   H     H_    0.486065 0.020277 0.430490 0.123117
H42   H     H_    0.467098 0.024548 0.559189 0.134846
H43   H     H_    0.986059 0.520274 0.430490 0.122914
H44   H     H_    0.967095 0.524546 0.559189 0.134645
O1    O     O_R   0.214270 0.709000 0.827470 -0.523381
O2    O     O_R   0.785730 0.709000 0.172530 -0.527782
O3    O     O_R   0.714270 0.209000 0.827470 -0.531429
O4    O     O_R   0.285730 0.209000 0.172530 -0.535213
O5    O     O_R   0.445950 0.919440 0.676520 -0.499705
O6    O     O_R   0.554050 0.919440 0.323480 -0.501562
O7    O     O_R   0.945950 0.419440 0.676520 -0.499204
O8    O     O_R   0.054050 0.419440 0.323480 -0.500463
O9    O     O_R   0.456730 0.717630 0.669840 -0.518923
O10   O     O_R   0.543270 0.717630 0.330160 -0.529150
O11   O     O_R   0.956730 0.217630 0.669840 -0.518464
O12   O     O_R   0.043270 0.217630 0.330160 -0.528218
O13   O     O_R   0.320620 0.625640 0.672920 -0.503717
O14   O     O_R   0.679380 0.625640 0.327080 -0.508820
O15   O     O_R   0.820620 0.125640 0.672920 -0.501318
O16   O     O_R   0.179380 0.125640 0.327080 -0.505570
O17   O     O_3   0.334280 0.834290 0.749180 -0.264235
O18   O     O_3   0.665720 0.834290 0.250820 -0.246023
O19   O     O_3   0.834280 0.334290 0.749180 -0.279832
O20   O     O_3   0.165720 0.334290 0.250820 -0.264514
O21   O     O_R   0.236160 0.958490 0.823130 -0.508507
O22   O     O_R   0.763840 0.958490 0.176870 -0.505963
O23   O     O_R   0.736160 0.458490 0.823130 -0.500237
O24   O     O_R   0.263840 0.458490 0.176870 -0.508138
O25   O     O_R   0.332080 0.075470 0.831280 -0.532984
O26   O     O_R   0.667920 0.075470 0.168720 -0.528166
O27   O     O_R   0.832080 0.575470 0.831280 -0.522358
O28   O     O_R   0.167920 0.575470 0.168720 -0.515800
O29   O     O_R   0.446300 0.918110 0.826620 -0.500860
O30   O     O_R   0.553700 0.918110 0.173380 -0.505952
O31   O     O_R   0.946300 0.418110 0.826620 -0.513406
O32   O     O_R   0.053700 0.418110 0.173380 -0.522389
O33   O     O_R   0.457110 0.716200 0.831760 -0.520497
O34   O     O_R   0.542890 0.716200 0.168240 -0.518154
O35   O     O_R   0.957110 0.216200 0.831760 -0.518099
O36   O     O_R   0.042890 0.216200 0.168240 -0.519860
O37   O     O_R   0.320980 0.624310 0.823030 -0.520902
O38   O     O_R   0.679020 0.624310 0.176970 -0.502482
O39   O     O_R   0.820980 0.124310 0.823030 -0.521183
O40   O     O_R   0.179020 0.124310 0.176970 -0.502865
O41   O     O_R   0.213890 0.710430 0.665540 -0.527532
O42   O     O_R   0.786110 0.710430 0.334460 -0.530172
O43   O     O_R   0.713890 0.210430 0.665540 -0.526712
O44   O     O_R   0.286110 0.210430 0.334460 -0.528401
O45   O     O_R   0.235810 0.959820 0.673020 -0.507468
O46   O     O_R   0.764190 0.959820 0.326980 -0.509014
O47   O     O_R   0.735810 0.459820 0.673020 -0.503229
O48   O     O_R   0.264190 0.459820 0.326980 -0.504886
O49   O     O_R   0.331700 0.076900 0.669350 -0.525585
O50   O     O_R   0.668300 0.076900 0.330650 -0.522680
O51   O     O_R   0.831700 0.576900 0.669350 -0.521684
O52   O     O_R   0.168300 0.576900 0.330650 -0.519524
H45   H     H_    0.169496 0.747450 0.549280 0.130798
H46   H     H_    0.829218 0.749410 0.450307 0.130036
H47   H     H_    0.669527 0.247514 0.549268 0.130685
H48   H     H_    0.329181 0.249484 0.450320 0.129915
H49   H     H_    0.529204 0.644977 0.950812 0.131422
H50   H     H_    0.433758 0.642491 0.065709 0.121238
H51   H     H_    0.026262 0.138322 0.950595 0.127056
H52   H     H_    0.933887 0.145528 0.067836 0.115979

loop_
_geom_bond_atom_site_label_1
_geom_bond_atom_site_label_2
_ccdc_geom_bond_type
C58   C62   A    
C74   O38   A    
Cr11  O35   S    
C88   O16   A    
C73   O37   A    
C65   H13   S    
C34   C37   A    
Cr4   O44   S    
C41   C42   A    
C14   C18   A    
Cr1   O17   S    
C35   C36   A    
C40   C83   S    
C87   O43   A    
Cr8   O52   S    
Cr3   O3    S    
Cr2   O2    S    
C1    O25   A    
C5    C94   S    
C34   H38   S    
C47   C99   S    
C7    C8    S    
C35   H39   S    
C55   H7    S    
C15   C19   A    
C7    C96   S    
Cr8   O8    S    
C10   H22   S    
C50   C54   A    
C7    C99   S    
Cr11  O19   S    
C64   C68   A    
C16   C20   A    
C92   H20   S    
Cr4   O4    S    
C39   C84   S    
C48   O32   A    
C11   H23   S    
Cr2   O42   S    
C82   O10   A    
C5    C6    S    
C30   C74   S    
C91   H19   S    
C53   H5    S    
C67   C71   A    
C29   C73   S    
C94   C98   S    
C95   C99   S    
Cr12  O12   S    
C73   O1    A    
C92   C96   S    
C89   H17   S    
C3    C18   S    
C61   H9    S    
C2    O26   A    
Cr1   O41   S    
Cr5   O29   S    
C26   H34   S    
C9    C13   A    
Cr6   O26   S    
C3    O23   A    
C76   O40   A    
C11   C15   A    
Cr12  O40   S    
C14   H26   S    
Cr9   O33   S    
Cr10  O38   S    
Cr9   O37   S    
C23   C27   A    
C91   C100  S    
Cr3   O47   S    
C68   H16   S    
C90   C97   S    
Cr7   O51   S    
C84   O8    A    
C9    C29   A    
Cr6   O6    S    
C46   C98   S    
C42   H42   S    
C11   C31   A    
C45   C97   S    
Cr5   O17   S    
C12   C32   A    
C89   C93   S    
C56   H8    S    
C57   C80   S    
C23   H31   S    
C16   H28   S    
C8    C95   S    
C1    O21   A    
C4    O24   A    
C41   H41   S    
C43   H43   S    
C59   C78   S    
C72   C88   S    
Cr9   O13   S    
C90   C94   S    
C15   H27   S    
Cr10  O18   S    
C25   C29   A    
C48   C100  S    
C63   C67   A    
C60   C77   S    
C28   H36   S    
Cr8   O28   S    
C27   C31   A    
C94   H2    S    
C12   C16   A    
C28   C32   A    
C62   C66   A    
Cr6   O30   S    
Cr4   O20   S    
C10   C14   A    
C95   H3    S    
C91   C92   S    
Cr1   O45   S    
C74   O2    A    
C36   H40   S    
C39   C43   A    
C82   O6    A    
C51   C55   A    
C78   O46   A    
C64   H12   S    
Cr3   O23   S    
C83   O11   A    
Cr10  O34   S    
C17   C21   A    
C66   H14   S    
Cr7   O27   S    
C13   H25   S    
Cr4   O24   S    
C19   C23   A    
C43   C44   A    
C78   O50   A    
Cr6   O50   S    
C52   C72   A    
C77   O49   A    
Cr12  O36   S    
C10   C30   A    
C44   H44   S    
C31   C75   S    
C6    H50   S    
C68   C72   A    
C6    C93   S    
C87   O15   A    
C22   H30   S    
Cr3   O19   S    
C33   C34   A    
Cr6   O18   S    
C75   O39   A    
Cr3   O43   S    
C4    O28   A    
C57   C61   A    
Cr12  O16   S    
C50   H46   S    
Cr9   O9    S    
C58   C79   S    
C86   O42   A    
C71   C87   S    
C4    C17   S    
Cr10  O14   S    
Cr4   O48   S    
C45   O33   A    
Cr12  O20   S    
C5    C97   S    
C26   C30   A    
C83   O7    A    
C79   O47   A    
C25   H33   S    
C54   H6    S    
C38   C81   S    
C12   H24   S    
C67   H15   S    
Cr2   O22   S    
Cr5   O5    S    
C37   C82   S    
Cr11  O11   S    
C47   O31   A    
C70   C86   S    
C6    C98   S    
C62   H10   S    
C69   C85   S    
C55   C59   A    
C54   C58   A    
C75   O3    A    
C21   C25   A    
C76   O4    A    
C1    C20   S    
C53   C57   A    
C80   O52   A    
C2    C19   S    
C18   C22   A    
C81   O5    A    
Cr8   O32   S    
C36   C39   A    
Cr8   O20   S    
C24   C28   A    
Cr7   O7    S    
C8    H52   S    
C77   O45   A    
C32   C76   S    
C63   H11   S    
C51   C71   A    
C47   O35   A    
Cr5   O49   S    
Cr2   O18   S    
C66   C70   A    
C59   C63   A    
C33   C38   A    
C13   C17   A    
C89   C98   S    
C60   C64   A    
C88   O44   A    
C35   C40   A    
C8    C100  S    
C21   H29   S    
C33   H37   S    
Cr10  O10   S    
C45   O29   A    
C46   O34   A    
Cr7   O19   S    
C86   O14   A    
C24   H32   S    
C65   C69   A    
C5    H49   S    
C96   C100  S    
C93   C97   S    
C91   C95   S    
C93   H1    S    
Cr9   O17   S    
C79   O51   A    
C61   C65   A    
C37   C41   A    
C85   O13   A    
C50   C70   A    
C48   O36   A    
C49   C53   A    
Cr1   O21   S    
Cr1   O1    S    
C90   H18   S    
C38   C42   A    
C51   H47   S    
C40   C44   A    
C56   C60   A    
C84   O12   A    
C46   O30   A    
Cr2   O46   S    
C27   H35   S    
C22   C26   A    
C49   H45   S    
C52   H48   S    
C81   O9    A    
C85   O41   A    
C96   H4    S    
Cr7   O31   S    
C49   C69   A    
C2    O22   A    
Cr5   O25   S    
C89   C90   S    
C80   O48   A    
C3    O27   A    
C20   C24   A    
C7    H51   S    
C52   C56   A    
C92   C99   S    
Cr11  O39   S    
Cr11  O15   S    
C9    H21   S    
