data_mof_unit_3018.cif
_audit_creation_date              2013-03-05T15:41:03-0500
_audit_creation_method            fapswitch 2.2
_symmetry_space_group_name_H-M    P1
_symmetry_Int_Tables_number       1
_space_group_crystal_system       triclinic
_cell_length_a                    10.992584
_cell_length_b                    10.947539
_cell_length_c                    18.565711
_cell_angle_alpha                 90.38864
_cell_angle_beta                  89.701989
_cell_angle_gamma                 60.012501
_cell_volume                      1935.00390731

loop_
_atom_site_label
_atom_site_type_symbol
_atom_site_description
_atom_site_fract_x
_atom_site_fract_y
_atom_site_fract_z
_atom_type_partial_charge
O1    O     O_R   0.507110 0.256280 0.580300 -0.514502
O2    O     O_R   0.280830 0.527190 0.577940 -0.503269
C1    C     C_R   0.231882 0.647623 0.607593 0.598999
O3    O     O_R   0.261360 0.738990 0.584270 -0.470698
O4    O     O_R   0.532590 0.694780 0.574370 -0.485824
C2    C     C_R   0.657478 0.626620 0.599040 0.562318
O5    O     O_R   0.744470 0.503750 0.577000 -0.476176
O6    O     O_R   0.698520 0.277230 0.571620 -0.454938
C3    C     C_R   0.629162 0.225329 0.601001 0.601938
O7    O     O_R   0.498530 0.256920 0.419280 -0.436941
O8    O     O_R   0.272880 0.527780 0.428680 -0.513810
C4    C     C_R   0.213395 0.652708 0.405583 0.561800
O9    O     O_R   0.252780 0.739630 0.423250 -0.445037
O10   O     O_R   0.524640 0.695370 0.425100 -0.479673
C5    C     C_R   0.641957 0.621779 0.392660 0.549358
O11   O     O_R   0.735890 0.504390 0.415980 -0.502959
O12   O     O_R   0.690560 0.277820 0.422350 -0.497975
C6    C     C_R   0.621524 0.222193 0.397707 0.574391
Cr1   Cr    Cr6+3 0.393010 0.398050 0.501480 1.080762
Cr2   Cr    Cr6+3 0.398820 0.707980 0.501630 1.121614
Cr3   Cr    Cr6+3 0.708140 0.393940 0.496850 1.112140
O13   O     O_3   0.499990 0.499990 0.499980 -0.277585
C7    C     C_3   0.623937 0.841205 0.772028 -0.256960
H1    H     H_    0.666653 0.914198 0.774497 0.122752
H2    H     H_    0.521972 0.892409 0.801826 0.168102
C8    C     C_3   0.596652 0.818479 0.692772 -0.283210
H3    H     H_    0.482657 0.861943 0.684256 0.191272
H4    H     H_    0.627850 0.879459 0.656935 0.109852
H5    H     H_    0.913756 0.703067 0.766744 0.114220
H6    H     H_    0.866989 0.683734 0.648633 0.101233
C9    C     C_3   0.868210 0.632733 0.762464 -0.257750
C10   C     C_3   0.666460 0.599892 0.803826 -0.135424
C11   C     C_3   0.729868 0.697479 0.806889 -0.019096
H7    H     H_    0.733756 0.499014 0.832228 0.177652
H8    H     H_    0.563493 0.651246 0.832848 0.135616
C12   C     C_3   0.683876 0.659061 0.672913 0.064150
C13   C     C_3   0.840838 0.616360 0.682546 -0.246724
C14   C     C_3   0.651182 0.566837 0.725489 0.531436
H9    H     H_    0.944754 0.527511 0.784039 0.155179
H10   H     H_    0.912895 0.505365 0.665201 0.187844
C15   C     C_2   0.677128 0.150359 0.669009 -0.092696
C16   C     C_2   0.691605 0.163255 0.826653 -0.089212
C17   C     C_2   0.803754 0.112077 0.782092 -0.143037
C18   C     C_2   0.786861 0.142256 0.704538 -0.089315
H11   H     H_    0.909123 0.043672 0.802021 0.142287
H12   H     H_    0.861879 0.163902 0.677613 0.201079
H13   H     H_    0.586617 0.232206 0.806359 0.143041
H14   H     H_    0.607940 0.120091 0.695517 0.087155
C19   C     C_2   0.169877 0.666760 0.679432 -0.065729
C20   C     C_2   0.190153 0.664256 0.837812 -0.096423
C21   C     C_2   0.189017 0.561283 0.798938 -0.160470
C22   C     C_2   0.206310 0.552552 0.720423 -0.108162
H15   H     H_    0.167642 0.484911 0.824424 0.142408
H16   H     H_    0.256566 0.447401 0.696645 0.168040
H17   H     H_    0.218652 0.736089 0.813376 0.170887
H18   H     H_    0.116260 0.772270 0.702785 0.100497
C23   C     C_2   0.649772 0.644586 0.316266 -0.108484
C24   C     C_2   0.629509 0.664229 0.158454 -0.102018
C25   C     C_2   0.691080 0.540464 0.192950 0.169551
C26   C     C_2   0.672027 0.537998 0.271145 -0.132820
H19   H     H_    0.687297 0.439387 0.293035 0.167698
H20   H     H_    0.546693 0.758065 0.185041 0.088491
H21   H     H_    0.632779 0.745617 0.297603 0.121754
C27   C     C_2   0.675919 0.136356 0.333723 -0.057758
C28   C     C_2   0.651724 0.143910 0.179754 -0.128841
C29   C     C_2   0.619799 0.064579 0.222355 -0.138105
C30   C     C_2   0.602282 0.087753 0.299401 0.333421
H22   H     H_    0.599534 0.984548 0.199827 0.161714
H23   H     H_    0.671848 0.225044 0.200326 0.131412
H24   H     H_    0.765648 0.134330 0.307757 0.116914
C31   C     C_2   0.116438 0.684102 0.346928 -0.097676
C32   C     C_2   0.111943 0.692245 0.191590 -0.115464
C33   C     C_2   0.032774 0.804524 0.234932 -0.136570
C34   C     C_2   0.060220 0.805935 0.311558 0.166499
H25   H     H_    0.954028 0.904186 0.212217 0.171984
H26   H     H_    0.192257 0.590612 0.211247 0.101530
H27   H     H_    0.112473 0.594562 0.323861 0.094046
O14   O     O_R   0.089190 0.825870 0.932320 -0.511305
O15   O     O_R   0.819070 0.053960 0.931440 -0.483049
C35   C     C_R   0.703666 0.101514 0.897383 0.535728
O16   O     O_R   0.607070 0.076440 0.916460 -0.524333
O17   O     O_R   0.647110 0.806550 0.917690 -0.501596
C36   C     C_R   0.757817 0.712953 0.883177 0.540323
O18   O     O_R   0.837080 0.593860 0.915300 -0.510582
O19   O     O_R   0.064770 0.636080 0.932550 -0.513551
C37   C     C_R   0.119281 0.705831 0.907415 0.527602
O20   O     O_R   0.068250 0.829200 0.092940 -0.487875
O21   O     O_R   0.799650 0.057040 0.080330 -0.457092
C38   C     C_R   0.675222 0.105732 0.104993 0.585969
O22   O     O_R   0.586130 0.079760 0.077080 -0.503984
O23   O     O_R   0.627700 0.809630 0.066580 -0.507772
C39   C     C_R   0.691380 0.687793 0.094168 0.580554
O24   O     O_R   0.816140 0.597180 0.075920 -0.438956
O25   O     O_R   0.045360 0.639170 0.081440 -0.488238
C40   C     C_R   0.087227 0.712854 0.115371 0.554550
Cr4   Cr    Cr6+3 0.937950 0.938450 0.008940 1.087940
Cr5   Cr    Cr6+3 0.626180 0.937030 0.994750 1.037894
Cr6   Cr    Cr6+3 0.937790 0.625760 0.001410 1.069957
O26   O     O_3   0.833980 0.833750 0.001700 -0.298592
F1    F     F_    0.749122 0.425674 0.713023 -0.645466
N1    N     N_R   0.779211 0.408856 0.155590 0.090549
O27   O     O_R   0.878077 0.302636 0.189925 -0.302123
O28   O     O_R   0.748730 0.388736 0.090510 -0.327360
F2    F     F_    0.499998 0.073149 0.333031 -0.588082
N2    N     N_R   0.037361 0.935126 0.344827 0.092833
O29   O     O_R   0.991357 0.965895 0.410975 -0.341395
O30   O     O_R   0.045040 0.030026 0.306361 -0.284531
N3    N     N_R   0.510796 0.586660 0.714882 0.092688
O31   O     O_R   0.399958 0.709364 0.725950 -0.440389
O32   O     O_R   0.496132 0.478056 0.701758 -0.322023

loop_
_geom_bond_atom_site_label_1
_geom_bond_atom_site_label_2
_geom_bond_distance
_ccdc_geom_bond_type
C24   H20   1.086875 S    
C29   H22   1.087787 S    
O21   Cr4   1.932911 S    
C16   C35   1.457079 S    
N1    O27   1.301404 A    
C5    C23   1.451312 S    
C33   C34   1.457358 S    
C32   H26   1.085129 S    
C1    C19   1.459909 S    
O4    Cr2   1.953929 S    
O19   C37   1.272486 A    
C28   C38   1.431218 S    
C4    O9    1.268703 A    
N2    O30   1.301382 A    
O8    Cr1   1.938427 S    
C8    H3    1.108472 S    
O11   Cr3   2.048882 S    
C12   C13   1.557448 S    
C13   H10   1.112445 S    
O4    C2    1.280019 A    
O25   Cr6   1.953530 S    
C5    O11   1.261308 A    
Cr6   O26   1.972121 S    
Cr4   O26   1.986729 S    
N3    O31   1.299526 A    
C7    C8    1.546345 S    
O19   Cr6   1.933021 S    
C32   C40   1.440206 S    
O14   Cr4   2.051795 S    
O6    C3    1.278514 A    
C7    C11   1.562282 S    
O20   C40   1.257681 A    
C7    H1    1.111718 S    
C9    C11   1.548166 S    
C23   H21   1.085188 S    
C27   H24   1.085741 S    
O22   Cr5   2.060260 S    
O14   C37   1.267195 A    
C29   C30   1.445994 S    
C25   C26   1.468058 S    
N1    O28   1.301947 A    
Cr3   O13   1.982156 S    
C33   H25   1.087889 S    
Cr5   O26   1.983981 S    
C18   H12   1.085692 S    
C30   F2    1.361368 S    
O12   C6    1.271952 A    
O1    Cr1   2.056050 S    
C21   C22   1.465328 S    
C25   N1    1.442105 S    
C27   C30   1.332548 D    
O10   Cr2   1.933078 S    
Cr1   O13   1.985229 S    
O1    C3    1.270932 A    
C14   F1    1.389348 S    
O23   C39   1.269286 A    
C32   C33   1.351196 D    
C23   C26   1.349988 D    
C20   C21   1.339769 D    
C24   C25   1.342998 D    
O5    Cr3   2.068996 S    
O12   Cr3   1.947040 S    
C9    C13   1.542443 S    
H6    C13   1.113292 S    
C26   H19   1.088241 S    
C21   H15   1.085687 S    
C10   H7    1.113647 S    
C17   C18   1.471299 S    
C10   H8    1.114000 S    
C17   H11   1.086483 S    
C36   O18   1.301955 A    
O7    Cr1   2.054189 S    
C19   C22   1.348460 D    
O20   Cr4   2.061608 S    
O6    Cr3   1.930865 S    
C22   H16   1.086318 S    
O23   Cr5   1.930314 S    
C11   C36   1.477298 S    
C8    C12   1.554350 S    
C4    C31   1.445990 S    
Cr2   O13   1.972248 S    
C28   C29   1.346871 D    
C10   C14   1.526591 S    
O17   Cr5   1.944355 S    
C16   C17   1.345671 D    
C1    O3    1.273340 A    
C31   H27   1.087838 S    
O9    Cr2   2.071204 S    
O2    Cr1   1.935538 S    
C8    H4    1.112878 S    
C35   O16   1.271641 A    
C31   C34   1.335755 D    
O8    C4    1.264455 A    
N3    O32   1.298852 A    
C2    O5    1.262495 A    
C19   H18   1.086089 S    
N2    O29   1.301935 A    
C3    C15   1.460904 S    
C20   H17   1.082599 S    
O18   Cr6   2.073806 S    
C10   C11   1.540904 S    
C12   C14   1.572815 S    
O2    C1    1.268391 A    
O15   Cr4   1.941502 S    
H5    C9    1.111216 S    
C34   N2    1.440908 S    
C6    C27   1.437886 S    
O16   Cr5   2.049115 S    
O7    C6    1.269413 A    
C28   H23   1.084639 S    
C39   O24   1.268980 A    
C15   C18   1.341677 D    
C15   H14   1.086592 S    
C2    C12   1.480502 S    
C16   H13   1.086841 S    
C7    H2    1.112609 S    
C14   N3    1.461621 S    
O25   C40   1.275369 A    
C20   C37   1.452947 S    
O15   C35   1.277793 A    
O3    Cr2   2.051468 S    
O21   C38   1.275144 A    
O17   C36   1.295365 A    
C9    H9    1.111860 S    
O10   C5    1.273439 A    
C38   O22   1.261020 A    
C24   C39   1.457643 S    
O24   Cr6   2.050512 S    
