data_mof_unit_3616.cif
_audit_creation_date              2012-12-11T14:40:47-0500
_audit_creation_method            fapswitch 2.2
_symmetry_space_group_name_H-M    P1
_symmetry_Int_Tables_number       1
_space_group_crystal_system       triclinic
_cell_length_a                    24.754206
_cell_length_b                    17.71971
_cell_length_c                    15.337598
_cell_angle_alpha                 90.81004
_cell_angle_beta                  128.741912
_cell_angle_gamma                 89.549768
_cell_volume                      5246.85041516

loop_
_atom_site_label
_atom_site_type_symbol
_atom_type_description
_atom_site_fract_x
_atom_site_fract_y
_atom_site_fract_z
_atom_type_partial_charge
C1    C     C_R   0.335430 0.388907 0.200299 -0.134377
C2    C     C_R   0.680431 0.613319 0.488875 0.090398
C3    C     C_1   0.153867 0.248603 0.972017 0.285970
C4    C     C_1   0.428050 0.353338 0.703509 0.070992
C5    C     C_1   0.401513 0.549443 0.690464 0.133391
C6    C     C_1   0.928037 0.853341 0.703507 0.071044
C7    C     C_1   0.901515 0.049431 0.690461 0.133454
C8    C     C_1   0.229514 0.373845 0.496850 0.181562
C9    C     C_1   0.253246 0.589783 0.625747 0.250856
C10   C     C_1   0.729512 0.873887 0.496932 0.181446
C11   C     C_1   0.753298 0.089798 0.625846 0.250905
C12   C     C_R   0.156725 0.833495 0.492123 0.031946
C13   C     C_R   0.180436 0.113311 0.488873 0.090357
C14   C     C_R   0.343011 0.333333 0.495517 0.122421
C15   C     C_R   0.316289 0.601313 0.504781 -0.021781
C16   C     C_R   0.842965 0.833378 0.495507 0.122337
C17   C     C_R   0.816293 0.101311 0.504792 -0.021749
C18   C     C_3   0.269052 0.302984 0.547212 -0.176430
C19   C     C_3   0.279620 0.659846 0.613248 -0.200392
C20   C     C_3   0.769028 0.803008 0.547235 -0.176418
C21   C     C_R   0.338263 0.618709 0.210082 -0.086794
C22   C     C_3   0.779647 0.159856 0.613290 -0.200409
C23   C     C_3   0.723038 0.742120 0.540214 -0.502492
C24   C     C_3   0.741386 0.230518 0.610530 -0.498536
C25   C     C_3   0.223084 0.242091 0.540238 -0.502574
C26   C     C_3   0.241362 0.730507 0.610496 -0.498537
C27   C     C_3   0.239970 0.252813 0.367698 -0.501835
C28   C     C_3   0.198213 0.650579 0.401755 -0.529589
C29   C     C_3   0.739915 0.752874 0.367686 -0.501735
C30   C     C_3   0.698209 0.150546 0.401798 -0.529637
C31   C     C_3   0.345219 0.201691 0.548888 0.169897
C32   C     C_R   0.835435 0.888893 0.200308 -0.134297
C33   C     C_3   0.304814 0.740307 0.510181 0.191582
C34   C     C_3   0.845179 0.701731 0.548831 0.169903
C35   C     C_3   0.804796 0.240302 0.510156 0.191607
C36   C     C_3   0.300245 0.273663 0.490523 -0.049900
C37   C     C_3   0.275122 0.660731 0.506973 -0.032155
C38   C     C_3   0.800204 0.773707 0.490509 -0.049907
C39   C     C_3   0.775125 0.160722 0.506989 -0.032159
C40   C     C_3   0.724572 0.668298 0.484818 -0.198048
C41   C     C_3   0.697417 0.270152 0.492247 -0.202378
C42   C     C_3   0.224594 0.168269 0.484820 -0.198047
C43   C     C_R   0.838262 0.118709 0.210082 -0.086781
C44   C     C_3   0.197426 0.770171 0.492238 -0.202376
C45   C     C_3   0.694961 0.690540 0.360678 0.812981
C46   C     C_3   0.650204 0.204638 0.403568 0.824907
C47   C     C_3   0.194988 0.190514 0.360685 0.813063
C48   C     C_3   0.150208 0.704678 0.403512 0.824872
C49   C     C_R   0.663204 0.383669 0.789905 -0.158191
C50   C     C_R   0.654470 0.633359 0.766965 -0.158382
C51   C     C_R   0.163205 0.883671 0.789906 -0.158197
C52   C     C_R   0.154468 0.133361 0.766965 -0.158371
C53   C     C_3   0.802829 0.641147 0.556119 0.700326
C54   C     C_R   0.640966 0.357318 0.846465 0.026736
C55   C     C_3   0.751517 0.302422 0.479001 0.691305
C56   C     C_3   0.302845 0.141095 0.556108 0.700351
C57   C     C_3   0.251553 0.802444 0.479059 0.691306
C58   C     C_2   0.672500 0.293484 0.922346 -0.062151
C59   C     C_2   0.657627 0.739824 0.881624 -0.009198
C60   C     C_2   0.172509 0.793496 0.922364 -0.062155
C61   C     C_2   0.157630 0.239816 0.881642 -0.009249
C62   C     C_2   0.705634 0.241715 0.906168 -0.063661
C63   C     C_2   0.696456 0.786650 0.872603 -0.061350
C64   C     C_2   0.205635 0.741720 0.906177 -0.063684
C65   C     C_R   0.626082 0.672889 0.807966 -0.043729
C66   C     C_2   0.196447 0.286652 0.872606 -0.061372
C67   C     C_2   0.316619 0.683717 0.045333 0.494200
C68   C     C_2   0.310960 0.336114 0.023379 0.482693
C69   C     C_2   0.816618 0.183718 0.045334 0.494188
C70   C     C_2   0.810975 0.836083 0.023403 0.482695
C71   C     C_2   0.247821 0.683744 0.987462 -0.288671
C72   C     C_2   0.241952 0.342282 0.960685 -0.294739
C73   C     C_2   0.747820 0.183740 0.987456 -0.288638
C74   C     C_2   0.741967 0.842272 0.960691 -0.294775
C75   C     C_R   0.601230 0.373829 0.402054 0.548629
C76   C     C_R   0.140969 0.857324 0.846472 0.026705
C77   C     C_R   0.612246 0.596680 0.401294 0.502205
C78   C     C_R   0.101239 0.873844 0.402052 0.548554
C79   C     C_R   0.112247 0.096682 0.401294 0.502257
C80   C     C_R   0.400755 0.367958 0.590678 -0.025076
C81   C     C_R   0.384148 0.588557 0.594109 0.095251
C82   C     C_R   0.900725 0.867985 0.590673 -0.025141
C83   C     C_R   0.884152 0.088558 0.594116 0.095148
C84   C     C_R   0.673457 0.368847 0.588656 -0.111537
C85   C     C_R   0.688048 0.598407 0.585570 -0.175957
C86   C     C_R   0.173465 0.868857 0.588655 -0.111531
C87   C     C_R   0.126082 0.172884 0.807976 -0.043731
C88   C     C_R   0.188048 0.098405 0.585569 -0.175966
C89   C     C_R   0.327358 0.369865 0.404054 -0.094269
C90   C     C_R   0.311448 0.590132 0.411134 -0.009777
C91   C     C_R   0.827319 0.869904 0.404047 -0.094233
C92   C     C_R   0.811448 0.090132 0.411140 -0.009763
C93   C     C_R   0.577676 0.390880 0.801430 0.399169
C94   C     C_R   0.565496 0.635522 0.770984 0.522281
C95   C     C_R   0.077678 0.890884 0.801435 0.399171
C96   C     C_R   0.065500 0.135511 0.770999 0.522266
C97   C     C_R   0.423922 0.389326 0.196789 0.047007
C98   C     C_R   0.656713 0.333475 0.492126 0.031924
C99   C     C_R   0.427429 0.619108 0.205890 0.014432
C100  C     C_R   0.923931 0.889307 0.196806 0.046917
C101  C     C_R   0.927427 0.119110 0.205889 0.014466
C102  C     C_R   0.355640 0.367660 0.137512 -0.032930
C103  C     C_R   0.360095 0.644308 0.151725 -0.037754
C104  C     C_R   0.855651 0.867637 0.137531 -0.032899
C105  C     C_R   0.860093 0.144309 0.151726 -0.037774
C106  C     C_1   0.667021 0.286938 0.010657 0.298706
C107  C     C_1   0.653853 0.748621 0.971986 0.285957
C108  C     C_1   0.167049 0.786967 0.010699 0.298717
Cl1   Cl    Cl    0.608193 0.729858 0.276881 -0.554731
Cl2   Cl    Cl    0.798377 0.381151 0.572097 -0.464463
Cl3   Cl    Cl    0.345452 0.130259 0.702843 -0.575276
Cl4   Cl    Cl    0.298432 0.881135 0.572230 -0.464489
Cl5   Cl    Cl    0.808821 0.548926 0.513456 -0.294845
Cl6   Cl    Cl    0.712911 0.335677 0.341359 -0.354793
Cl7   Cl    Cl    0.308809 0.048895 0.513367 -0.294798
Cl8   Cl    Cl    0.212977 0.835764 0.341462 -0.354695
Cl9   Cl    Cl    0.696004 0.615010 0.281479 -0.355627
Cl10  Cl    Cl    0.582428 0.225936 0.260058 -0.448079
Cl11  Cl    Cl    0.195980 0.114985 0.281437 -0.355657
Cl12  Cl    Cl    0.603183 0.155497 0.439407 -0.547985
Cl13  Cl    Cl    0.082464 0.726003 0.260000 -0.448101
Cl14  Cl    Cl    0.356785 0.738272 0.004396 -0.559254
Cl15  Cl    Cl    0.349585 0.279888 0.979556 -0.531022
Cl16  Cl    Cl    0.856785 0.238278 0.004403 -0.559275
Cl17  Cl    Cl    0.849601 0.779834 0.979604 -0.530941
Cl18  Cl    Cl    0.577373 0.390087 0.269889 -0.425431
Cl19  Cl    Cl    0.577056 0.562483 0.267666 -0.461239
Cl20  Cl    Cl    0.077403 0.890141 0.269908 -0.425416
Cl21  Cl    Cl    0.077031 0.062526 0.267638 -0.461266
Cl22  Cl    Cl    0.566694 0.435950 0.892232 -0.542883
Cl23  Cl    Cl    0.108241 0.229885 0.276931 -0.554718
Cl24  Cl    Cl    0.514379 0.662894 0.808656 -0.601950
Cl25  Cl    Cl    0.066692 0.935960 0.892231 -0.542826
Cl26  Cl    Cl    0.014430 0.162808 0.808783 -0.601878
Cl27  Cl    Cl    0.103148 0.655535 0.439274 -0.547984
Cl28  Cl    Cl    0.882681 0.668891 0.485084 -0.461326
Cl29  Cl    Cl    0.843237 0.251510 0.441981 -0.497349
Cl30  Cl    Cl    0.382792 0.168855 0.485250 -0.461335
Cl31  Cl    Cl    0.343249 0.751514 0.441994 -0.497328
Cl32  Cl    Cl    0.845447 0.630380 0.702875 -0.575381
H1    H     H_    0.283276 0.389966 0.172890 0.095801
H2    H     H_    0.781715 0.269784 0.676843 0.222221
H3    H     H_    0.241581 0.232108 0.626453 0.222817
H4    H     H_    0.281691 0.769755 0.676846 0.222232
H5    H     H_    0.168731 0.261888 0.493883 0.234735
H6    H     H_    0.208889 0.716557 0.635266 0.237459
H7    H     H_    0.668680 0.761918 0.493809 0.234726
H8    H     H_    0.708935 0.216574 0.635345 0.237459
H9    H     H_    0.208397 0.304011 0.323400 0.201493
H10   H     H_    0.181077 0.591109 0.392748 0.219911
H11   H     H_    0.708333 0.804074 0.323433 0.201504
H12   H     H_    0.287562 0.622815 0.188301 0.108072
H13   H     H_    0.681090 0.091072 0.392828 0.219911
H14   H     H_    0.391404 0.217237 0.634590 0.132666
H15   H     H_    0.351586 0.749775 0.598700 0.157037
H16   H     H_    0.891394 0.717264 0.634511 0.132669
H17   H     H_    0.851565 0.249794 0.598672 0.156967
H18   H     H_    0.260490 0.236369 0.323082 0.236574
H19   H     H_    0.194460 0.662718 0.327241 0.217085
H20   H     H_    0.760410 0.736467 0.323022 0.236543
H21   H     H_    0.694431 0.162673 0.327260 0.217092
H22   H     H_    0.714162 0.377191 0.813325 0.157207
H23   H     H_    0.783281 0.889941 0.172899 0.095797
H24   H     H_    0.702891 0.644518 0.783124 0.161677
H25   H     H_    0.214163 0.877192 0.813324 0.157217
H26   H     H_    0.202887 0.144523 0.783122 0.161668
H27   H     H_    0.223167 0.649571 0.011733 0.123597
H28   H     H_    0.219123 0.377732 0.988182 0.125893
H29   H     H_    0.723166 0.149564 0.011725 0.123591
H30   H     H_    0.719139 0.877736 0.988175 0.125905
H31   H     H_    0.708269 0.246729 0.838363 0.166147
H32   H     H_    0.701577 0.777538 0.807861 0.169151
H33   H     H_    0.208259 0.746725 0.838358 0.166143
H34   H     H_    0.787561 0.122813 0.188301 0.108080
H35   H     H_    0.201559 0.277548 0.807853 0.169161
H36   H     H_    0.717830 0.359078 0.674221 0.148431
H37   H     H_    0.734000 0.601595 0.671345 0.207829
H38   H     H_    0.217839 0.859089 0.674219 0.148462
H39   H     H_    0.234000 0.101599 0.671344 0.207816
H40   H     H_    0.284188 0.362485 0.316700 0.103854
H41   H     H_    0.265425 0.589685 0.324597 0.103916
H42   H     H_    0.784137 0.862547 0.316693 0.103830
H43   H     H_    0.765424 0.089693 0.324604 0.103934
H44   H     H_    0.448329 0.393978 0.158988 0.202547
H45   H     H_    0.310541 0.315100 0.636989 0.159769
H46   H     H_    0.455729 0.623614 0.174334 0.212607
H47   H     H_    0.948350 0.893937 0.159020 0.202563
H48   H     H_    0.955721 0.123617 0.174324 0.212617
H49   H     H_    0.334518 0.664811 0.689883 0.171862
H50   H     H_    0.810527 0.815084 0.637019 0.159845
H51   H     H_    0.834550 0.164835 0.689907 0.171865
H52   H     H_    0.741501 0.732143 0.626413 0.222810
N1    N     N_R   0.389430 0.421450 0.294590 -0.046455
N2    N     N_R   0.581780 0.577610 0.443390 -0.106768
N3    N     N_R   0.081780 0.922390 0.443390 -0.109795
N4    N     N_R   0.081780 0.077610 0.443390 -0.106771
N5    N     N_R   0.419850 0.423100 0.556610 -0.074236
N6    N     N_R   0.419850 0.576900 0.556610 -0.054416
N7    N     N_R   0.919850 0.923100 0.556610 -0.074212
N8    N     N_R   0.919850 0.076900 0.556610 -0.054435
N9    N     N_R   0.627410 0.423100 0.556610 -0.074291
N10   N     N_R   0.627410 0.576900 0.556610 -0.081948
N11   N     N_R   0.127410 0.923100 0.556610 -0.074295
N12   N     N_R   0.389430 0.578550 0.294590 -0.048878
N13   N     N_R   0.127410 0.076900 0.556610 -0.081946
N14   N     N_R   0.374220 0.422390 0.443390 -0.067154
N15   N     N_R   0.374220 0.577610 0.443390 -0.042269
N16   N     N_R   0.874220 0.922390 0.443390 -0.067127
N17   N     N_R   0.874220 0.077610 0.443390 -0.042275
N18   N     N_R   0.555000 0.424040 0.705410 -0.089860
N19   N     N_R   0.555000 0.575960 0.705410 -0.090927
N20   N     N_R   0.055000 0.924040 0.705410 -0.089860
N21   N     N_R   0.055000 0.075960 0.705410 -0.090924
N22   N     N_R   0.446630 0.421450 0.294590 -0.068437
N23   N     N_R   0.889430 0.921450 0.294590 -0.046460
N24   N     N_R   0.446630 0.578550 0.294590 -0.064775
N25   N     N_R   0.946630 0.921450 0.294590 -0.068436
N26   N     N_R   0.946630 0.078550 0.294590 -0.064769
N27   N     N_1   0.662658 0.281560 0.081156 0.054709
N28   N     N_1   0.651121 0.755687 0.044296 -0.000785
N29   N     N_1   0.162702 0.781603 0.081217 0.054719
N30   N     N_1   0.151144 0.255661 0.044337 -0.000781
N31   N     N_1   0.447193 0.338954 0.792177 0.038166
N32   N     N_1   0.414906 0.518567 0.767781 0.016172
N33   N     N_1   0.947198 0.838929 0.792177 0.038185
N34   N     N_R   0.889430 0.078550 0.294590 -0.048886
N35   N     N_1   0.914905 0.018541 0.767768 0.016177
N36   N     N_1   0.198365 0.428897 0.456242 -0.048893
N37   N     N_1   0.232918 0.535187 0.636906 -0.041435
N38   N     N_1   0.698379 0.928951 0.456363 -0.048915
N39   N     N_1   0.732989 0.035207 0.637056 -0.041433
N40   N     N_R   0.612200 0.424040 0.705410 -0.065082
N41   N     N_R   0.612200 0.575960 0.705410 -0.066205
N42   N     N_R   0.112200 0.924040 0.705410 -0.065083
N43   N     N_R   0.112200 0.075960 0.705410 -0.066203
N44   N     N_R   0.581780 0.422390 0.443390 -0.109789
Ni1   Ni    Ni4+2 0.382890 0.500000 0.370170 0.214112
Ni2   Ni    Ni4+2 0.882890 0.000000 0.370170 0.214115
Ni3   Ni    Ni4+2 0.618740 0.500000 0.629830 0.260228
Ni4   Ni    Ni4+2 0.118740 0.000000 0.629830 0.260229
Ni5   Ni    Ni4+2 0.514090 0.500000 0.370170 0.314218
Ni6   Ni    Ni4+2 0.014090 0.000000 0.370170 0.314219
Ni7   Ni    Ni4+2 0.487550 0.500000 0.629830 0.293131
Ni8   Ni    Ni4+2 0.987550 0.000000 0.629830 0.293138

loop_
_geom_bond_atom_site_label_1
_geom_bond_atom_site_label_2
_ccdc_geom_bond_type
C84   N9    A    
C58   C62   D    
C7    C83   S    
C13   C79   A    
C28   H10   S    
N34   Ni2   S    
N2    Ni5   S    
C50   N41   A    
C53   Cl32  S    
C59   C107  S    
N43   Ni4   S    
C48   Cl27  S    
C99   C103  A    
C10   N38   T    
C88   N13   A    
C78   Cl20  S    
C91   N16   A    
C92   N17   A    
C26   C44   S    
N1    N22   A    
C15   C81   A    
C27   H18   S    
C90   H41   S    
C62   H31   S    
C18   C25   S    
C7    N35   T    
N10   Ni3   S    
C51   N42   A    
C6    C82   S    
C95   N20   A    
C68   C102  S    
N18   Ni7   S    
C4    C80   S    
C83   N8    A    
N23   N25   A    
C76   C95   A    
C20   H50   S    
C43   H34   S    
C45   Cl1   S    
C64   C71   S    
C57   Cl4   S    
N3    N11   A    
C99   N24   A    
C22   C39   S    
C45   Cl9   S    
C49   C54   A    
C79   Cl21  S    
C32   H23   S    
C100  C104  A    
C20   C38   S    
C46   Cl10  S    
C2    C85   A    
C9    N37   T    
C43   C105  A    
C21   H12   S    
N4    N13   A    
C26   H6    S    
C19   C26   S    
C17   C39   S    
N25   Ni6   S    
C15   C37   S    
C54   C93   A    
C19   C37   S    
C52   H26   S    
C32   N23   A    
C60   C64   D    
C101  N26   A    
C9    C19   S    
C30   H13   S    
C66   C72   S    
C10   C20   S    
C41   C98   S    
C12   C78   A    
C29   C38   S    
C70   C74   D    
N40   Ni3   S    
C33   C57   S    
C41   C46   S    
C32   C104  A    
C62   C73   S    
C69   C73   D    
C29   C45   S    
C14   C80   A    
C31   C56   S    
C29   H20   S    
C101  H48   S    
C61   C87   S    
N8    Ni8   S    
C56   Cl3   S    
C67   C71   D    
C97   C102  A    
C77   Cl19  S    
C43   N34   A    
C42   C47   S    
C42   C56   S    
C47   Cl11  S    
C106  N27   T    
C94   N19   A    
C27   H9    S    
C71   H27   S    
C24   C41   S    
C72   H28   S    
C21   N12   A    
N5    N14   A    
C25   H3    S    
C17   C92   A    
C86   H38   S    
C26   H4    S    
C61   C66   D    
C68   Cl15  S    
C13   C42   S    
C50   C65   A    
C53   Cl5   S    
N7    Ni8   S    
N9    Ni3   S    
C57   Cl8   S    
C3    C61   S    
C101  C105  A    
C40   C45   S    
C35   C55   S    
N19   Ni7   S    
C100  H47   S    
N17   Ni2   S    
C24   H8    S    
N16   Ni2   S    
C81   N6    A    
C89   H40   S    
C23   C40   S    
C69   C105  S    
N9    N44   A    
C96   Cl26  S    
C69   Cl16  S    
C67   C103  S    
C50   H24   S    
C60   C76   S    
C75   C98   A    
C94   Cl24  S    
C79   N4    A    
N19   N41   A    
N26   Ni6   S    
N4    Ni6   S    
C58   C106  S    
N44   Ni5   S    
N13   Ni4   S    
C35   C39   S    
C77   N2    A    
C35   H17   S    
C14   C89   A    
C29   H11   S    
C5    C81   S    
C89   N14   A    
C20   C23   S    
C34   Cl28  S    
C44   C57   S    
C68   C72   D    
C87   C96   A    
C16   C82   A    
C49   H22   S    
C33   Cl31  S    
C46   Cl12  S    
C75   N44   A    
C1    N1    A    
N23   Ni2   S    
N42   Ni4   S    
C51   C76   A    
C31   Cl30  S    
N1    Ni1   S    
N11   Ni4   S    
C24   H2    S    
C19   H49   S    
C85   N10   A    
C70   Cl17  S    
C65   C94   A    
C55   Cl6   S    
N3    Ni6   S    
C100  N25   A    
C3    N30   T    
C97   N22   A    
N22   Ni5   S    
C55   Cl2   S    
N6    Ni7   S    
C22   C24   S    
C66   H35   S    
C51   H25   S    
C8    C18   S    
C73   H29   S    
C93   Cl22  S    
C67   Cl14  S    
C48   Cl13  S    
C31   H14   S    
C90   N15   A    
C97   H44   S    
C54   C58   S    
C27   C47   S    
N24   Ni5   S    
C28   C48   S    
C11   N39   T    
C11   C22   S    
N6    N15   A    
C34   C38   S    
C30   C46   S    
N21   Ni8   S    
N8    N17   A    
N12   Ni1   S    
C92   H43   S    
C60   C108  S    
C25   C42   S    
N20   N42   A    
C33   H15   S    
C34   C53   S    
C63   C74   S    
C34   H16   S    
C27   C36   S    
C95   Cl25  S    
C4    N31   T    
N12   N24   A    
C18   H45   S    
C59   C63   D    
C88   H39   S    
C12   C86   A    
C52   C87   A    
C75   Cl18  S    
C84   C98   A    
C49   N40   A    
C64   H33   S    
C82   N7    A    
N20   Ni8   S    
C2    C77   A    
N21   N43   A    
C59   C65   S    
C15   C90   A    
C14   C36   S    
C108  N29   T    
C63   H32   S    
C23   H7    S    
C28   C37   S    
C8    N36   T    
C41   C55   S    
C80   N5    A    
C1    C102  A    
C13   C88   A    
N7    N16   A    
C56   Cl7   S    
N5    Ni7   S    
C30   C39   S    
N14   Ni1   S    
C70   C104  S    
C78   N3    A    
C28   H19   S    
N41   Ni3   S    
C23   H52   S    
C33   C37   S    
C74   H30   S    
C1    H1    S    
C96   N21   A    
C107  N28   T    
C21   C103  A    
C2    C40   S    
C5    N32   T    
C16   C91   A    
C85   H37   S    
C40   C53   S    
C91   H42   S    
C47   Cl23  S    
C93   N18   A    
N18   N40   A    
C31   C36   S    
C12   C44   S    
C25   H5    S    
C6    N33   T    
C30   H21   S    
C17   C83   A    
C22   H51   S    
C84   H36   S    
N15   Ni1   S    
C18   C36   S    
C86   N11   A    
N26   N34   A    
C99   H46   S    
C35   Cl29  S    
C44   C48   S    
C52   N43   A    
C16   C38   S    
N2    N10   A    
