data_mof_unit_4817.cif
_audit_creation_date              2012-12-10T20:30:10-0500
_audit_creation_method            fapswitch 2.2
_symmetry_space_group_name_H-M    P1
_symmetry_Int_Tables_number       1
_space_group_crystal_system       triclinic
_cell_length_a                    9.995205
_cell_length_b                    10.652663
_cell_length_c                    13.12002
_cell_angle_alpha                 91.482475
_cell_angle_beta                  71.300395
_cell_angle_gamma                 88.899088
_cell_volume                      1322.21805059

loop_
_atom_site_label
_atom_site_type_symbol
_atom_type_description
_atom_site_fract_x
_atom_site_fract_y
_atom_site_fract_z
_atom_type_partial_charge
C1    C     C_R   0.504390 0.738515 0.488562 0.920834
C2    C     C_R   0.435470 0.446756 0.977097 -0.121485
C3    C     C_R   0.474623 0.415180 0.865915 -0.164897
C4    C     C_R   0.544330 0.444971 0.025068 0.068543
C5    C     C_R   0.672970 0.377777 0.971972 -0.109854
C6    C     C_R   0.698500 0.326206 0.868464 0.513426
C7    C     C_R   0.602305 0.347792 0.814476 0.546952
C8    C     C_R   0.529774 0.505862 0.124202 -0.102416
C9    C     C_R   0.747704 0.408796 0.128219 -0.076763
C10   C     C_R   0.376931 0.438053 0.811950 -0.215451
C11   C     C_R   0.393589 0.936327 0.466130 0.007922
C12   C     C_R   0.423541 0.479607 0.700335 0.992595
C13   C     C_R   0.516395 0.867982 0.458758 -0.156846
C14   C     C_R   0.646526 0.930898 0.432140 -0.036575
C15   C     C_R   0.641448 0.061387 0.445739 -0.167654
C16   C     C_R   0.511221 0.126921 0.476107 -0.189207
C17   C     C_R   0.391049 0.064680 0.474428 0.093047
C18   C     C_3   0.247474 0.069575 0.556463 0.517337
C19   C     C_3   0.250158 0.928199 0.546279 -0.452879
C20   C     C_R   0.900889 0.588428 0.559481 0.189252
C21   C     C_R   0.957206 0.409904 0.443644 -0.023216
C22   C     C_R   0.098733 0.410824 0.445385 -0.035949
C23   C     C_R   0.502417 0.259715 0.496515 0.926209
C24   C     C_R   0.043982 0.590219 0.558816 0.109229
C25   C     C_3   0.994282 0.606423 0.679987 -0.331549
C26   C     C_3   0.842425 0.599534 0.679217 -0.349909
C27   C     C_R   0.577975 0.500261 0.296132 0.884713
C28   C     C_R   0.772496 0.359810 0.024785 -0.033172
C29   C     C_R   0.624327 0.479110 0.179574 -0.087763
C30   C     C_R   0.234169 0.423137 0.869128 -0.141537
C31   C     C_R   0.189601 0.451429 0.979606 0.603502
C32   C     C_R   0.288125 0.468371 0.034277 -0.088077
H1    H     H_    0.822632 0.387166 0.168924 0.248647
H2    H     H_    0.737891 0.110575 0.435558 0.216922
H3    H     H_    0.246043 0.106111 0.636846 0.082277
H4    H     H_    0.254242 0.882770 0.620476 0.180637
H5    H     H_    0.172993 0.890270 0.509219 0.278580
H6    H     H_    0.175049 0.338746 0.402386 0.250567
H7    H     H_    0.023464 0.524613 0.719095 0.222948
H8    H     H_    0.793428 0.511106 0.713001 0.165344
H9    H     H_    0.866052 0.302420 0.988638 0.253561
H10   H     H_    0.443429 0.571685 0.161447 0.149445
N1    N     N_R   0.856940 0.500860 0.500710 -0.145213
N2    N     N_R   0.142580 0.500820 0.500710 -0.126698
O1    O     O_R   0.385310 0.683210 0.499990 -0.623755
O2    O     O_R   0.614650 0.683240 0.500000 -0.578556
O3    O     O_R   0.328390 0.499940 0.653610 -0.571093
O4    O     O_R   0.557730 0.499980 0.653620 -0.602458
O5    O     O_R   0.385350 0.316760 0.500000 -0.596074
O6    O     O_R   0.614690 0.316790 0.500010 -0.554091
O7    O     O_R   0.442270 0.500020 0.346380 -0.614079
O8    O     O_R   0.671610 0.500060 0.346390 -0.552436
Zn1   Zn    Zn3+2 0.346870 0.499980 0.499990 1.019830
Zn2   Zn    Zn3+2 0.653130 0.500020 0.500010 1.059895
F1    F     F_    0.147779 0.124762 0.517847 -0.582298
C33   C     C_2   0.925885 0.304739 0.379851 0.974433
O9    O     O_2   0.838020 0.316880 0.334802 -0.645512
O10   O     O_R   0.004920 0.191914 0.365214 -0.713635
H11   H     H_    0.980349 0.129562 0.314732 0.358728
C34   C     C_2   0.035160 0.728015 0.722242 0.967587
O11   O     O_2   0.108483 0.724313 0.780959 -0.602472
O12   O     O_R   0.986142 0.843810 0.698245 -0.758962
H12   H     H_    0.011600 0.916897 0.738879 0.368816
F2    F     F_    0.817581 0.256095 0.818661 -0.625981
C35   C     C_2   0.743758 0.711263 0.723722 1.055506
O13   O     O_2   0.713498 0.784518 0.663712 -0.560798
O14   O     O_R   0.686095 0.729472 0.835265 -0.792255
H13   H     H_    0.620936 0.806572 0.856562 0.360178
C36   C     C_2   0.152972 0.330412 0.827736 0.953664
O15   O     O_2   0.099891 0.243047 0.883844 -0.586677
O16   O     O_R   0.146379 0.334249 0.723342 -0.791150
H14   H     H_    0.082088 0.269122 0.708229 0.396438
C37   C     C_2   0.228104 0.476469 0.152417 0.957668
O17   O     O_2   0.253975 0.392804 0.205816 -0.641753
O18   O     O_R   0.139247 0.578523 0.202080 -0.767260
H15   H     H_    0.108038 0.576570 0.283392 0.319138
F3    F     F_    0.050028 0.449760 0.035862 -0.672236
F4    F     F_    0.627634 0.290648 0.716087 -0.619499
C38   C     C_2   0.786618 0.864981 0.392066 0.971212
O19   O     O_2   0.885335 0.902806 0.419259 -0.567260
O20   O     O_R   0.806735 0.761787 0.320195 -0.777915
H16   H     H_    0.906534 0.725165 0.298224 0.369734

loop_
_geom_bond_atom_site_label_1
_geom_bond_atom_site_label_2
_ccdc_geom_bond_type
C27   C29   S    
C37   O17   D    
C12   O4    A    
C4    C8    A    
C1    O1    A    
C20   N1    A    
O20   H16   S    
O4    Zn2   S    
C11   C19   S    
O6    Zn2   S    
C8    C29   A    
C34   O12   S    
C8    H10   S    
C3    C7    A    
C19   H4    S    
C5    C6    A    
C1    O2    A    
C23   O5    A    
C15   C16   A    
C22   H6    S    
C28   H9    S    
C33   O9    D    
C2    C32   A    
C18   C19   S    
C6    F2    S    
C36   O16   S    
C19   H5    S    
C21   N1    A    
N2    Zn1   S    
C22   N2    A    
C20   C24   A    
O8    Zn2   S    
C16   C17   A    
C35   O14   S    
C25   C34   S    
C18   H3    S    
C15   H2    S    
C9    C29   A    
O3    Zn1   S    
O1    Zn1   S    
C21   C22   A    
C9    H1    S    
C37   O18   S    
C12   O3    A    
C27   O7    A    
C31   F3    S    
O14   H13   S    
C24   C25   S    
C32   C37   S    
C38   O20   S    
C23   O6    A    
C25   C26   S    
C34   O11   D    
O7    Zn1   S    
C2    C4    A    
O18   H15   S    
O12   H12   S    
C5    C28   A    
C10   C30   A    
N1    Zn2   S    
C31   C32   A    
O2    Zn2   S    
C17   C18   S    
C14   C38   S    
C10   C12   S    
C18   F1    S    
C7    F4    S    
C16   C23   S    
C24   N2    A    
C1    C13   S    
C30   C36   S    
C27   O8    A    
C11   C17   A    
C26   C35   S    
C4    C5    A    
C21   C33   S    
C6    C7    A    
C2    C3    A    
O10   H11   S    
O16   H14   S    
C3    C10   A    
C25   H7    S    
C11   C13   A    
C26   H8    S    
C30   C31   A    
C20   C26   S    
O5    Zn1   S    
C33   O10   S    
C36   O15   D    
C38   O19   D    
C35   O13   D    
C14   C15   A    
C13   C14   A    
C9    C28   A    
