data_mof_unit_3883.cif
_audit_creation_date              2012-12-11T17:16:58-0500
_audit_creation_method            fapswitch 2.2
_symmetry_space_group_name_H-M    P1
_symmetry_Int_Tables_number       1
_space_group_crystal_system       triclinic
_cell_length_a                    6.941394
_cell_length_b                    13.378613
_cell_length_c                    14.664513
_cell_angle_alpha                 98.876636
_cell_angle_beta                  89.866051
_cell_angle_gamma                 90.236347
_cell_volume                      1345.51359822

loop_
_atom_site_label
_atom_site_type_symbol
_atom_type_description
_atom_site_fract_x
_atom_site_fract_y
_atom_site_fract_z
_atom_type_partial_charge
O1    O     O_R   0.354890 0.151580 0.148210 -0.532401
O2    O     O_R   0.645110 0.848420 0.851790 -0.532402
O3    O     O_R   0.682370 0.152980 0.336770 -0.533292
O4    O     O_R   0.317630 0.847020 0.663230 -0.533292
O5    O     O_R   0.854980 0.348430 0.351800 -0.540962
O6    O     O_R   0.145020 0.651570 0.648200 -0.540962
C1    C     C_R   0.513704 0.131495 0.366423 0.804562
C2    C     C_R   0.486296 0.868504 0.633577 0.804560
O7    O     O_R   0.684450 0.139580 0.148000 -0.536947
O8    O     O_R   0.315550 0.860420 0.852000 -0.536946
O9    O     O_R   0.857080 0.334940 0.161680 -0.548812
O10   O     O_R   0.142920 0.665060 0.838320 -0.548812
C3    C     C_R   0.515497 0.112648 0.114049 0.763045
C4    C     C_R   0.484503 0.887352 0.885951 0.763041
O11   O     O_R   0.352790 0.165070 0.338330 -0.523562
O12   O     O_R   0.647210 0.834930 0.661670 -0.523561
O13   O     O_3   0.522170 0.314120 0.254710 -0.386910
O14   O     O_3   0.477830 0.685880 0.745290 -0.386910
V1    V     V_3+5 0.796120 0.238110 0.249130 1.516906
V2    V     V_3+5 0.203880 0.761890 0.750870 1.516905
O15   O     O_R   0.186930 0.347040 0.163240 -0.547304
O16   O     O_R   0.813070 0.652960 0.836760 -0.547303
C5    C     C_R   0.018506 0.368764 0.133570 0.670233
C6    C     C_R   0.981494 0.631236 0.866430 0.670233
O17   O     O_R   0.184850 0.360440 0.352010 -0.543174
O18   O     O_R   0.815150 0.639560 0.647990 -0.543173
C7    C     C_R   0.015852 0.387311 0.385995 0.733221
C8    C     C_R   0.984148 0.612689 0.614005 0.733222
V3    V     V_3+5 0.296410 0.261900 0.250880 1.498038
V4    V     V_3+5 0.703590 0.738100 0.749120 1.498036
O19   O     O_3   0.020490 0.185890 0.245290 -0.343556
O20   O     O_3   0.979510 0.814110 0.754710 -0.343556
C9    C     C_1   0.005172 0.466900 0.466344 -0.155294
C10   C     C_1   0.994828 0.533100 0.533655 -0.155295
C11   C     C_3   0.078672 0.589785 0.034056 -0.122393
C12   C     C_3   0.921328 0.410215 0.965943 -0.122392
C13   C     C_3   0.903356 0.540835 0.076026 -0.124596
C14   C     C_3   0.096644 0.459165 0.923974 -0.124596
H1    H     H_    0.823760 0.574105 0.139133 0.131371
H2    H     H_    0.176240 0.425895 0.860867 0.131372
H3    H     H_    0.143580 0.664255 0.061730 0.126273
H4    H     H_    0.856420 0.335745 0.938270 0.126275
C15   C     C_3   0.009637 0.438868 0.062712 -0.021701
C16   C     C_3   0.990363 0.561132 0.937288 -0.021702
C17   C     C_3   0.185167 0.487009 0.021537 -0.121874
C18   C     C_3   0.814833 0.512991 0.978463 -0.121873
H5    H     H_    0.338027 0.476081 0.039661 0.114571
H6    H     H_    0.661973 0.523919 0.960338 0.114571
C19   C     C_3   0.405346 0.958389 0.425544 0.529424
C20   C     C_3   0.594653 0.041611 0.574456 0.529424
C21   C     C_3   0.582587 0.910933 0.465410 -0.243398
C22   C     C_3   0.417413 0.089066 0.534590 -0.243398
H7    H     H_    0.648907 0.837398 0.436671 0.178027
H8    H     H_    0.351093 0.162602 0.563329 0.178027
C23   C     C_3   0.494169 0.938258 0.562805 -0.203795
C24   C     C_3   0.505831 0.061742 0.437195 -0.203795
C25   C     C_3   0.315000 0.984187 0.522444 -0.205989
C26   C     C_3   0.685000 0.015813 0.477556 -0.205989
H9    H     H_    0.162430 0.970317 0.539774 0.193301
H10   H     H_    0.837569 0.029682 0.460226 0.193301
C27   C     C_1   0.504901 0.033092 0.033673 -0.158183
C28   C     C_1   0.495099 0.966908 0.966327 -0.158188
S1    S     S_3+6 0.277408 0.902110 0.325384 -0.016299
O21   O     O_2   0.213352 0.797521 0.337451 -0.342318
O22   O     O_2   0.104398 0.965433 0.312095 -0.340664
O23   O     O_3   0.423170 0.895586 0.232950 -0.515471
H11   H     H_    0.340366 0.869922 0.179440 0.349925
S2    S     S_3+6 0.722592 0.097889 0.674616 -0.016298
O24   O     O_2   0.895600 0.034566 0.687905 -0.340667
O25   O     O_2   0.786651 0.202478 0.662549 -0.342313
O26   O     O_3   0.576828 0.104415 0.767050 -0.515471
H12   H     H_    0.659637 0.130067 0.820561 0.349925

loop_
_geom_bond_atom_site_label_1
_geom_bond_atom_site_label_2
_ccdc_geom_bond_type
V4    O20   S    
S1    O22   D    
C19   S1    S    
O13   V3    S    
C12   H4    S    
O4    C2    A    
V1    O19   S    
C5    C15   S    
C7    C9    S    
O9    V1    S    
C11   C13   S    
O3    C1    A    
C25   H9    S    
O12   V4    S    
C4    C28   S    
C19   C25   S    
O7    C3    A    
C14   C17   S    
O5    C7    A    
O7    V1    S    
O6    C8    A    
C16   C18   S    
S2    O24   D    
C19   C21   S    
C20   C22   S    
O3    V1    S    
O14   V4    S    
C21   C23   S    
C1    O11   A    
O23   H11   S    
S1    O23   S    
C8    C10   S    
C2    O12   A    
C1    C24   S    
O2    C4    A    
C2    C23   S    
C22   H8    S    
O11   V3    S    
C26   H10   S    
C17   H5    S    
O17   V3    S    
C18   H6    S    
C20   C26   S    
O8    C4    A    
O8    V2    S    
O15   V3    S    
C21   H7    S    
C13   C15   S    
C14   C16   S    
O10   V2    S    
O1    V3    S    
C9    C10   T    
C21   C26   S    
C12   C18   S    
C11   C16   S    
C15   C17   S    
S2    O25   D    
O18   V4    S    
C23   C25   S    
C6    C16   S    
O16   C6    A    
O1    C3    A    
C12   C14   S    
C11   C17   S    
V2    O20   S    
O16   V4    S    
O5    V1    S    
O17   C7    A    
C19   C24   S    
O6    V2    S    
O10   C6    A    
O18   C8    A    
C20   C23   S    
O2    V4    S    
O15   C5    A    
O26   H12   S    
V3    O19   S    
C14   H2    S    
S2    O26   S    
O9    C5    A    
O13   V1    S    
C24   C26   S    
O14   V2    S    
C27   C28   T    
C11   H3    S    
C22   C25   S    
S1    O21   D    
O4    V2    S    
C3    C27   S    
C13   H1    S    
C12   C15   S    
C13   C18   S    
C20   S2    S    
C22   C24   S    
