data_mof_unit_3466.cif
_audit_creation_date              2012-12-10T18:09:54-0500
_audit_creation_method            fapswitch 2.2
_symmetry_space_group_name_H-M    P1
_symmetry_Int_Tables_number       1
_space_group_crystal_system       triclinic
_cell_length_a                    10.703561
_cell_length_b                    12.544709
_cell_length_c                    13.167396
_cell_angle_alpha                 83.556802
_cell_angle_beta                  89.154732
_cell_angle_gamma                 102.56838
_cell_volume                      1713.3602126

loop_
_atom_site_label
_atom_site_type_symbol
_atom_type_description
_atom_site_fract_x
_atom_site_fract_y
_atom_site_fract_z
_atom_type_partial_charge
C1    C     C_R   0.480352 0.439573 0.691067 0.906371
C2    C     C_R   0.439229 0.439412 0.974272 -0.035850
C3    C     C_R   0.424277 0.466851 0.869592 0.035389
C4    C     C_R   0.741892 0.500224 0.500764 0.914501
C5    C     C_R   0.438980 0.521867 0.039411 0.051786
C6    C     C_R   0.389945 0.616696 0.006368 0.002064
C7    C     C_R   0.345121 0.628055 0.906002 -0.072622
C8    C     C_R   0.369104 0.556699 0.837950 -0.123644
C9    C     C_R   0.495986 0.515895 0.133699 -0.114241
C10   C     C_R   0.436343 0.681810 0.172317 -0.162244
C11   C     C_R   0.461349 0.401247 0.799611 -0.071233
C12   C     C_3   0.120681 0.496272 0.506580 -0.657540
C13   C     C_R   0.373319 0.094252 0.323383 -0.258286
C14   C     C_R   0.598304 0.786864 0.653920 0.573089
C15   C     C_R   0.578336 0.875353 0.701542 0.448635
C16   C     C_R   0.510897 0.559984 0.308660 0.907243
C17   C     C_R   0.530445 0.957482 0.646635 0.465853
C18   C     C_R   0.518481 0.958035 0.539867 -0.142344
C19   C     C_R   0.543830 0.866817 0.494043 -0.046200
C20   C     C_R   0.480113 0.043491 0.476941 0.095220
C21   C     C_R   0.448810 0.027338 0.375332 -0.052665
C22   C     C_R   0.508744 0.955479 0.326244 -0.092468
C23   C     C_3   0.079817 0.505997 0.392674 1.064812
C24   C     C_R   0.564629 0.878669 0.387086 -0.006451
C25   C     C_R   0.480211 0.147815 0.506814 -0.030027
C26   C     C_R   0.369900 0.194686 0.359683 0.814719
C27   C     C_R   0.257660 0.497475 0.505734 1.075477
C28   C     C_3   0.895804 0.384429 0.552295 0.944453
C29   C     C_3   0.039305 0.388409 0.570833 0.229965
C30   C     C_3   0.939187 0.525362 0.387246 -0.390970
C31   C     C_3   0.950402 0.591306 0.569820 0.249346
C32   C     C_3   0.878912 0.500651 0.501861 -0.601510
C33   C     C_2   0.929601 0.641448 0.342319 0.754860
C34   C     C_3   0.096606 0.598585 0.556875 1.111628
C35   C     C_2   0.273028 0.711437 0.867150 0.710400
C36   C     C_2   0.478194 0.144332 0.966579 0.666425
C37   C     C_2   0.542278 0.981770 0.215389 0.534809
C38   C     C_2   0.290381 0.054228 0.240026 0.702564
C39   C     C_2   0.673354 0.835714 0.347614 0.466524
C40   C     C_2   0.071582 0.280357 0.549144 0.666722
C41   C     C_2   0.866183 0.452081 0.312269 0.498234
C42   C     C_2   0.895893 0.568554 0.680464 0.697963
C43   C     C_R   0.392216 0.697573 0.073964 0.689010
C44   C     C_R   0.488741 0.591327 0.201916 -0.131795
C45   C     C_R   0.486143 0.298861 0.834043 -0.290710
C46   C     C_R   0.473014 0.260028 0.937185 -0.128737
C47   C     C_R   0.453189 0.330793 0.008531 0.680324
F1    F     F_    0.847703 0.304058 0.489886 -0.678899
F2    F     F_    0.600129 0.878818 0.802508 -0.564984
F3    F     F_    0.060921 0.396377 0.673847 -0.542936
F4    F     F_    0.087864 0.409989 0.352293 -0.606354
F5    F     F_    0.929636 0.694591 0.535163 -0.604446
F6    F     F_    0.157167 0.606410 0.648966 -0.637604
F7    F     F_    0.152037 0.694696 0.494494 -0.549862
F8    F     F_    0.167077 0.588947 0.333957 -0.573584
F9    F     F_    0.355347 0.793105 0.046099 -0.614491
F10   F     F_    0.438999 0.290618 0.109091 -0.602088
F11   F     F_    0.825829 0.353448 0.644609 -0.603207
F12   F     F_    0.309006 0.267268 0.308615 -0.538853
F13   F     F_    0.651389 0.711193 0.708146 -0.600958
F14   F     F_    0.494422 0.033307 0.699519 -0.637593
H1    H     H_    0.426536 0.738704 0.226282 0.177443
H2    H     H_    0.286121 0.972457 0.218729 0.078385
H3    H     H_    0.733055 0.800005 0.401470 0.128815
H4    H     H_    0.057604 0.251750 0.474610 0.129865
H5    H     H_    0.781598 0.388807 0.335034 0.153797
H6    H     H_    0.795622 0.567346 0.694790 0.109403
H7    H     H_    0.547070 0.452144 0.156036 0.213299
H8    H     H_    0.510657 0.246830 0.779869 0.232454
H9    H     H_    0.336805 0.568203 0.760957 0.200585
H10   H     H_    0.527535 0.175184 0.573918 0.240211
H11   H     H_    0.835217 0.658124 0.330289 0.001776
H12   H     H_    0.291187 0.751119 0.789096 0.061618
H13   H     H_    0.536507 0.105014 0.921196 0.120304
H14   H     H_    0.527826 0.917889 0.165221 0.132769
N1    N     N_R   0.433240 0.222190 0.444680 -0.207424
N2    N     N_R   0.566070 0.776970 0.554790 -0.222150
O1    O     O_R   0.468120 0.366740 0.627160 -0.609693
O2    O     O_2   0.186409 0.730332 0.918720 -0.418789
O3    O     O_2   0.410644 0.089393 0.037129 -0.491928
O4    O     O_2   0.592086 0.075970 0.180239 -0.488140
O5    O     O_2   0.222750 0.110116 0.196193 -0.394813
O6    O     O_2   0.698425 0.838739 0.256495 -0.573315
O7    O     O_2   0.113275 0.223326 0.615871 -0.475711
O8    O     O_2   0.902700 0.464251 0.222443 -0.452664
O9    O     O_2   0.959627 0.551668 0.754205 -0.429453
O10   O     O_R   0.510770 0.544830 0.662520 -0.588323
O11   O     O_R   0.663880 0.410950 0.482330 -0.586107
O12   O     O_R   0.706530 0.589040 0.517700 -0.586848
O13   O     O_R   0.489230 0.455170 0.337480 -0.569185
O14   O     O_R   0.531880 0.633260 0.372840 -0.648201
O15   O     O_R   0.293470 0.410960 0.482300 -0.593782
O16   O     O_R   0.336120 0.589050 0.517670 -0.544185
O17   O     O_2   0.022684 0.716315 0.318666 -0.405717
Zn1   Zn    Zn3+2 0.471520 0.381090 0.476390 1.074265
Zn2   Zn    Zn3+2 0.528480 0.618910 0.523610 1.038447

loop_
_geom_bond_atom_site_label_1
_geom_bond_atom_site_label_2
_ccdc_geom_bond_type
C1    O10   A    
C16   O13   A    
C31   C42   S    
C12   C29   S    
C40   O7    D    
C1    C11   S    
C31   F5    S    
C33   O17   D    
C7    C8    A    
C45   C46   A    
C39   H3    S    
C12   C23   S    
C28   C29   S    
C38   H2    S    
N1    Zn1   S    
C5    C6    A    
C20   C25   A    
C41   H5    S    
C24   C39   S    
C18   C19   A    
C14   N2    A    
C19   N2    A    
C33   H11   S    
C17   F14   S    
O14   Zn2   S    
C35   H12   S    
C26   N1    A    
C30   C41   S    
C36   C46   S    
C25   H10   S    
C26   F12   S    
C16   C44   S    
C37   H14   S    
O11   Zn1   S    
C21   C22   A    
C38   O5    D    
C1    O1    A    
C37   O4    D    
C10   H1    S    
C29   F3    S    
C12   C27   S    
C45   H8    S    
C23   C30   S    
C28   C32   S    
C3    C8    A    
C36   O3    D    
C22   C37   S    
C10   C44   A    
O15   Zn1   S    
C5    C9    A    
C47   F10   S    
C23   F4    S    
C31   C32   S    
C27   O16   A    
O1    Zn1   S    
O10   Zn2   S    
C17   C18   A    
C31   C34   S    
C13   C21   A    
C27   O15   A    
C13   C38   S    
C4    C32   S    
C36   H13   S    
C16   O14   A    
C42   O9    D    
C34   F7    S    
O16   Zn2   S    
C6    C43   A    
C42   H6    S    
C22   C24   A    
C13   C26   A    
C11   C45   A    
C2    C5    A    
C12   C34   S    
C14   F13   S    
C4    O12   A    
C15   C17   A    
C46   C47   A    
C28   F1    S    
C9    C44   A    
C30   C33   S    
C10   C43   A    
C7    C35   S    
O13   Zn1   S    
C23   F8    S    
C6    C7    A    
C4    O11   A    
C28   F11   S    
C2    C47   A    
C41   O8    D    
N2    Zn2   S    
C8    H9    S    
C40   H4    S    
C25   N1    A    
O12   Zn2   S    
C2    C3    A    
C9    H7    S    
C39   O6    D    
C30   C32   S    
C29   C40   S    
C35   O2    D    
C19   C24   A    
C18   C20   A    
C15   F2    S    
C3    C11   A    
C43   F9    S    
C20   C21   A    
C34   F6    S    
C14   C15   A    
