data_mof_unit_2817.cif
_audit_creation_date              2012-12-10T17:00:49-0500
_audit_creation_method            fapswitch 2.2
_symmetry_space_group_name_H-M    P1
_symmetry_Int_Tables_number       1
_space_group_crystal_system       triclinic
_cell_length_a                    10.605489
_cell_length_b                    10.659431
_cell_length_c                    10.024644
_cell_angle_alpha                 87.903146
_cell_angle_beta                  103.123109
_cell_angle_gamma                 90.728068
_cell_volume                      1102.92450079

loop_
_atom_site_label
_atom_site_type_symbol
_atom_type_description
_atom_site_fract_x
_atom_site_fract_y
_atom_site_fract_z
_atom_type_partial_charge
C1    C     C_R   0.486789 0.262695 0.499440 0.845790
C2    C     C_2   0.499114 0.871128 0.486897 -0.328559
C3    C     C_2   0.438439 0.070902 0.382422 -0.359853
C4    C     C_2   0.440267 0.134896 0.495550 0.212044
C5    C     C_2   0.564402 0.580738 0.937067 -0.098142
C6    C     C_2   0.572197 0.574851 0.088946 0.466757
C7    C     C_R   0.258051 0.493882 0.443946 0.957794
C8    C     C_R   0.498101 0.737878 0.496566 0.981135
C9    C     C_R   0.741760 0.493629 0.556476 0.921509
C10   C     C_2   0.120498 0.467442 0.415999 -0.260777
C11   C     C_2   0.072171 0.415216 0.517055 -0.079325
C12   C     C_2   0.880451 0.475900 0.587276 0.114261
C13   C     C_2   0.934278 0.408451 0.503586 0.307699
C14   C     C_2   0.423904 0.936479 0.381995 0.454862
H1    H     H_    0.457374 0.426318 0.890689 0.155383
H2    H     H_    0.431752 0.447420 0.087868 0.133539
H3    H     H_    0.133259 0.392524 0.617445 0.216760
H4    H     H_    0.059267 0.490809 0.315838 0.214079
H5    H     H_    0.566464 0.918157 0.568049 0.168896
H6    H     H_    0.463982 0.114775 0.292539 0.181739
H7    H     H_    0.617912 0.654851 0.896935 0.213746
N1    N     N_2   0.501330 0.501330 0.852460 -0.203125
N2    N     N_2   0.501370 0.501360 0.148130 -0.193222
O1    O     O_R   0.499980 0.319060 0.613030 -0.587529
O2    O     O_R   0.500020 0.319100 0.386910 -0.621895
O3    O     O_R   0.317800 0.500000 0.570840 -0.597155
O4    O     O_R   0.317840 0.500040 0.344720 -0.583164
O5    O     O_R   0.499980 0.680900 0.613090 -0.588273
O6    O     O_R   0.500020 0.680940 0.386970 -0.536726
O7    O     O_R   0.682160 0.499960 0.655280 -0.582820
O8    O     O_R   0.682200 0.500000 0.429160 -0.550829
Zn1   Zn    Zn3+2 0.499970 0.499970 0.650990 1.047314
Zn2   Zn    Zn3+2 0.500030 0.500030 0.349010 1.096695
Cl1   Cl    Cl    0.845448 0.315262 0.371032 -0.512984
Cl2   Cl    Cl    0.682429 0.677901 0.188320 -0.463906
Cl3   Cl    Cl    0.974432 0.554979 0.728425 -0.511965
S1    S     S_3+6 0.308562 0.871175 0.245302 0.127006
O9    O     O_2   0.376326 0.811618 0.147428 -0.255025
O10   O     O_2   0.228830 0.773334 0.300514 -0.239113
O11   O     O_3   0.209606 0.984429 0.160771 -0.454624
H8    H     H_    0.261536 0.031798 0.105117 0.363247
S2    S     S_3+6 0.370234 0.076831 0.632502 0.076211
O12   O     O_2   0.275474 0.972300 0.587032 -0.190042
O13   O     O_2   0.475862 0.029021 0.749365 -0.293144
O14   O     O_3   0.291067 0.193450 0.687093 -0.534332
H9    H     H_    0.343133 0.213473 0.779082 0.370066

loop_
_geom_bond_atom_site_label_1
_geom_bond_atom_site_label_2
_ccdc_geom_bond_type
C7    C10   S    
C1    O2    A    
O1    Zn1   S    
O3    Zn1   S    
S1    O9    D    
C12   Cl3   S    
C6    Cl2   S    
O5    Zn1   S    
C1    C4    S    
C4    S2    S    
C7    O3    A    
O8    Zn2   S    
S2    O13   D    
C5    H7    S    
C13   Cl1   S    
S1    O10   D    
O14   H9    S    
O4    Zn2   S    
C14   S1    S    
O7    Zn1   S    
C11   C13   S    
C3    C14   S    
N1    Zn1   S    
C9    O7    A    
C10   H4    S    
C2    C14   D    
C8    O6    A    
O11   H8    S    
H2    N2    S    
C5    C6    S    
C8    O5    A    
C9    C12   S    
C10   C11   D    
C6    N2    D    
S1    O11   S    
O6    Zn2   S    
C3    H6    S    
C7    O4    A    
C12   C13   D    
C1    O1    A    
S2    O12   D    
C9    O8    A    
C11   H3    S    
C2    H5    S    
H1    N1    S    
C2    C8    S    
C5    N1    D    
C3    C4    D    
O2    Zn2   S    
N2    Zn2   S    
S2    O14   S    
