data_mof_unit_1353.cif
_audit_creation_date              2013-03-05T16:07:35-0500
_audit_creation_method            fapswitch 2.2
_symmetry_space_group_name_H-M    P1
_symmetry_Int_Tables_number       1
_space_group_crystal_system       triclinic
_cell_length_a                    21.715415
_cell_length_b                    7.061774
_cell_length_c                    15.040112
_cell_angle_alpha                 89.817574
_cell_angle_beta                  107.567063
_cell_angle_gamma                 90.258888
_cell_volume                      2198.80488195

loop_
_atom_site_label
_atom_site_type_symbol
_atom_site_description
_atom_site_fract_x
_atom_site_fract_y
_atom_site_fract_z
_atom_type_partial_charge
O1    O     O_R   0.585850 0.505770 0.002130 -0.590482
O2    O     O_R   0.414150 0.005770 0.997870 -0.592607
O3    O     O_R   0.467530 0.173560 0.861970 -0.576292
O4    O     O_R   0.532470 0.673560 0.138030 -0.575590
C1    C     C_R   0.457715 0.345774 0.824859 0.943826
C2    C     C_R   0.542166 0.845187 0.175053 0.933372
O5    O     O_R   0.588690 0.175900 0.993250 -0.613864
O6    O     O_R   0.411310 0.675900 0.006750 -0.615005
O7    O     O_R   0.536170 0.007950 0.130090 -0.602481
O8    O     O_R   0.463830 0.507950 0.869910 -0.612093
C3    C     C_R   0.615027 0.345522 0.997183 0.931654
C4    C     C_R   0.384770 0.844620 0.001868 0.937009
O9    O     O_3   0.482630 0.339970 0.044740 -0.282200
O10   O     O_3   0.517370 0.839970 0.955260 -0.281627
V1    V     V_3+5 0.503220 0.064200 0.991700 1.166581
V2    V     V_3+5 0.496780 0.564200 0.008300 1.164066
C5    C     C_R   0.273114 0.990286 0.947511 0.141508
C6    C     C_R   0.726819 0.493065 0.050073 0.137268
C7    C     C_R   0.315707 0.852554 0.999356 -0.285518
C8    C     C_R   0.683935 0.355143 0.998676 -0.284969
C9    C     C_R   0.288587 0.712497 0.043818 -0.181436
C10   C     C_R   0.710981 0.214001 0.955417 -0.170985
H1    H     H_    0.318140 0.597286 0.081068 0.139705
H2    H     H_    0.681174 0.098890 0.918212 0.136738
C11   C     C_R   0.223243 0.722357 0.042704 -0.153750
C12   C     C_R   0.776485 0.222950 0.957281 -0.169419
H3    H     H_    0.204673 0.614295 0.079108 0.124783
H4    H     H_    0.794852 0.114735 0.921256 0.128500
C13   C     C_R   0.183599 0.875660 0.999559 -0.181538
C14   C     C_R   0.816641 0.375301 0.000943 -0.210103
C15   C     C_R   0.209923 0.003559 0.950175 0.082513
C16   C     C_R   0.790470 0.503873 0.049756 0.128588
C17   C     C_3   0.209926 0.213788 0.947279 -0.606232
C18   C     C_3   0.792202 0.714261 0.055329 -0.561925
C19   C     C_3   0.278402 0.200352 0.939706 0.420011
C20   C     C_3   0.722558 0.702849 0.058532 0.428132
H5    H     H_    0.208323 0.277405 0.014040 0.174106
H6    H     H_    0.796348 0.781442 0.990452 0.157049
H7    H     H_    0.173752 0.270092 0.883874 0.216984
H8    H     H_    0.827517 0.765570 0.120874 0.254249
H9    H     H_    0.317236 0.263385 0.998766 0.038732
H10   H     H_    0.685270 0.764411 0.997290 0.021977
C21   C     C_R   0.925625 0.884790 0.724221 -0.251818
C22   C     C_R   0.077774 0.362165 0.275592 -0.305667
C23   C     C_R   0.566185 0.860351 0.277223 -0.153315
C24   C     C_R   0.436498 0.364952 0.722463 -0.160174
C25   C     C_R   0.933339 0.830129 0.570056 -0.275630
C26   C     C_R   0.090213 0.121798 0.394748 -0.229624
C27   C     C_R   0.963703 0.855563 0.665043 0.536586
C28   C     C_R   0.050902 0.222790 0.319967 0.596954
C29   C     C_R   0.858451 0.899029 0.687414 -0.273450
C30   C     C_R   0.142593 0.415921 0.315840 -0.199755
C31   C     C_R   0.826950 0.875877 0.590928 0.097013
C32   C     C_R   0.182519 0.323316 0.397190 0.111155
C33   C     C_R   0.865571 0.834575 0.532038 -0.061064
C34   C     C_R   0.155755 0.167135 0.433095 -0.112587
C35   C     C_R   0.758382 0.890671 0.551544 0.092274
C36   C     C_R   0.248371 0.376213 0.442424 0.117339
C37   C     C_R   0.728642 0.837339 0.457024 0.037496
C38   C     C_R   0.284837 0.277469 0.524399 0.033973
C39   C     C_R   0.768463 0.781882 0.403315 -0.357654
C40   C     C_R   0.257426 0.116010 0.552564 -0.359130
C41   C     C_R   0.835611 0.790765 0.437353 0.352156
C42   C     C_R   0.194503 0.058784 0.507350 0.381265
C43   C     C_R   0.718851 0.964606 0.602280 -0.222470
C44   C     C_R   0.278664 0.526706 0.409890 -0.175880
C45   C     C_R   0.653587 0.999241 0.559766 -0.079341
C46   C     C_R   0.342043 0.578895 0.455661 -0.143242
C47   C     C_R   0.624373 0.958181 0.465303 -0.008161
C48   C     C_R   0.377370 0.490462 0.538880 0.005245
C49   C     C_R   0.660455 0.858643 0.415921 0.111943
C50   C     C_R   0.347893 0.342687 0.576260 0.128178
C51   C     C_R   0.560156 0.016271 0.418382 0.426461
C52   C     C_R   0.439730 0.557262 0.589436 0.406029
C53   C     C_R   0.532657 0.970317 0.324089 -0.223846
C54   C     C_R   0.467360 0.498117 0.681666 -0.243084
C55   C     C_R   0.627780 0.794740 0.324747 -0.240385
C56   C     C_R   0.379762 0.278112 0.668303 -0.205756
H11   H     H_    0.650233 0.702310 0.286821 0.152829
H12   H     H_    0.357522 0.178838 0.703987 0.144187
H13   H     H_    0.485489 0.025363 0.286168 0.150744
H14   H     H_    0.512620 0.560235 0.723112 0.163663
H15   H     H_    0.626481 0.060832 0.602005 0.188914
H16   H     H_    0.361526 0.698536 0.427822 0.184364
H17   H     H_    0.964004 0.801903 0.527379 0.191682
H18   H     H_    0.067966 0.009435 0.423506 0.191491
H19   H     H_    0.831838 0.917923 0.736781 0.119124
H20   H     H_    0.161481 0.519641 0.278169 0.121104
H21   H     H_    0.748670 0.746516 0.330952 0.215871
H22   H     H_    0.285157 0.026423 0.607985 0.171275
H23   H     H_    0.737681 0.009239 0.673857 0.128317
H24   H     H_    0.254534 0.609054 0.349096 0.128548
O11   O     O_R   0.036080 0.231270 0.130120 -0.572457
O12   O     O_R   0.963920 0.731270 0.869880 -0.582791
O13   O     O_R   0.911300 0.558970 0.006750 -0.593984
O14   O     O_R   0.088700 0.058970 0.993250 -0.600998
C57   C     C_R   0.884691 0.389514 0.000507 0.944978
C58   C     C_R   0.115454 0.889954 0.999875 0.927163
O15   O     O_R   0.032450 0.561140 0.138040 -0.588967
O16   O     O_R   0.967550 0.061140 0.861960 -0.615386
O17   O     O_R   0.085870 0.728910 0.002130 -0.596784
O18   O     O_R   0.914130 0.228910 0.997870 -0.593107
C59   C     C_R   0.046667 0.390635 0.174944 0.959818
C60   C     C_R   0.954451 0.892644 0.825258 0.964767
O19   O     O_3   0.017320 0.394650 0.955270 -0.286822
O20   O     O_3   0.982680 0.894650 0.044730 -0.264102
V3    V     V_3+5 0.996780 0.670490 0.008300 1.189978
V4    V     V_3+5 0.003220 0.170490 0.991700 1.175264
O21   O     O_3   0.029403 0.820281 0.699321 -0.665939
C61   C     C_3   0.064893 0.989809 0.727676 0.198685
H25   H     H_    0.115722 0.947729 0.762459 0.170444
H26   H     H_    0.049322 0.068485 0.780628 0.086141
C62   C     C_3   0.063069 0.121041 0.645368 -0.320999
H27   H     H_    0.069629 0.037241 0.586774 0.243366
H28   H     H_    0.015245 0.191276 0.620898 0.182864
C63   C     C_3   0.115738 0.272408 0.674152 -0.911172
H29   H     H_    0.106232 0.368088 0.726947 0.266597
H30   H     H_    0.117029 0.357993 0.612957 0.278678
H31   H     H_    0.163857 0.205809 0.703433 0.295714
O22   O     O_3   0.986967 0.167975 0.285112 -0.637805
C64   C     C_3   0.946919 0.310150 0.303850 0.300657
H32   H     H_    0.896446 0.270188 0.265465 0.125716
H33   H     H_    0.954841 0.450232 0.274725 0.105083
C65   C     C_3   0.952372 0.322665 0.408559 -0.350719
H34   H     H_    0.904641 0.361128 0.415991 0.208541
H35   H     H_    0.965596 0.183310 0.443053 0.230196
C66   C     C_3   0.001847 0.470553 0.459947 -0.850787
H36   H     H_    0.051644 0.426368 0.466311 0.267116
H37   H     H_    0.998319 0.489637 0.531393 0.262063
H38   H     H_    0.993573 0.607564 0.422449 0.302773
N1    N     N_R   0.524368 0.136254 0.462044 0.248272
O23   O     O_R   0.462030 0.116436 0.441637 -0.363660
O24   O     O_R   0.551276 0.287480 0.506577 -0.388560
N2    N     N_R   0.474506 0.690311 0.549890 0.242107
O25   O     O_R   0.511382 0.817757 0.602554 -0.406142
O26   O     O_R   0.478494 0.663568 0.466241 -0.364188
O27   O     O_3   0.279963 0.250026 0.849434 -0.655129
C67   C     C_3   0.291523 0.446163 0.846036 0.129416
H39   H     H_    0.344103 0.471116 0.876139 0.156226
H40   H     H_    0.265136 0.529803 0.885270 0.118094
C68   C     C_3   0.268027 0.514983 0.745120 -0.272005
H41   H     H_    0.271895 0.400008 0.697535 0.221018
H42   H     H_    0.216098 0.552268 0.726989 0.240726
C69   C     C_3   0.306171 0.687208 0.729267 -0.882845
H43   H     H_    0.294251 0.813343 0.764766 0.276032
H44   H     H_    0.293934 0.714364 0.653309 0.279137
H45   H     H_    0.358864 0.662214 0.755791 0.250953
O28   O     O_3   0.717907 0.749389 0.147629 -0.646485
C70   C     C_3   0.702785 0.942958 0.152314 0.215995
H46   H     H_    0.668152 0.952934 0.192629 0.121900
H47   H     H_    0.677828 0.005408 0.084045 0.105537
C71   C     C_3   0.762857 0.061378 0.200386 -0.355683
H48   H     H_    0.799248 0.973345 0.249956 0.275131
H49   H     H_    0.785091 0.114927 0.147739 0.204663
C72   C     C_3   0.746311 0.227663 0.253756 -0.917262
H50   H     H_    0.708058 0.316754 0.206901 0.268817
H51   H     H_    0.789895 0.315744 0.283795 0.293409
H52   H     H_    0.729144 0.174908 0.311839 0.260605
N3    N     N_R   0.872068 0.757790 0.373333 0.211073
O29   O     O_R   0.915055 0.881041 0.366561 -0.455493
O30   O     O_R   0.850776 0.637033 0.305774 -0.471424
N4    N     N_R   0.171042 0.886554 0.536716 0.221193
O31   O     O_R   0.177833 0.857636 0.624529 -0.444569
O32   O     O_R   0.149170 0.750361 0.477341 -0.434025

loop_
_geom_bond_atom_site_label_1
_geom_bond_atom_site_label_2
_geom_bond_distance
_ccdc_geom_bond_type
O17   V3    2.005620 S    
C44   C46   1.388903 A    
C51   N1    1.438976 S    
C45   H15   1.081212 S    
C2    C23   1.470213 S    
C72   H51   1.106859 S    
C20   H10   1.115114 S    
O1    C3    1.312643 A    
C41   N3    1.439222 S    
O2    C4    1.312201 A    
O11   C59   1.297231 A    
C2    O7    1.318567 A    
C24   C54   1.395984 A    
C25   C27   1.392802 A    
C26   C28   1.386782 A    
O5    C3    1.318797 A    
O19   V3    2.204985 S    
C14   C57   1.482672 S    
C36   C44   1.409348 A    
C17   H7    1.110301 S    
C52   C54   1.398147 A    
C13   C58   1.485138 S    
C28   O22   1.381785 S    
C25   H17   1.074794 S    
C10   H2    1.082764 S    
C25   C33   1.409239 A    
C7    C9    1.414389 A    
N4    O31   1.299503 A    
C70   H47   1.098100 S    
O11   V4    2.033150 S    
C56   H12   1.078774 S    
C35   C37   1.423680 A    
O20   V3    1.735200 S    
C38   C50   1.430852 A    
C36   C38   1.429527 A    
C52   N2    1.438050 S    
O16   C60   1.306815 A    
C63   H29   1.110516 S    
C38   C40   1.405977 A    
C39   C41   1.393179 A    
C21   C60   1.459507 S    
C64   C65   1.546015 S    
C40   C42   1.388761 A    
C17   C19   1.528623 S    
C61   H25   1.110733 S    
C68   H41   1.104112 S    
C20   O28   1.413761 S    
C30   C32   1.426896 A    
C43   C45   1.390075 A    
O14   C58   1.320067 A    
C48   C52   1.417551 A    
C50   C56   1.422596 A    
C15   C17   1.485090 S    
O18   V4    2.009334 S    
C6    C8    1.405502 A    
C57   O18   1.310992 A    
C26   C34   1.400838 A    
C62   C63   1.526805 S    
C22   C30   1.405021 A    
C55   H11   1.078085 S    
O14   V4    2.013286 S    
O12   C60   1.305869 A    
O6    V2    2.013589 S    
C72   H52   1.110922 S    
C51   C53   1.401109 A    
C69   H45   1.107008 S    
C22   C59   1.473165 S    
C39   H21   1.072373 S    
N4    O32   1.301297 A    
C31   C33   1.423078 A    
C11   C13   1.414543 A    
C3    C8    1.490993 S    
O19   V4    1.729482 S    
C32   C34   1.423274 A    
O12   V3    2.031712 S    
C37   C39   1.407267 A    
O16   V4    2.023780 S    
C46   H16   1.081454 S    
C30   H20   1.077327 S    
O28   C70   1.414194 S    
C69   H44   1.108285 S    
O15   C59   1.322429 A    
C70   C71   1.532457 S    
C54   H14   1.083975 S    
C24   C56   1.395740 A    
C31   C35   1.430888 A    
C53   H13   1.084007 S    
N2    O26   1.301306 A    
N1    O24   1.301223 A    
C48   C50   1.422060 A    
C17   H5    1.111463 S    
C33   C41   1.410219 A    
C29   C31   1.414850 A    
C16   C18   1.488006 S    
O4    V2    2.023718 S    
C66   H37   1.108777 S    
N3    O29   1.299527 A    
C71   C72   1.528475 S    
O6    C4    1.318046 A    
N3    O30   1.300683 A    
O1    V2    2.008924 S    
C47   C51   1.421327 A    
O2    V1    2.005209 S    
C61   C62   1.535019 S    
C64   H32   1.109303 S    
C1    C24   1.474214 S    
O13   V3    2.006772 S    
C65   C66   1.528416 S    
C42   N4    1.435511 S    
C71   H49   1.109199 S    
C12   C14   1.414018 A    
C9    H1    1.082798 S    
C5    C15   1.388429 A    
C26   H18   1.081925 S    
C68   C69   1.526555 S    
O4    C2    1.324589 A    
C6    C16   1.385426 A    
C8    C10   1.414841 A    
C29   H19   1.078612 S    
C66   H36   1.102851 S    
C49   C55   1.414641 A    
C64   H33   1.114103 S    
O3    V1    2.021647 S    
O22   C64   1.414705 S    
C65   H35   1.108792 S    
C62   H27   1.107692 S    
C32   C36   1.434153 A    
C22   C28   1.407269 A    
C43   H23   1.077359 S    
C9    C11   1.416029 A    
C18   H6    1.111295 S    
C21   C27   1.401940 A    
C35   C43   1.412035 A    
C69   H43   1.110857 S    
O3    C1    1.327462 A    
C67   C68   1.526529 S    
C44   H24   1.076537 S    
O13   C57   1.317727 A    
N2    O25   1.301448 A    
C67   H40   1.111208 S    
C11   H3    1.082856 S    
C58   O17   1.309013 A    
O15   V3    2.021707 S    
O27   C67   1.410043 S    
C12   H4    1.082813 S    
C47   C49   1.421002 A    
C63   H31   1.110117 S    
C23   C53   1.395830 A    
C68   H42   1.109917 S    
O7    V1    2.024918 S    
C27   O21   1.386278 S    
C1    O8    1.318172 A    
C13   C15   1.393397 A    
O8    V2    2.026251 S    
C70   H46   1.101937 S    
C19   O27   1.411454 S    
C14   C16   1.395374 A    
C21   C29   1.399273 A    
C34   C42   1.404939 A    
O20   V4    2.196923 S    
C40   H22   1.074590 S    
C4    C7    1.490063 S    
O5    V1    2.007066 S    
C5    C7    1.406218 A    
C63   H30   1.106816 S    
C18   C20   1.529315 S    
C19   H9    1.115902 S    
C61   H26   1.106490 S    
C66   H38   1.106080 S    
C67   H39   1.107412 S    
C71   H48   1.101191 S    
C46   C48   1.401716 A    
C10   C12   1.415366 A    
O9    V2    1.730280 S    
C72   H50   1.109492 S    
O10   V1    1.736006 S    
C18   H8    1.111131 S    
C23   C55   1.393206 A    
C5    C19   1.494339 S    
C45   C47   1.400689 A    
O21   C61   1.416165 S    
C6    C20   1.492971 S    
N1    O23   1.301557 A    
C37   C49   1.430426 A    
C65   H34   1.110533 S    
C62   H28   1.110274 S    
