data_mof_unit_1965.cif
_audit_creation_date              2012-12-10T17:35:52-0500
_audit_creation_method            fapswitch 2.2
_symmetry_space_group_name_H-M    P1
_symmetry_Int_Tables_number       1
_space_group_crystal_system       triclinic
_cell_length_a                    10.449315
_cell_length_b                    12.134258
_cell_length_c                    12.658119
_cell_angle_alpha                 93.663033
_cell_angle_beta                  93.508701
_cell_angle_gamma                 87.844859
_cell_volume                      1597.78595213

loop_
_atom_site_label
_atom_site_type_symbol
_atom_type_description
_atom_site_fract_x
_atom_site_fract_y
_atom_site_fract_z
_atom_type_partial_charge
C1    C     C_R   0.483553 0.520863 0.699291 0.877770
C2    C     C_R   0.600467 0.168713 0.599988 0.027017
C3    C     C_R   0.558012 0.861827 0.542943 0.229391
C4    C     C_R   0.442860 0.137484 0.457773 0.228017
C5    C     C_R   0.531995 0.979564 0.551403 -0.039672
C6    C     C_R   0.436968 0.023415 0.481005 -0.044659
C7    C     C_R   0.742177 0.501165 0.499498 0.840999
C8    C     C_R   0.257900 0.498779 0.500468 0.844079
C9    C     C_3   0.964411 0.482293 0.597614 -0.178488
C10   C     C_3   0.035904 0.517346 0.402614 -0.179934
C11   C     C_3   0.045129 0.579179 0.569991 -0.169519
C12   C     C_R   0.517109 0.479258 0.300825 0.879614
C13   C     C_3   0.955202 0.420481 0.430228 -0.173163
C14   C     C_3   0.122973 0.496932 0.501126 0.028021
C15   C     C_3   0.877270 0.502819 0.499054 0.030374
C16   C     C_3   0.045069 0.399966 0.528875 -0.148375
C17   C     C_3   0.955354 0.599697 0.471340 -0.140249
C18   C     C_R   0.547270 0.469923 0.189694 -0.167341
C19   C     C_R   0.454250 0.531008 0.810535 -0.166819
C20   C     C_R   0.428459 0.641753 0.973909 0.114914
C21   C     C_R   0.573580 0.360266 0.025963 0.115315
C22   C     C_R   0.418698 0.632382 0.862405 -0.059717
C23   C     C_R   0.461315 0.435583 0.868150 0.121976
C24   C     C_R   0.584881 0.369395 0.137355 -0.050777
C25   C     C_3   0.611064 0.669275 0.172738 -0.389615
C26   C     C_3   0.749779 0.641469 0.210344 -0.853379
C27   C     C_3   0.388390 0.332398 0.828540 -0.392640
C28   C     C_3   0.249636 0.360731 0.791550 -0.845632
C29   C     C_1   0.648933 0.282486 0.196125 0.159570
C30   C     C_1   0.358064 0.719810 0.802264 0.182475
C31   C     C_3   0.360194 0.737962 0.033475 -0.422894
C32   C     C_3   0.214798 0.725333 0.025048 -0.824713
C33   C     C_3   0.642014 0.264795 0.965657 -0.421377
C34   C     C_R   0.539020 0.565804 0.132483 0.123579
C35   C     C_3   0.787100 0.279240 0.971755 -0.828418
C36   C     C_3   0.395154 0.168444 0.346951 -0.339242
C37   C     C_3   0.271245 0.240102 0.339251 -0.785852
C38   C     C_3   0.693408 0.820569 0.574204 -0.334820
C39   C     C_3   0.707831 0.760536 0.678145 -0.761868
C40   C     C_1   0.686873 0.243480 0.658568 0.226337
C41   C     C_1   0.295073 0.762582 0.356019 0.213670
C42   C     C_3   0.203270 0.989410 0.412065 -0.385452
C43   C     C_3   0.146963 0.043900 0.512120 -0.850869
C44   C     C_3   0.646469 0.027145 0.735979 -0.410899
C45   C     C_R   0.507881 0.447932 0.973396 -0.002913
C46   C     C_3   0.534566 0.998622 0.799928 -0.866477
C47   C     C_R   0.492816 0.553726 0.027041 -0.003059
C48   C     C_R   0.342666 0.950193 0.433600 0.041495
C49   C     C_R   0.599833 0.056219 0.623779 0.047327
C50   C     C_R   0.371986 0.835247 0.426311 0.038086
H1    H     H_    0.086631 0.643307 0.627220 0.149023
H2    H     H_    0.616042 0.726419 0.108013 0.194047
H3    H     H_    0.562067 0.716529 0.237302 0.220646
H4    H     H_    0.199437 0.406800 0.856441 0.255926
H5    H     H_    0.246147 0.411552 0.721575 0.255824
H6    H     H_    0.198425 0.283464 0.768674 0.241917
H7    H     H_    0.436445 0.284820 0.763764 0.227554
H8    H     H_    0.383744 0.275425 0.893452 0.193684
H9    H     H_    0.175485 0.727003 0.941808 0.256163
H10   H     H_    0.190342 0.646179 0.057192 0.260379
H11   H     H_    0.168174 0.794334 0.072034 0.244211
H12   H     H_    0.913799 0.356338 0.372972 0.151806
H13   H     H_    0.387591 0.743467 0.119139 0.210476
H14   H     H_    0.384853 0.817540 0.002267 0.201737
H15   H     H_    0.809268 0.358564 0.938807 0.261241
H16   H     H_    0.828360 0.278509 0.054505 0.259043
H17   H     H_    0.833893 0.210581 0.924439 0.241706
H18   H     H_    0.619536 0.184842 0.997241 0.207660
H19   H     H_    0.612332 0.259060 0.880587 0.213077
H20   H     H_    0.216377 0.237836 0.411020 0.263157
H21   H     H_    0.290940 0.326497 0.324656 0.266758
H22   H     H_    0.209204 0.210094 0.269771 0.206510
H23   H     H_    0.930926 0.469158 0.677250 0.147417
H24   H     H_    0.472145 0.207352 0.309709 0.229246
H25   H     H_    0.382318 0.092887 0.293622 0.154586
H26   H     H_    0.627023 0.781645 0.729288 0.259420
H27   H     H_    0.715796 0.670049 0.665260 0.265982
H28   H     H_    0.798644 0.783873 0.722730 0.201007
H29   H     H_    0.732794 0.771658 0.506934 0.206600
H30   H     H_    0.759988 0.890092 0.580219 0.151564
H31   H     H_    0.146120 0.982913 0.573898 0.264877
H32   H     H_    0.203346 0.115258 0.544671 0.258354
H33   H     H_    0.046846 0.073624 0.493284 0.238875
H34   H     H_    0.069403 0.530416 0.322968 0.148304
H35   H     H_    0.191722 0.043828 0.345904 0.214172
H36   H     H_    0.140333 0.919903 0.386472 0.198896
H37   H     H_    0.468490 0.071815 0.810658 0.249742
H38   H     H_    0.480596 0.930528 0.758544 0.285556
H39   H     H_    0.570923 0.972846 0.879192 0.238843
H40   H     H_    0.721993 0.962346 0.737542 0.220264
H41   H     H_    0.693883 0.096398 0.781809 0.199690
H42   H     H_    0.085371 0.318909 0.553260 0.141565
H43   H     H_    0.916926 0.681030 0.446490 0.133366
H44   H     H_    0.753127 0.590590 0.280261 0.256304
H45   H     H_    0.800630 0.595649 0.145675 0.257788
H46   H     H_    0.800500 0.718914 0.233484 0.238488
N1    N     N_R   0.523490 0.207800 0.519350 -0.138076
N2    N     N_R   0.476510 0.792200 0.480650 -0.140942
N3    N     N_1   0.701618 0.213397 0.242583 -0.244258
N4    N     N_1   0.307605 0.788378 0.753804 -0.233608
N5    N     N_1   0.756966 0.302569 0.705839 -0.243389
N6    N     N_1   0.233181 0.705106 0.298916 -0.245576
O1    O     O_R   0.506270 0.421700 0.658830 -0.609755
O2    O     O_R   0.493730 0.578300 0.341170 -0.608823
O3    O     O_R   0.491200 0.609310 0.646410 -0.605767
O4    O     O_R   0.508800 0.390690 0.353590 -0.624089
O5    O     O_R   0.693580 0.406210 0.506230 -0.600696
O6    O     O_R   0.306420 0.593790 0.493770 -0.600953
O7    O     O_R   0.678510 0.593830 0.493810 -0.642124
O8    O     O_R   0.321490 0.406170 0.506190 -0.626001
Zn1   Zn    Zn3+2 0.510060 0.374730 0.508290 0.944105
Zn2   Zn    Zn3+2 0.489940 0.625270 0.491710 0.945304

loop_
_geom_bond_atom_site_label_1
_geom_bond_atom_site_label_2
_ccdc_geom_bond_type
C44   C49   S    
C26   H44   S    
C4    C36   S    
C23   C45   A    
C43   H33   S    
C28   H6    S    
C46   H39   S    
C6    C48   A    
C18   C24   A    
C39   H27   S    
C36   C37   S    
C2    C49   A    
C9    C16   S    
C25   H3    S    
C32   H11   S    
C12   O2    A    
C38   C39   S    
N1    Zn1   S    
C11   C14   S    
C21   C33   S    
C38   H29   S    
C35   H15   S    
C10   C17   S    
C30   N4    T    
C41   N6    T    
O1    Zn1   S    
C10   H34   S    
O8    Zn1   S    
C40   N5    T    
C24   C29   S    
C13   H12   S    
C2    N1    A    
C42   H36   S    
C23   C27   S    
C1    O1    A    
C21   C45   A    
C33   H19   S    
C25   C34   S    
C48   C50   A    
C37   H20   S    
C5    C49   A    
C9    H23   S    
C8    O6    A    
C28   H5    S    
C44   C46   S    
C46   H38   S    
O4    Zn1   S    
C45   C47   A    
C26   H46   S    
C50   N2    A    
N2    Zn2   S    
C29   N3    T    
C39   H28   S    
C31   H13   S    
C19   C22   A    
C3    C38   S    
C4    C6    A    
C10   C14   S    
O7    Zn2   S    
O2    Zn2   S    
C28   H4    S    
C35   H16   S    
C25   C26   S    
C1    C19   S    
C10   C13   S    
O6    Zn2   S    
C19   C23   A    
C36   H25   S    
C8    O8    A    
C18   C34   A    
C31   C32   S    
C35   H17   S    
C42   H35   S    
C42   C48   S    
C39   H26   S    
C9    C11   S    
C44   H41   S    
C36   H24   S    
O3    Zn2   S    
C20   C22   A    
C16   H42   S    
C37   H21   S    
C27   H7    S    
C43   H31   S    
C7    O5    A    
C21   C24   A    
C13   C16   S    
C17   H43   S    
C42   C43   S    
C32   H10   S    
C41   C50   S    
C44   H40   S    
C46   H37   S    
C26   H45   S    
C15   C17   S    
C11   C17   S    
C8    C14   S    
C22   C30   S    
O5    Zn1   S    
C31   H14   S    
C3    C5    A    
C27   H8    S    
C13   C15   S    
C9    C15   S    
C25   H2    S    
C12   O4    A    
C3    N2    A    
C5    C6    A    
C38   H30   S    
C7    C15   S    
C33   C35   S    
C14   C16   S    
C20   C47   A    
C11   H1    S    
C2    C40   S    
C37   H22   S    
C12   C18   S    
C27   C28   S    
C43   H32   S    
C7    O7    A    
C34   C47   A    
C32   H9    S    
C4    N1    A    
C33   H18   S    
C1    O3    A    
C20   C31   S    
