data_mof_unit_2122.cif
_audit_creation_date              2012-12-10T17:47:04-0500
_audit_creation_method            fapswitch 2.2
_symmetry_space_group_name_H-M    P1
_symmetry_Int_Tables_number       1
_space_group_crystal_system       triclinic
_cell_length_a                    9.897215
_cell_length_b                    10.706601
_cell_length_c                    13.638203
_cell_angle_alpha                 91.588885
_cell_angle_beta                  82.982681
_cell_angle_gamma                 90.586079
_cell_volume                      1433.76840578

loop_
_atom_site_label
_atom_site_type_symbol
_atom_type_description
_atom_site_fract_x
_atom_site_fract_y
_atom_site_fract_z
_atom_type_partial_charge
C1    C     C_R   0.501075 0.740043 0.493777 0.871920
C2    C     C_R   0.609990 0.936034 0.528316 -0.220417
C3    C     C_R   0.606670 0.063172 0.546403 0.184549
C4    C     C_R   0.475553 0.500591 0.685606 0.882581
C5    C     C_R   0.488204 0.128355 0.530869 -0.153282
C6    C     C_R   0.841263 0.668911 0.625616 -0.174031
C7    C     C_R   0.902639 0.752631 0.686562 -0.219289
C8    C     C_R   0.042210 0.750902 0.687612 -0.176074
C9    C     C_R   0.121231 0.665861 0.627351 -0.137070
C10   C     C_R   0.063009 0.582410 0.562320 0.159719
C11   C     C_R   0.918416 0.583076 0.561876 0.177434
C12   C     C_1   0.456310 0.502887 0.789270 -0.208479
C13   C     C_R   0.937537 0.420422 0.440922 -0.130560
C14   C     C_R   0.080747 0.420561 0.440860 -0.127610
C15   C     C_R   0.496566 0.261227 0.512561 0.893704
C16   C     C_R   0.524370 0.499709 0.314401 0.903250
C17   C     C_1   0.542519 0.500248 0.210765 -0.188919
C18   C     C_2   0.551816 0.501782 0.019495 -0.181769
C19   C     C_2   0.434053 0.507195 0.981318 0.214188
C20   C     C_1   0.441974 0.505107 0.877027 -0.014824
C21   C     C_1   0.552300 0.500900 0.123140 0.020169
C22   C     C_3   0.296758 0.513668 0.042953 -0.854955
C23   C     C_R   0.270959 0.884601 0.434245 -0.146653
C24   C     C_3   0.023775 0.878527 0.404852 -0.916229
C25   C     C_3   0.727486 0.124344 0.586677 -0.870095
C26   C     C_R   0.142429 0.940292 0.445819 0.256491
C27   C     C_R   0.123978 0.052505 0.499790 -0.176496
C28   C     C_R   0.234882 0.113051 0.534192 -0.192972
C29   C     C_R   0.367352 0.061840 0.515473 0.060413
C30   C     C_R   0.380165 0.939001 0.479270 0.042019
C31   C     C_R   0.499894 0.874159 0.493194 -0.155249
H1    H     H_    0.733433 0.674350 0.631177 0.205366
H2    H     H_    0.280044 0.429133 0.088384 0.239414
H3    H     H_    0.291611 0.598169 0.092340 0.238689
H4    H     H_    0.089561 0.814978 0.736138 0.150114
H5    H     H_    0.053301 0.788970 0.365302 0.238921
H6    H     H_    0.942580 0.858601 0.466129 0.250790
H7    H     H_    0.982858 0.941578 0.352476 0.240784
H8    H     H_    0.024372 0.094523 0.513599 0.145102
H9    H     H_    0.214474 0.197800 0.578209 0.176195
H10   H     H_    0.692627 0.194449 0.645646 0.245814
H11   H     H_    0.789758 0.055069 0.620148 0.217869
H12   H     H_    0.841126 0.818286 0.734119 0.151645
H13   H     H_    0.794142 0.169465 0.526299 0.250892
H14   H     H_    0.227051 0.667521 0.634571 0.203921
H15   H     H_    0.142038 0.355556 0.392664 0.156864
H16   H     H_    0.648770 0.496909 0.972492 0.133798
H17   H     H_    0.699000 0.885009 0.543001 0.168952
H18   H     H_    0.284333 0.799117 0.390153 0.160745
H19   H     H_    0.891073 0.355385 0.392734 0.147635
H20   H     H_    0.213671 0.518688 0.995304 0.233926
N1    N     N_R   0.857120 0.501200 0.500900 -0.116469
N2    N     N_R   0.142720 0.501280 0.500940 -0.124835
O1    O     O_R   0.385310 0.683220 0.500000 -0.644712
O2    O     O_R   0.614640 0.683250 0.500010 -0.639241
O3    O     O_R   0.368830 0.499960 0.640340 -0.633019
O4    O     O_R   0.598160 0.499980 0.640350 -0.629254
O5    O     O_R   0.385360 0.316750 0.499990 -0.627583
O6    O     O_R   0.614690 0.316780 0.500000 -0.606245
O7    O     O_R   0.401840 0.500020 0.359650 -0.609565
O8    O     O_R   0.631170 0.500040 0.359660 -0.602924
Zn1   Zn    Zn3+2 0.346870 0.499980 0.499990 0.922928
Zn2   Zn    Zn3+2 0.653130 0.500020 0.500010 0.932020

loop_
_geom_bond_atom_site_label_1
_geom_bond_atom_site_label_2
_ccdc_geom_bond_type
C4    O4    A    
C25   H11   S    
C24   H7    S    
C1    O1    A    
C9    H14   S    
C6    C7    A    
C7    H12   S    
C4    C12   S    
C13   N1    A    
N2    Zn1   S    
C6    H1    S    
C19   C20   S    
C3    C25   S    
C18   H16   S    
C12   C20   T    
C2    C3    A    
C1    O2    A    
C7    C8    A    
C14   H15   S    
C24   H5    S    
C13   C14   A    
C4    O3    A    
C14   N2    A    
C26   C27   A    
C29   C30   A    
C15   O6    A    
O5    Zn1   S    
C16   O8    A    
C25   H13   S    
C28   C29   A    
C24   C26   S    
C24   H6    S    
C5    C29   A    
C2    C31   A    
C16   O7    A    
C30   C31   A    
C22   H3    S    
C15   O5    A    
O3    Zn1   S    
C23   H18   S    
C5    C15   S    
C10   C11   A    
C28   H9    S    
C13   H19   S    
C18   C21   S    
C23   C30   A    
C3    C5    A    
C1    C31   S    
C19   C22   S    
C16   C17   S    
C10   N2    A    
O7    Zn1   S    
C18   C19   D    
C9    C10   A    
C23   C26   A    
C25   H10   S    
C6    C11   A    
O8    Zn2   S    
C22   H2    S    
C22   H20   S    
C11   N1    A    
O1    Zn1   S    
C2    H17   S    
O6    Zn2   S    
C8    H4    S    
C17   C21   T    
O4    Zn2   S    
C27   H8    S    
C8    C9    A    
C27   C28   A    
N1    Zn2   S    
O2    Zn2   S    
