data_mof_unit_355.cif
_audit_creation_date              2012-12-10T18:58:48-0500
_audit_creation_method            fapswitch 2.2
_symmetry_space_group_name_H-M    P1
_symmetry_Int_Tables_number       1
_space_group_crystal_system       triclinic
_cell_length_a                    12.970288
_cell_length_b                    10.829839
_cell_length_c                    9.588745
_cell_angle_alpha                 89.811974
_cell_angle_beta                  96.229848
_cell_angle_gamma                 91.075483
_cell_volume                      1338.70299418

loop_
_atom_site_label
_atom_site_type_symbol
_atom_type_description
_atom_site_fract_x
_atom_site_fract_y
_atom_site_fract_z
_atom_type_partial_charge
C1    C     C_R   0.505406 0.262806 0.500995 0.844424
C2    C     C_R   0.026119 0.530528 0.545338 0.057814
C3    C     C_R   0.974034 0.438472 0.457538 -0.025701
C4    C     C_R   0.864803 0.426953 0.453003 0.392911
C5    C     C_R   0.865607 0.585393 0.633099 -0.280576
C6    C     C_R   0.971900 0.601527 0.633722 -0.146088
C7    C     C_R   0.500123 0.063129 0.622413 0.084106
C8    C     C_R   0.521841 0.130456 0.504699 -0.239087
C9    C     C_R   0.560668 0.066943 0.392626 0.306848
C10   C     C_R   0.553572 0.936468 0.388375 0.383107
C11   C     C_R   0.515912 0.871474 0.501457 -0.209036
C12   C     C_R   0.300850 0.496012 0.473931 0.862730
C13   C     C_R   0.498327 0.936462 0.621395 0.042689
C14   C     C_3   0.409080 0.928947 0.707528 -0.422980
C15   C     C_3   0.411122 0.069259 0.708617 -0.410442
C16   C     C_R   0.547816 0.593836 0.079792 0.217502
C17   C     C_R   0.446867 0.411396 0.063942 0.471799
C18   C     C_R   0.448144 0.411840 0.916704 -0.035576
C19   C     C_R   0.545831 0.595031 0.932356 0.156600
C20   C     C_3   0.656211 0.635785 0.937182 -0.520633
C21   C     C_3   0.660876 0.629621 0.095782 0.190779
C22   C     C_R   0.502957 0.737753 0.500007 0.843112
C23   C     C_R   0.699162 0.499233 0.526289 0.841026
C24   C     C_R   0.811934 0.500955 0.540986 -0.090041
C25   C     C_R   0.188620 0.479405 0.460853 -0.102216
C26   C     C_R   0.032996 0.358718 0.381699 0.297244
C27   C     C_R   0.139824 0.385085 0.376299 0.282894
C28   C     C_R   0.132488 0.549185 0.546882 -0.325896
Cu1   Cu    Cu3+1 0.499990 0.499980 0.640670 0.949538
Cu2   Cu    Cu3+1 0.500010 0.500020 0.359330 1.031324
H1    H     H_    0.431398 0.887768 0.812598 0.207533
H2    H     H_    0.663958 0.731422 0.896682 0.162477
H3    H     H_    0.172178 0.618983 0.615003 0.163826
N1    N     N_R   0.500660 0.500930 0.148010 -0.227186
N2    N     N_R   0.500660 0.500890 0.852110 -0.213693
O1    O     O_R   0.500000 0.319640 0.618810 -0.587258
O2    O     O_R   0.500010 0.319680 0.381230 -0.552517
O3    O     O_R   0.348990 0.499960 0.599490 -0.596674
O4    O     O_R   0.349000 0.500000 0.361910 -0.589027
O5    O     O_R   0.499990 0.680320 0.618770 -0.590116
O6    O     O_R   0.500000 0.680360 0.381190 -0.541392
O7    O     O_R   0.651000 0.500000 0.638090 -0.599736
O8    O     O_R   0.651010 0.500040 0.400510 -0.503101
O9    O     O_3   0.807325 0.346080 0.363475 -0.684518
H4    H     H_    0.832485 0.354609 0.269984 0.386201
H5    H     H_    0.341076 0.110420 0.650629 0.196900
H6    H     H_    0.434649 0.108698 0.814416 0.217079
O10   O     O_3   0.392430 0.315960 0.117568 -0.707954
H7    H     H_    0.367665 0.345342 0.204013 0.401714
H8    H     H_    0.406941 0.339853 0.854230 0.155663
H9    H     H_    0.705658 0.566998 0.891965 0.242327
O11   O     O_3   0.723340 0.533088 0.150084 -0.675173
H10   H     H_    0.795609 0.566165 0.158172 0.314695
H11   H     H_    0.678959 0.719388 0.149156 0.151840
H12   H     H_    0.824424 0.643237 0.699656 0.160445
O12   O     O_3   0.987559 0.251521 0.323753 -0.718689
H13   H     H_    0.041072 0.187654 0.322032 0.341446
H14   H     H_    0.011746 0.670317 0.702784 0.150424
O13   O     O_3   0.198829 0.316470 0.294908 -0.751709
H15   H     H_    0.153730 0.285791 0.211735 0.342094
O14   O     O_3   0.603033 0.128524 0.285595 -0.690868
H16   H     H_    0.642057 0.201577 0.326408 0.379616
O15   O     O_3   0.582371 0.870911 0.275925 -0.744354
H17   H     H_    0.601584 0.927921 0.201752 0.362574
H18   H     H_    0.337814 0.888315 0.648941 0.188933

loop_
_geom_bond_atom_site_label_1
_geom_bond_atom_site_label_2
_ccdc_geom_bond_type
Cu1   O3    S    
C28   H3    S    
C7    C13   A    
C17   N1    A    
C23   C24   S    
Cu2   O6    S    
Cu1   Cu2   S    
C1    O2    A    
Cu1   O7    S    
C25   C27   A    
C1    C8    S    
C2    C28   A    
C9    C10   A    
C6    H14   S    
C11   C22   S    
C19   C20   S    
C17   O10   S    
C15   H6    S    
C12   C25   S    
C22   O5    A    
C12   O4    A    
C7    C15   S    
C17   C18   A    
C8    C9    A    
O13   H15   S    
C27   O13   S    
C13   C14   S    
O12   H13   S    
C25   C28   A    
C11   C13   A    
Cu1   O1    S    
C26   C27   A    
C21   H11   S    
C23   O7    A    
C16   C19   A    
C9    O14   S    
C5    C6    A    
Cu1   O5    S    
O10   H7    S    
C14   H18   S    
Cu2   O4    S    
C2    C3    A    
C20   H9    S    
C21   O11   S    
C12   O3    A    
O14   H16   S    
C4    C24   A    
Cu2   O8    S    
C22   O6    A    
C10   C11   A    
Cu2   N1    S    
C3    C4    A    
C7    C8    A    
C23   O8    A    
C20   C21   S    
C18   H8    S    
C18   N2    A    
C20   H2    S    
C14   H1    S    
Cu1   N2    S    
C14   C15   S    
C5    C24   A    
C19   N2    A    
C4    O9    S    
C15   H5    S    
C16   N1    A    
C1    O1    A    
C10   O15   S    
C16   C21   S    
C5    H12   S    
C3    C26   A    
O9    H4    S    
C2    C6    A    
Cu2   O2    S    
O11   H10   S    
O15   H17   S    
C26   O12   S    
