data_mof_unit_391.cif
_audit_creation_date              2012-10-26T20:21:16-0400
_audit_creation_method            fapswitch 2.2
_symmetry_space_group_name_H-M    P1
_symmetry_Int_Tables_number       1
_space_group_crystal_system       triclinic
_cell_length_a                    9.7872
_cell_length_b                    11.037481
_cell_length_c                    15.982352
_cell_angle_alpha                 83.756215
_cell_angle_beta                  69.460722
_cell_angle_gamma                 90.124877
_cell_volume                      1605.65910464

loop_
_atom_site_label
_atom_site_type_symbol
_atom_type_description
_atom_site_fract_x
_atom_site_fract_y
_atom_site_fract_z
_atom_type_partial_charge
C1    C     C_R   0.998310 0.262385 0.500419 0.566054
C2    C     C_R   0.122819 0.062394 0.487747 0.039108
C3    C     C_R   0.993237 0.870508 0.504101 -0.035116
C4    C     C_R   0.993686 0.127588 0.499528 -0.023123
C5    C     C_R   0.533081 0.435222 0.567317 0.113686
C6    C     C_R   0.460923 0.574278 0.437139 0.107188
C7    C     C_R   0.391016 0.424401 0.560847 0.146315
C8    C     C_R   0.611026 0.568678 0.432738 0.105390
C9    C     C_R   0.913113 0.498329 0.672089 0.532261
C10   C     C_R   0.087279 0.495974 0.329062 0.568219
C11   C     C_R   0.858976 0.487070 0.771920 -0.004004
C12   C     C_R   0.998600 0.736835 0.501454 0.549491
C13   C     C_R   0.145025 0.471804 0.234641 0.008054
C14   C     C_R   0.904909 0.494023 0.910794 -0.088968
C15   C     C_R   0.113080 0.465900 0.092716 -0.048613
C16   C     C_R   0.953416 0.510560 0.817173 -0.102095
C17   C     C_R   0.072794 0.509352 0.176276 -0.106428
C18   C     C_R   0.714969 0.446983 0.822918 -0.140406
C19   C     C_R   0.274936 0.410304 0.201874 -0.078274
C20   C     C_R   0.668819 0.415496 0.916949 0.004038
C21   C     C_R   0.326514 0.380899 0.112285 0.013962
C22   C     C_R   0.764607 0.442868 0.962008 0.026720
C23   C     C_R   0.578219 0.365551 0.104792 -0.101628
C24   C     C_R   0.231838 0.392489 0.063507 0.034684
C25   C     C_R   0.523758 0.372071 0.968811 -0.008072
C26   C     C_R   0.475244 0.364226 0.063819 0.000336
C27   C     C_2   0.785766 0.465117 0.114142 0.588830
C28   C     C_2   0.161760 0.303797 0.944834 0.561582
C29   C     C_3   0.705333 0.098870 0.557134 -0.208140
C30   C     C_3   0.645488 0.042442 0.656506 -0.294921
C31   C     C_3   0.480399 0.051185 0.698994 -0.403462
C32   C     C_3   0.187767 0.884800 0.577538 -0.208295
C33   C     C_3   0.080007 0.838050 0.671891 -0.322322
C34   C     C_R   0.421217 0.342724 0.930330 -0.124106
C35   C     C_3   0.159312 0.801035 0.736999 -0.443856
C36   C     C_2   0.747042 0.879165 0.480065 0.632240
C37   C     C_2   0.271652 0.115281 0.431337 0.638603
C38   C     C_2   0.543253 0.391989 0.655166 0.569529
C39   C     C_2   0.422259 0.664406 0.374495 0.654191
C40   C     C_2   0.291365 0.321476 0.614692 0.621657
C41   C     C_2   0.722676 0.641470 0.353639 0.599956
C42   C     C_R   0.716247 0.417135 0.056970 0.084884
C43   C     C_R   0.272317 0.348942 0.979121 0.052751
C44   C     C_R   0.861735 0.058713 0.512253 -0.051954
C45   C     C_R   0.107332 0.936806 0.516356 -0.029310
C46   C     C_R   0.872479 0.935806 0.496019 0.031807
Cu1   Cu    Cu3+1 0.140660 0.500020 0.500000 1.063387
Cu2   Cu    Cu3+1 0.859340 0.499980 0.500000 1.069128
H1    H     H_    0.336081 0.391765 0.245840 0.181075
H2    H     H_    0.956127 0.237426 0.973621 0.340444
H3    H     H_    0.448946 0.147268 0.700912 0.217486
H4    H     H_    0.425911 0.005623 0.659912 0.180495
H5    H     H_    0.441865 0.005057 0.769006 0.146927
H6    H     H_    0.669514 0.944258 0.662268 0.193915
H7    H     H_    0.701105 0.086758 0.695591 0.167821
H8    H     H_    0.688822 0.195787 0.550168 0.226057
H9    H     H_    0.632857 0.069419 0.522548 0.183744
H10   H     H_    0.239472 0.730839 0.710691 0.175710
H11   H     H_    0.216561 0.881627 0.747417 0.161733
H12   H     H_    0.638479 0.444803 0.789213 0.175295
H13   H     H_    0.078837 0.763103 0.803184 0.156489
H14   H     H_    0.003933 0.910817 0.698787 0.167902
H15   H     H_    0.014285 0.757797 0.668719 0.173028
H16   H     H_    0.260710 0.811977 0.548656 0.220566
H17   H     H_    0.258417 0.957290 0.586449 0.204604
H18   H     H_    0.558246 0.777482 0.532148 0.336599
H19   H     H_    0.490395 0.104800 0.395908 0.362092
H20   H     H_    0.635197 0.279642 0.726549 0.298571
H21   H     H_    0.387848 0.840393 0.341899 0.358406
H22   H     H_    0.122230 0.258881 0.725933 0.341856
H23   H     H_    0.985792 0.571996 0.195749 0.173128
H24   H     H_    0.781370 0.713536 0.224051 0.371029
H25   H     H_    0.065059 0.543033 0.780221 0.174927
H26   H     H_    0.980263 0.518621 0.941611 0.136586
H27   H     H_    0.062343 0.498796 0.046406 0.153525
H28   H     H_    0.546541 0.344248 0.176759 0.164348
H29   H     H_    0.456010 0.315032 0.863820 0.168709
H30   H     H_    0.796532 0.437113 0.239450 0.352285
N1    N     N_R   0.352080 0.500030 0.499980 -0.316369
N2    N     N_R   0.647920 0.499970 0.500020 -0.288901
O1    O     O_R   0.118740 0.319660 0.500000 -0.456483
O2    O     O_R   0.785749 0.390596 0.190970 -0.669484
O3    O     O_2   0.196573 0.286585 0.866051 -0.485556
O4    O     O_R   0.019540 0.272805 0.004124 -0.687146
O5    O     O_2   0.724716 0.912405 0.410614 -0.456111
O6    O     O_R   0.644797 0.801482 0.548592 -0.694364
O7    O     O_2   0.285521 0.200406 0.372841 -0.520820
O8    O     O_R   0.396636 0.061790 0.439277 -0.668955
O9    O     O_2   0.450114 0.421356 0.722876 -0.525870
O10   O     O_R   0.651837 0.315129 0.662536 -0.710803
O11   O     O_2   0.414841 0.634686 0.304737 -0.461866
O12   O     O_R   0.881260 0.680340 0.500000 -0.428025
O13   O     O_R   0.410540 0.786452 0.390484 -0.686803
O14   O     O_2   0.307664 0.221171 0.587937 -0.557930
O15   O     O_R   0.185367 0.335971 0.697593 -0.627513
O16   O     O_2   0.823981 0.697012 0.361313 -0.450841
O17   O     O_R   0.707923 0.652055 0.269454 -0.668073
O18   O     O_R   0.881170 0.319630 0.500010 -0.496746
O19   O     O_R   0.118830 0.680370 0.499990 -0.515669
O20   O     O_R   0.055570 0.500030 0.629830 -0.488583
O21   O     O_R   0.944430 0.499970 0.370170 -0.493160
O22   O     O_R   0.818000 0.500000 0.629840 -0.464008
O23   O     O_R   0.182000 0.500000 0.370160 -0.465633
O24   O     O_2   0.823363 0.573141 0.101598 -0.540600

loop_
_geom_bond_atom_site_label_1
_geom_bond_atom_site_label_2
_ccdc_geom_bond_type
C15   H27   S    
C21   C26   A    
C11   C18   A    
C28   O4    S    
C32   C45   S    
C37   O8    S    
C2    C37   S    
Cu1   N1    S    
C31   H4    S    
H2    O4    S    
C30   H6    S    
C38   O9    D    
H19   O8    S    
C23   C42   A    
C35   H10   S    
C14   H26   S    
C10   O23   A    
C19   C21   A    
H21   O13   S    
C34   H29   S    
C30   C31   S    
C41   O16   D    
C20   C25   A    
C1    O1    A    
C27   O24   D    
Cu1   O19   S    
C35   H11   S    
C23   C26   A    
C19   H1    S    
C39   O13   S    
C12   O19   A    
C3    C12   S    
C33   H14   S    
H20   O10   S    
C7    C40   S    
C36   C46   S    
C23   H28   S    
C18   C20   A    
C25   C34   A    
C5    C38   S    
C28   O3    D    
C39   O11   D    
C44   C46   A    
H24   O17   S    
C10   O21   A    
C2    C45   A    
Cu1   O23   S    
C13   C19   A    
C16   H25   S    
C8    C41   S    
C32   H16   S    
C40   O14   D    
C5    C7    A    
C9    O22   A    
C6    C8    A    
C4    C44   A    
C36   O6    S    
C25   C26   A    
C3    C45   A    
Cu1   O20   S    
C2    C4    A    
C29   C30   S    
C11   C16   A    
H30   O2    S    
Cu1   Cu2   S    
C33   H15   S    
Cu2   O22   S    
C35   H13   S    
C31   H5    S    
C5    N2    A    
C9    C11   S    
C18   H12   S    
C15   C24   A    
C20   C22   A    
C17   H23   S    
C9    O20   A    
C29   C44   S    
C14   C16   A    
C40   O15   S    
C7    N1    A    
C29   H9    S    
C15   C17   A    
C3    C46   A    
C12   O12   A    
C27   O2    S    
C37   O7    D    
C34   C43   A    
C31   H3    S    
C10   C13   S    
C1    O18   A    
H18   O6    S    
C29   H8    S    
C36   O5    D    
Cu2   O18   S    
C30   H7    S    
C38   O10   S    
C28   C43   S    
C13   C17   A    
C1    C4    S    
C32   C33   S    
Cu2   N2    S    
H22   O15   S    
C27   C42   S    
C14   C22   A    
C6    N1    A    
C22   C42   A    
Cu2   O21   S    
C33   C35   S    
C41   O17   S    
Cu1   O1    S    
Cu2   O12   S    
C21   C24   A    
C8    N2    A    
C24   C43   A    
C6    C39   S    
C32   H17   S    
