data_mof_unit_4471.cif
_audit_creation_date              2012-12-10T20:02:21-0500
_audit_creation_method            fapswitch 2.2
_symmetry_space_group_name_H-M    P1
_symmetry_Int_Tables_number       1
_space_group_crystal_system       triclinic
_cell_length_a                    10.733797
_cell_length_b                    14.940405
_cell_length_c                    14.287007
_cell_angle_alpha                 88.990249
_cell_angle_beta                  90.599774
_cell_angle_gamma                 91.683845
_cell_volume                      2289.70988451

loop_
_atom_site_label
_atom_site_type_symbol
_atom_type_description
_atom_site_fract_x
_atom_site_fract_y
_atom_site_fract_z
_atom_type_partial_charge
C1    C     C_R   0.497921 0.327819 0.500671 0.857622
C2    C     C_R   0.501275 0.673012 0.498985 0.861645
C3    C     C_R   0.872042 0.495448 0.501756 -0.089229
C4    C     C_R   0.127613 0.500709 0.497662 -0.094233
C5    C     C_R   0.938551 0.455896 0.576601 -0.000630
C6    C     C_R   0.060544 0.537288 0.421507 -0.006580
C7    C     C_R   0.464147 0.086723 0.571764 -0.129342
C8    C     C_R   0.533264 0.915943 0.421141 -0.123308
C9    C     C_R   0.438336 0.177350 0.565384 -0.062382
C10   C     C_R   0.509887 0.824109 0.414753 -0.014177
C11   C     C_R   0.508147 0.231965 0.502495 -0.099593
C12   C     C_R   0.516477 0.770608 0.498045 -0.119803
C13   C     C_R   0.597521 0.195602 0.444763 -0.059242
C14   C     C_R   0.547240 0.811092 0.583846 -0.164210
C15   C     C_R   0.620915 0.105381 0.450843 -0.138653
C16   C     C_R   0.567855 0.902450 0.588538 -0.146300
C17   C     C_R   0.553852 0.050968 0.513944 0.052450
C18   C     C_R   0.558973 0.954804 0.507496 0.065038
C19   C     C_R   0.442832 0.430553 0.105294 -0.218904
C20   C     C_R   0.590873 0.547954 0.895482 -0.229447
C21   C     C_R   0.438578 0.432659 0.204049 0.035037
C22   C     C_R   0.589236 0.549256 0.796454 0.042965
C23   C     C_R   0.260233 0.501388 0.499203 0.870189
C24   C     C_R   0.739593 0.497526 0.500722 0.904077
C25   C     C_R   0.561176 0.567436 0.202449 0.545612
C26   C     C_R   0.409658 0.452622 0.797459 0.566168
C27   C     C_R   0.556707 0.570340 0.104163 -0.204907
C28   C     C_R   0.406472 0.454893 0.895636 -0.224965
C29   C     C_R   0.499494 0.500729 0.053191 -0.010215
C30   C     C_R   0.498890 0.501155 0.947068 -0.000847
C31   C     C_R   0.185828 0.708119 0.243571 -0.121155
C32   C     C_R   0.745693 0.285890 0.719671 -0.071299
C33   C     C_R   0.150713 0.670880 0.330304 0.458544
C34   C     C_R   0.807127 0.325906 0.643110 0.502873
C35   C     C_R   0.117412 0.578372 0.336385 -0.008883
C36   C     C_R   0.878409 0.406369 0.656004 -0.047511
C37   C     C_R   0.121664 0.525937 0.255841 -0.174525
C38   C     C_R   0.893622 0.440440 0.746586 -0.121050
C39   C     C_R   0.158638 0.563915 0.169587 0.022636
C40   C     C_R   0.834654 0.398126 0.823448 0.029907
C41   C     C_R   0.191207 0.655223 0.164250 -0.282712
C42   C     C_R   0.758860 0.321652 0.808951 -0.322255
C43   C     C_R   0.932837 0.535161 0.425327 -0.212538
C44   C     C_R   0.066742 0.460415 0.574114 -0.222386
H1    H     H_    0.219423 0.685971 0.098286 0.170569
H2    H     H_    0.711163 0.288738 0.867084 0.167036
H3    H     H_    0.688894 0.077451 0.404938 0.153158
H4    H     H_    0.586896 0.932768 0.655742 0.154557
H5    H     H_    0.398712 0.374674 0.069550 0.210429
H6    H     H_    0.664911 0.583886 0.931963 0.211812
H7    H     H_    0.600291 0.627405 0.068708 0.183925
H8    H     H_    0.330626 0.419403 0.930721 0.189489
H9    H     H_    0.209753 0.778896 0.237684 0.181507
H10   H     H_    0.688949 0.225531 0.710101 0.170457
H11   H     H_    0.093290 0.455771 0.260346 0.184410
H12   H     H_    0.950477 0.500710 0.756713 0.213356
H13   H     H_    0.880692 0.565536 0.368143 0.177738
H14   H     H_    0.119034 0.429571 0.630827 0.199728
H15   H     H_    0.408380 0.042586 0.616742 0.183288
H16   H     H_    0.522593 0.958637 0.359542 0.178861
H17   H     H_    0.651218 0.237563 0.396359 0.165269
H18   H     H_    0.554638 0.772401 0.648365 0.164223
N1    N     N_R   0.500000 0.499980 0.252470 -0.200872
N2    N     N_R   0.500000 0.500020 0.747530 -0.196428
O1    O     O_R   0.500010 0.369070 0.579480 -0.642074
O2    O     O_R   0.499990 0.630930 0.420520 -0.644804
O3    O     O_R   0.500010 0.369060 0.420520 -0.639937
O4    O     O_R   0.499990 0.630940 0.579480 -0.641551
O5    O     O_R   0.316760 0.500010 0.579480 -0.620775
O6    O     O_R   0.683240 0.499990 0.420520 -0.644679
O7    O     O_R   0.316760 0.500000 0.420520 -0.649095
O8    O     O_R   0.683240 0.500000 0.579480 -0.642318
Zn1   Zn    Zn3+2 0.500000 0.500010 0.606140 0.941164
Zn2   Zn    Zn3+2 0.500000 0.499990 0.393860 0.931732
C45   C     C_2   0.362221 0.362739 0.252819 0.478326
H19   H     H_    0.320639 0.375278 0.319393 0.103425
O9    O     O_2   0.341658 0.289875 0.217478 -0.559372
C46   C     C_2   0.684282 0.606836 0.748123 0.411797
H20   H     H_    0.675856 0.624579 0.675414 0.127984
O10   O     O_2   0.774532 0.637787 0.790621 -0.565634
O11   O     O_3   0.629254 0.634549 0.245392 -0.754421
H21   H     H_    0.653929 0.612598 0.307826 0.369337
O12   O     O_3   0.318336 0.401566 0.754491 -0.763869
H22   H     H_    0.347692 0.388397 0.691743 0.364015
O13   O     O_3   0.148075 0.727436 0.405672 -0.776987
H23   H     H_    0.129436 0.692463 0.463509 0.339964
O14   O     O_3   0.796660 0.283376 0.558354 -0.798018
H24   H     H_    0.855872 0.311136 0.513121 0.329865
C47   C     C_2   0.160124 0.509900 0.083962 0.458713
H25   H     H_    0.189237 0.540676 0.018043 0.083410
O15   O     O_2   0.128975 0.430617 0.085755 -0.552026
C48   C     C_2   0.850673 0.433151 0.919087 0.476800
H26   H     H_    0.803344 0.399844 0.977376 0.066235
O16   O     O_2   0.916282 0.499619 0.934045 -0.541671
C49   C     C_2   0.331764 0.211897 0.617687 0.445652
H27   H     H_    0.288996 0.273580 0.595153 0.038035
O17   O     O_2   0.288835 0.170931 0.685281 -0.529710
C50   C     C_2   0.472329 0.789280 0.321530 0.482422
H28   H     H_    0.414891 0.729314 0.314917 0.107456
O18   O     O_2   0.503483 0.829080 0.249706 -0.545384

loop_
_geom_bond_atom_site_label_1
_geom_bond_atom_site_label_2
_ccdc_geom_bond_type
O14   H24   S    
C26   O12   S    
C27   C29   A    
C11   C13   A    
C23   O5    A    
C49   H27   S    
C1    C11   S    
C15   H3    S    
C2    C12   S    
C16   H4    S    
O11   H21   S    
C24   O6    A    
C39   C41   A    
C20   C30   A    
O13   H23   S    
C3    C43   A    
C19   C21   A    
C2    O4    A    
C25   N1    A    
C46   O10   D    
O2    Zn2   S    
C5    C36   S    
O1    Zn1   S    
C6    C35   S    
C15   C17   A    
C42   H2    S    
C32   H10   S    
C10   C50   S    
C33   O13   S    
C20   H6    S    
C33   C35   A    
C44   H14   S    
C7    C17   A    
O6    Zn2   S    
C1    O1    A    
N2    Zn1   S    
C31   C33   A    
O5    Zn1   S    
C47   O15   D    
C9    C49   S    
C40   C42   A    
C25   O11   S    
C3    C24   S    
C7    H15   S    
C27   H7    S    
C23   O7    A    
C22   C46   S    
C4    C6    A    
C4    C23   S    
C46   H20   S    
C4    C44   A    
C2    O2    A    
O4    Zn1   S    
C40   C48   S    
C32   C34   A    
C45   H19   S    
C29   C30   S    
C9    C11   A    
C19   H5    S    
O12   H22   S    
C48   O16   D    
C17   C18   S    
C13   H17   S    
O3    Zn2   S    
C31   H9    S    
C45   O9    D    
C10   C12   A    
C16   C18   A    
C5    C44   A    
C12   C14   A    
C50   O18   D    
C6    C43   A    
C13   C15   A    
C14   C16   A    
C19   C29   A    
C24   O8    A    
C7    C9    A    
C32   C42   A    
C31   C41   A    
C35   C37   A    
C20   C22   A    
O8    Zn1   S    
C3    C5    A    
O7    Zn2   S    
C49   O17   D    
N1    Zn2   S    
C26   N2    A    
C25   C27   A    
C21   C45   S    
C26   C28   A    
C28   C30   A    
C37   C39   A    
C8    H16   S    
C38   C40   A    
C28   H8    S    
C36   C38   A    
C48   H26   S    
C1    O3    A    
C34   C36   A    
C34   O14   S    
C8    C18   A    
C21   N1    A    
C43   H13   S    
C22   N2    A    
C37   H11   S    
C38   H12   S    
C8    C10   A    
C50   H28   S    
C41   H1    S    
C47   H25   S    
C39   C47   S    
C14   H18   S    
