data_mof_unit_855.cif
_audit_creation_date              2012-12-10T20:27:11-0500
_audit_creation_method            fapswitch 2.2
_symmetry_space_group_name_H-M    P1
_symmetry_Int_Tables_number       1
_space_group_crystal_system       triclinic
_cell_length_a                    10.768408
_cell_length_b                    10.710176
_cell_length_c                    9.901946
_cell_angle_alpha                 90.448205
_cell_angle_beta                  103.774433
_cell_angle_gamma                 89.913451
_cell_volume                      1109.12931882

loop_
_atom_site_label
_atom_site_type_symbol
_atom_type_description
_atom_site_fract_x
_atom_site_fract_y
_atom_site_fract_z
_atom_type_partial_charge
C1    C     C_R   0.500244 0.260174 0.499793 0.892278
C2    C     C_R   0.607568 0.528169 0.099806 -0.125954
C3    C     C_R   0.607900 0.526977 0.956270 -0.082939
C4    C     C_R   0.259077 0.504197 0.442101 0.933125
C5    C     C_R   0.388275 0.487438 0.899267 0.167199
C6    C     C_3   0.294114 0.383796 0.860981 -0.542686
C7    C     C_3   0.302366 0.370445 0.015995 -0.014538
C8    C     C_R   0.500318 0.739619 0.500298 0.885304
C9    C     C_R   0.741000 0.504284 0.557964 0.950673
C10   C     C_2   0.122465 0.520378 0.409551 -0.370299
C11   C     C_2   0.068126 0.552916 0.512054 -0.154117
C12   C     C_R   0.507419 0.128068 0.499654 -0.085405
C13   C     C_2   0.877670 0.521353 0.590610 -0.361888
C14   C     C_2   0.931895 0.551500 0.487749 -0.142109
C15   C     C_R   0.566546 0.064382 0.620065 0.041032
C16   C     C_3   0.490554 0.221775 0.065559 -0.720803
C17   C     C_R   0.460768 0.062839 0.375292 -0.229671
C18   C     C_R   0.461848 0.934429 0.374808 -0.193037
C19   C     C_R   0.507341 0.871297 0.500017 -0.165011
C20   C     C_R   0.566464 0.936362 0.620223 0.098474
C21   C     C_3   0.543410 0.930691 0.762868 0.486729
C22   C     C_3   0.543529 0.072141 0.762864 -0.558577
C23   C     C_R   0.389583 0.482045 0.041547 0.191492
F1    F     F_    0.647659 0.881708 0.857322 -0.647152
H1    H     H_    0.876427 0.564213 0.381641 0.179072
H2    H     H_    0.066404 0.503744 0.304134 0.146717
H3    H     H_    0.415500 0.110310 0.281150 0.190693
H4    H     H_    0.419686 0.885199 0.278819 0.173343
H5    H     H_    0.450308 0.888007 0.766979 0.072804
H6    H     H_    0.448593 0.112667 0.763551 0.166307
H7    H     H_    0.297817 0.178414 0.044948 0.217870
H8    H     H_    0.504872 0.119055 0.072405 0.224898
H9    H     H_    0.559602 0.264670 0.154690 0.269551
H10   H     H_    0.512754 0.253657 0.967984 0.232343
H11   H     H_    0.626167 0.114038 0.838778 0.235020
H12   H     H_    0.695038 0.549210 0.175892 0.146569
H13   H     H_    0.695693 0.546490 0.925522 0.162014
H14   H     H_    0.199291 0.418280 0.802726 0.173506
H15   H     H_    0.330203 0.303364 0.810081 0.222469
H16   H     H_    0.209988 0.388569 0.044276 0.125017
H17   H     H_    0.123713 0.569888 0.617602 0.181583
H18   H     H_    0.933765 0.508082 0.696394 0.144293
N1    N     N_R   0.499160 0.499140 0.142600 -0.107009
N2    N     N_R   0.499160 0.499180 0.856960 -0.106926
N3    N     N_2   0.360195 0.252482 0.071579 -0.279351
O1    O     O_R   0.500020 0.316790 0.614700 -0.621132
O2    O     O_R   0.500000 0.316760 0.385350 -0.607671
O3    O     O_R   0.317820 0.500020 0.571850 -0.616071
O4    O     O_R   0.317800 0.499980 0.342510 -0.620149
O5    O     O_R   0.500000 0.683240 0.614650 -0.606784
O6    O     O_R   0.499980 0.683210 0.385300 -0.615768
O7    O     O_R   0.682200 0.500020 0.657490 -0.616268
O8    O     O_R   0.682180 0.499980 0.428150 -0.626761
Zn1   Zn    Zn3+2 0.500010 0.500020 0.653140 0.956155
Zn2   Zn    Zn3+2 0.499990 0.499980 0.346860 0.951545

loop_
_geom_bond_atom_site_label_1
_geom_bond_atom_site_label_2
_ccdc_geom_bond_type
C12   C17   A    
C16   N3    S    
C7    H16   S    
C6    H14   S    
C6    C7    S    
N2    Zn1   S    
C16   H9    S    
C16   H8    S    
C4    O4    A    
C19   C20   A    
C5    C23   A    
C12   C15   A    
C2    N1    A    
O1    Zn1   S    
C2    C3    A    
O2    Zn2   S    
C18   H4    S    
O4    Zn2   S    
C21   C22   S    
O3    Zn1   S    
C22   H11   S    
C1    C12   S    
C8    O6    A    
C10   H2    S    
O5    Zn1   S    
C9    O7    A    
C7    C23   S    
C5    C6    S    
C7    N3    S    
N1    Zn2   S    
C13   H18   S    
C5    N2    A    
O7    Zn1   S    
C11   H17   S    
O6    Zn2   S    
O8    Zn2   S    
C14   H1    S    
C4    O3    A    
C15   C20   A    
C3    N2    A    
C11   C14   S    
C1    O1    A    
C8    C19   S    
C9    O8    A    
C10   C11   D    
C4    C10   S    
C17   H3    S    
C8    O5    A    
C23   N1    A    
C20   C21   S    
C3    H13   S    
C17   C18   A    
C18   C19   A    
H7    N3    S    
C21   F1    S    
C2    H12   S    
C9    C13   S    
C6    H15   S    
C1    O2    A    
C22   H6    S    
C16   H10   S    
C13   C14   D    
C21   H5    S    
C15   C22   S    
