data_mof_unit_3547.cif
_audit_creation_date              2012-12-10T17:03:44-0500
_audit_creation_method            fapswitch 2.2
_symmetry_space_group_name_H-M    P1
_symmetry_Int_Tables_number       1
_space_group_crystal_system       triclinic
_cell_length_a                    10.011932
_cell_length_b                    10.667129
_cell_length_c                    13.116167
_cell_angle_alpha                 92.11228
_cell_angle_beta                  70.510876
_cell_angle_gamma                 94.805763
_cell_volume                      1315.82795499

loop_
_atom_site_label
_atom_site_type_symbol
_atom_type_description
_atom_site_fract_x
_atom_site_fract_y
_atom_site_fract_z
_atom_type_partial_charge
C1    C     C_R   0.505146 0.737526 0.502684 0.887467
C2    C     C_R   0.373669 0.528186 0.820882 -0.116914
C3    C     C_2   0.605168 0.070191 0.431113 -0.323945
C4    C     C_R   0.422625 0.508888 0.703820 0.853887
C5    C     C_2   0.483967 0.127702 0.473813 0.265511
C6    C     C_2   0.604290 0.934720 0.424753 -0.109215
C7    C     C_2   0.521410 0.869668 0.509933 -0.170444
C8    C     C_2   0.100304 0.430206 0.432327 0.516007
C9    C     C_2   0.941847 0.420390 0.444084 -0.274367
C10   C     C_R   0.495366 0.261145 0.495111 0.808851
C11   C     C_R   0.578730 0.503350 0.295682 0.899801
C12   C     C_R   0.433446 0.552495 0.985168 0.105438
C13   C     C_R   0.788526 0.629392 0.017794 -0.335826
C14   C     C_R   0.626900 0.529114 0.179986 -0.149741
C15   C     C_R   0.233243 0.487972 0.881442 -0.197215
C16   C     C_R   0.190661 0.486507 0.993499 -0.142569
C17   C     C_R   0.289949 0.515938 0.045366 -0.205425
C18   C     C_3   0.929994 0.719053 0.168208 0.067709
C19   C     C_3   0.994959 0.736037 0.257910 -0.752814
C20   C     C_3   0.141609 0.280205 0.289893 0.087472
C21   C     C_3   0.258337 0.207846 0.210810 -0.734458
C22   C     C_R   0.469553 0.575111 0.873992 0.086386
C23   C     C_R   0.543250 0.564287 0.030941 0.079372
C24   C     C_R   0.679553 0.619760 0.972043 0.127185
C25   C     C_R   0.704969 0.663441 0.867949 -0.218458
C26   C     C_R   0.601229 0.641412 0.819238 -0.200512
C27   C     C_R   0.522787 0.514201 0.131351 -0.337193
C28   C     C_R   0.761931 0.587266 0.123862 0.474928
H1    H     H_    0.669020 0.889068 0.351573 0.140095
H2    H     H_    0.251408 0.511816 0.132509 0.153169
H3    H     H_    0.081865 0.457058 0.040101 0.183564
H4    H     H_    0.625137 0.677695 0.738697 0.168626
H5    H     H_    0.708273 0.123072 0.405862 0.150433
H6    H     H_    0.851259 0.791146 0.180698 0.126737
H7    H     H_    0.016281 0.735127 0.089438 0.156761
H8    H     H_    0.074899 0.666354 0.248081 0.250438
H9    H     H_    0.047714 0.832310 0.254894 0.215179
H10   H     H_    0.910645 0.722553 0.337910 0.261476
H11   H     H_    0.138220 0.175135 0.549283 0.365661
H12   H     H_    0.467575 0.914168 0.586654 0.164198
H13   H     H_    0.089611 0.330977 0.242497 0.121796
H14   H     H_    0.064625 0.209365 0.343435 0.172860
H15   H     H_    0.323899 0.168002 0.253430 0.301634
H16   H     H_    0.209867 0.129552 0.173468 0.199987
H17   H     H_    0.327534 0.270010 0.145230 0.219480
H18   H     H_    0.076053 0.538768 0.564441 0.111378
H19   H     H_    0.899390 0.346568 0.402275 0.162620
H20   H     H_    0.891464 0.576243 0.531779 0.157866
H21   H     H_    0.806550 0.710859 0.822818 0.155619
H22   H     H_    0.893373 0.669361 0.971219 0.144797
H23   H     H_    0.424074 0.462965 0.174387 0.208561
H24   H     H_    0.157162 0.455025 0.842131 0.163153
N1    N     N_2   0.148270 0.498670 0.498870 -0.203339
N2    N     N_2   0.852610 0.498640 0.498840 -0.191612
O1    O     O_R   0.386950 0.680940 0.500020 -0.560333
O2    O     O_2   0.319352 0.946479 0.409432 -0.269407
O3    O     O_2   0.246578 0.997590 0.602717 -0.353575
O4    O     O_3   0.197293 0.151322 0.475224 -0.523212
O5    O     O_3   0.200719 0.365889 0.351020 -0.557209
O6    O     O_R   0.613110 0.680900 0.499980 -0.642285
O7    O     O_R   0.330780 0.500000 0.653640 -0.621958
O8    O     O_R   0.556930 0.499960 0.653610 -0.602866
O9    O     O_R   0.386890 0.319100 0.500020 -0.540688
O10   O     O_R   0.613050 0.319060 0.499980 -0.624921
O11   O     O_R   0.443070 0.500040 0.346390 -0.564272
O12   O     O_R   0.669220 0.500000 0.346360 -0.564409
O13   O     O_3   0.866951 0.594997 0.171696 -0.612299
S1    S     S_3+6 0.309807 0.051237 0.490863 0.014519
Zn1   Zn    Zn3+2 0.349000 0.500030 0.500020 1.021846
Zn2   Zn    Zn3+2 0.651000 0.499970 0.499980 0.949017

loop_
_geom_bond_atom_site_label_1
_geom_bond_atom_site_label_2
_ccdc_geom_bond_type
C8    N1    D    
C2    C22   A    
C2    C4    S    
C7    H12   S    
C13   C28   A    
C26   H4    S    
C6    C7    D    
C2    C15   A    
C19   H10   S    
C23   C27   A    
C14   C27   A    
C21   H16   S    
C18   H7    S    
C20   H14   S    
C10   O9    A    
N2    Zn2   S    
C11   O12   A    
O6    Zn2   S    
C23   C24   A    
C3    C6    S    
N1    Zn1   S    
C28   O13   S    
C20   H13   S    
C1    O1    A    
C3    C5    D    
C5    C10   S    
O1    Zn1   S    
C15   H24   S    
C24   C25   A    
C20   O5    S    
H20   N2    S    
C17   H2    S    
C18   H6    S    
C12   C23   A    
O12   Zn2   S    
C5    S1    S    
O11   Zn1   S    
C11   O11   A    
H18   N1    S    
O4    S1    S    
O2    S1    D    
C27   H23   S    
C9    H19   S    
O10   Zn2   S    
C19   H8    S    
C8    O5    S    
O9    Zn1   S    
C11   C14   S    
C25   H21   S    
C21   H15   S    
C3    H5    S    
O3    S1    D    
C15   C16   A    
C4    O8    A    
C12   C17   A    
C6    H1    S    
C12   C22   A    
C20   C21   S    
O8    Zn2   S    
C18   C19   S    
C22   C26   A    
C1    O6    A    
O7    Zn1   S    
C18   O13   S    
C16   C17   A    
C9    N2    D    
C19   H9    S    
C14   C28   A    
C25   C26   A    
C1    C7    S    
H11   O4    S    
C16   H3    S    
C4    O7    A    
C10   O10   A    
C13   H22   S    
C13   C24   A    
C8    C9    S    
C21   H17   S    
