data_mof_unit_820.cif
_audit_creation_date              2012-12-10T16:51:50-0500
_audit_creation_method            fapswitch 2.2
_symmetry_space_group_name_H-M    P1
_symmetry_Int_Tables_number       1
_space_group_crystal_system       triclinic
_cell_length_a                    18.501321
_cell_length_b                    18.367175
_cell_length_c                    18.389004
_cell_angle_alpha                 90.647684
_cell_angle_beta                  119.689257
_cell_angle_gamma                 119.89404
_cell_volume                      4421.1693528

loop_
_atom_site_label
_atom_site_type_symbol
_atom_type_description
_atom_site_fract_x
_atom_site_fract_y
_atom_site_fract_z
_atom_type_partial_charge
C1    C     C_R   0.777057 0.641444 0.638985 0.853061
C2    C     C_2   0.113426 0.303795 0.290199 -0.082516
C3    C     C_2   0.460479 0.166157 0.720059 0.393834
C4    C     C_R   0.222769 0.360724 0.360658 0.812875
C5    C     C_2   0.528351 0.194989 0.809844 -0.221073
C6    C     C_2   0.483552 0.230245 0.672591 0.353025
C7    C     C_2   0.484760 0.302352 0.691226 0.284070
C8    C     C_2   0.053364 0.793030 0.717829 -0.025506
C9    C     C_2   0.112401 0.802473 0.804194 -0.346314
C10   C     C_2   0.943391 0.723259 0.666386 -0.372989
C11   C     C_2   0.885983 0.714324 0.694961 -0.088551
C12   C     C_3   0.580262 0.830997 0.786630 0.327701
C13   C     C_2   0.454149 0.162220 0.237551 0.454935
C14   C     C_2   0.526999 0.193718 0.222212 -0.269583
C15   C     C_2   0.471528 0.218712 0.308326 -0.146864
C16   C     C_R   0.498830 0.637288 0.360332 0.842927
C17   C     C_2   0.495723 0.300154 0.304407 -0.486024
C18   C     C_2   0.420991 0.736902 0.180304 -0.174650
C19   C     C_2   0.507411 0.816056 0.203505 0.364021
C20   C     C_2   0.420917 0.699390 0.250440 -0.045069
C21   C     C_2   0.490953 0.681894 0.294679 -0.236800
C22   C     C_R   0.503583 0.139140 0.861652 0.859288
C23   C     C_3   0.499620 0.780350 0.685886 0.379309
C24   C     C_R   0.501619 0.863523 0.139945 0.817933
C25   C     C_R   0.777138 0.139323 0.143479 0.701284
C26   C     C_R   0.223126 0.862515 0.861028 0.906628
C27   C     C_R   0.504259 0.141325 0.145217 0.884828
C28   C     C_R   0.496818 0.361063 0.638281 0.783412
C29   C     C_R   0.498014 0.856945 0.858103 0.920700
C30   C     C_R   0.501064 0.358392 0.360947 0.874231
C31   C     C_R   0.501091 0.642220 0.641888 0.894400
C32   C     C_3   0.581369 0.749060 0.801487 -0.147886
C33   C     C_3   0.494231 0.714291 0.813679 -0.141132
C34   C     C_3   0.412992 0.745101 0.698484 0.392057
C35   C     C_3   0.494150 0.797338 0.799888 -0.224083
C36   C     C_2   0.487967 0.672958 0.882076 0.502561
C37   C     C_2   0.077588 0.341836 0.219705 0.374008
C38   C     C_3   0.312581 0.043514 0.590902 0.104546
C39   C     C_3   0.241612 0.067170 0.526788 -0.291851
C40   C     C_3   0.191751 0.018500 0.430107 -0.905523
C41   C     C_2   0.633494 0.281132 0.861550 0.301897
C42   C     C_3   0.560918 0.187185 0.630330 0.067444
C43   C     C_3   0.659590 0.261828 0.643081 -0.291025
C44   C     C_3   0.733115 0.235540 0.668968 -0.926380
C45   C     C_3   0.413818 0.662681 0.711793 -0.174032
C46   C     C_3   0.484608 0.393487 0.784170 0.100341
C47   C     C_3   0.598125 0.456215 0.861514 -0.366890
C48   C     C_3   0.627247 0.548631 0.897313 -0.836782
C49   C     C_2   0.090478 0.848269 0.669834 0.469452
C50   C     C_2   0.926577 0.782977 0.775195 0.373443
C51   C     C_3   0.280554 0.087995 0.138158 0.110965
C52   C     C_3   0.183675 0.998116 0.066434 -0.296094
C53   C     C_3   0.093866 0.004537 0.011681 -0.961056
C54   C     C_2   0.678033 0.755648 0.860059 0.453949
C55   C     C_2   0.633924 0.275331 0.287870 0.320771
C56   C     C_3   0.500959 0.698166 0.699813 -0.236523
C57   C     C_2   0.462676 0.183946 0.378523 0.456559
C58   C     C_2   0.325719 0.683390 0.087750 0.348066
C59   C     C_3   0.684490 0.928662 0.310699 0.085178
C60   C     C_3   0.733560 0.891436 0.291201 -0.341888
C61   C     C_3   0.834273 0.966620 0.307989 -0.915106
C62   C     C_2   0.347342 0.688047 0.269319 0.470834
C63   C     C_3   0.725512 0.938748 0.796281 0.109207
C64   C     C_3   0.837213 0.013043 0.869162 -0.315422
C65   C     C_3   0.904164 0.036894 0.835625 -0.952188
C66   C     C_3   0.480187 0.873377 0.604087 0.111315
C67   C     C_2   0.941503 0.165311 0.216073 -0.263504
C68   C     C_3   0.382685 0.833807 0.510234 -0.219536
C69   C     C_3   0.343039 0.891527 0.495578 -0.984496
C70   C     C_3   0.257651 0.709263 0.666616 0.128693
C71   C     C_3   0.148544 0.643097 0.584002 -0.333397
C72   C     C_3   0.071357 0.608618 0.607191 -0.963246
C73   C     C_2   0.321954 0.567557 0.669490 0.395420
C74   C     C_3   0.891083 0.314635 0.274177 0.140228
C75   C     C_3   0.899256 0.370244 0.213179 -0.352572
C76   C     C_3   0.834651 0.405695 0.191955 -0.830839
C77   C     C_2   0.084242 0.176770 0.351777 0.422869
C78   C     C_2   0.887974 0.195542 0.213803 0.403145
C79   C     C_2   0.051769 0.218301 0.284555 0.029484
H1    H     H_    0.077138 0.760329 0.833899 0.157970
H2    H     H_    0.181135 0.047854 0.537310 0.235970
H3    H     H_    0.284633 0.140155 0.539546 0.252235
H4    H     H_    0.251018 0.038889 0.417704 0.291958
H5    H     H_    0.139778 0.035687 0.384969 0.261977
H6    H     H_    0.146623 0.945001 0.414847 0.255049
H7    H     H_    0.674523 0.311218 0.932767 0.125543
H8    H     H_    0.522442 0.127331 0.574780 0.166302
H9    H     H_    0.580126 0.167955 0.691030 0.136558
H10   H     H_    0.641549 0.276586 0.580324 0.194331
H11   H     H_    0.697420 0.323700 0.695861 0.258808
H12   H     H_    0.908702 0.677819 0.602598 0.185437
H13   H     H_    0.754603 0.222817 0.733002 0.275828
H14   H     H_    0.803473 0.290696 0.677075 0.266000
H15   H     H_    0.697243 0.174471 0.616256 0.260280
H16   H     H_    0.439838 0.383745 0.811405 0.167301
H17   H     H_    0.460294 0.422617 0.731983 0.137696
H18   H     H_    0.613987 0.427808 0.916008 0.219651
H19   H     H_    0.646555 0.462719 0.839601 0.261610
H20   H     H_    0.609980 0.577040 0.843071 0.276240
H21   H     H_    0.710258 0.593537 0.951258 0.284926
H22   H     H_    0.584203 0.544529 0.924727 0.248027
H23   H     H_    0.505621 0.322354 0.253376 0.165978
H24   H     H_    0.050859 0.818820 0.598754 0.039017
H25   H     H_    0.999052 0.847689 0.805900 0.091839
H26   H     H_    0.297887 0.138581 0.105043 0.112348
H27   H     H_    0.266606 0.108302 0.184537 0.162000
H28   H     H_    0.197624 0.975866 0.021168 0.234402
H29   H     H_    0.163972 0.947348 0.098470 0.242977
H30   H     H_    0.077779 0.025983 0.055320 0.270942
H31   H     H_    0.024696 0.938148 0.960785 0.296916
H32   H     H_    0.111053 0.053169 0.977104 0.262593
H33   H     H_    0.723484 0.763169 0.836017 0.103593
H34   H     H_    0.541962 0.694899 0.275260 0.157444
H35   H     H_    0.660822 0.302714 0.355684 0.091128
H36   H     H_    0.488413 0.227382 0.438818 0.102703
H37   H     H_    0.256462 0.627206 0.077306 0.066412
H38   H     H_    0.736568 0.968400 0.382911 0.174734
H39   H     H_    0.678709 0.976981 0.276515 0.113905
H40   H     H_    0.748050 0.851941 0.334828 0.222451
H41   H     H_    0.681268 0.846175 0.220953 0.246176
H42   H     H_    0.821155 0.005925 0.263793 0.270674
H43   H     H_    0.868237 0.937835 0.293799 0.264492
H44   H     H_    0.889105 0.011744 0.378570 0.263449
H45   H     H_    0.905388 0.101783 0.169130 0.142760
H46   H     H_    0.270427 0.663871 0.214589 0.019093
H47   H     H_    0.698064 0.962001 0.739466 0.160746
H48   H     H_    0.721189 0.879525 0.772897 0.127187
H49   H     H_    0.843478 0.073522 0.891956 0.238547
H50   H     H_    0.865189 0.990850 0.926876 0.239392
H51   H     H_    0.902314 0.978266 0.815881 0.275767
H52   H     H_    0.984215 0.092367 0.889460 0.270560
H53   H     H_    0.877301 0.058882 0.777571 0.267673
H54   H     H_    0.543034 0.935018 0.608439 0.129107
H55   H     H_    0.471828 0.894881 0.654838 0.151460
H56   H     H_    0.491298 0.615726 0.884926 0.042755
H57   H     H_    0.398898 0.828520 0.460540 0.259124
H58   H     H_    0.322411 0.765550 0.499280 0.268027
H59   H     H_    0.322435 0.894159 0.542379 0.261761
H60   H     H_    0.273790 0.862145 0.426360 0.282789
H61   H     H_    0.401976 0.960234 0.506122 0.265153
H62   H     H_    0.261760 0.765518 0.695885 0.188341
H63   H     H_    0.274651 0.675763 0.716708 0.117305
H64   H     H_    0.130461 0.676524 0.534388 0.226824
H65   H     H_    0.141915 0.585644 0.553440 0.262866
H66   H     H_    0.086763 0.573440 0.655513 0.275463
H67   H     H_    0.117944 0.413754 0.236183 0.083394
H68   H     H_    0.992999 0.560992 0.545857 0.272724
H69   H     H_    0.075447 0.664933 0.636429 0.262089
H70   H     H_    0.303441 0.530952 0.710489 0.043624
H71   H     H_    0.932588 0.362093 0.341029 0.171024
H72   H     H_    0.812575 0.267574 0.255991 0.178946
H73   H     H_    0.980438 0.427614 0.246924 0.213921
H74   H     H_    0.874423 0.329942 0.149712 0.254445
H75   H     H_    0.752498 0.349269 0.153821 0.306871
H76   H     H_    0.845405 0.448236 0.150719 0.242186
H77   H     H_    0.857928 0.446522 0.254365 0.273352
H78   H     H_    0.264597 0.971167 0.579730 0.166740
H79   H     H_    0.042419 0.104536 0.331281 0.043398
H80   H     H_    0.366908 0.052063 0.575769 0.137746
O1    O     O_3   0.500000 0.500000 0.500000 -0.512409
O2    O     O_R   0.270900 0.886160 0.946260 -0.643145
O3    O     O_R   0.560160 0.177420 0.117340 -0.617919
O4    O     O_R   0.729180 0.615300 0.675360 -0.590405
O5    O     O_R   0.440020 0.882760 0.822680 -0.690402
O6    O     O_R   0.439990 0.057240 0.117340 -0.604421
O7    O     O_R   0.560190 0.882760 0.942820 -0.560181
O8    O     O_R   0.729270 0.053840 0.113900 -0.656636
O9    O     O_R   0.270910 0.884750 0.824690 -0.611552
O10   O     O_R   0.560170 0.175430 0.946260 -0.679357
O11   O     O_R   0.440000 0.886160 0.115330 -0.625128
O12   O     O_R   0.439910 0.615300 0.386140 -0.589634
O13   O     O_R   0.270820 0.446200 0.386140 -0.646253
O14   O     O_R   0.560090 0.613880 0.384720 -0.656802
O15   O     O_R   0.439920 0.324620 0.553780 -0.605142
O16   O     O_R   0.560100 0.442800 0.382710 -0.634275
O17   O     O_R   0.560070 0.617290 0.677370 -0.688705
O18   O     O_R   0.439930 0.322630 0.382710 -0.660863
O19   O     O_R   0.439900 0.617290 0.557220 -0.555513
O20   O     O_2   0.478025 0.702253 0.933771 -0.543555
O21   O     O_2   0.006762 0.294278 0.142228 -0.588583
O22   O     O_3   0.360951 0.090380 0.680535 -0.599633
O23   O     O_R   0.560080 0.446200 0.675360 -0.664718
O24   O     O_2   0.677090 0.317887 0.826911 -0.614208
O25   O     O_3   0.494537 0.213918 0.605569 -0.681060
O26   O     O_3   0.458777 0.308632 0.749868 -0.675046
O27   O     O_2   0.159931 0.927872 0.707013 -0.536110
O28   O     O_2   0.878435 0.768916 0.806962 -0.572789
O29   O     O_3   0.361371 0.078462 0.184878 -0.570199
O30   O     O_2   0.707223 0.754514 0.935536 -0.560567
O31   O     O_2   0.693532 0.312408 0.267453 -0.576346
O32   O     O_2   0.428388 0.105492 0.370399 -0.553281
O33   O     O_2   0.323919 0.698293 0.022538 -0.553473
O34   O     O_R   0.729180 0.613880 0.553780 -0.658455
O35   O     O_3   0.590317 0.858792 0.293792 -0.652923
O36   O     O_2   0.373942 0.712631 0.345466 -0.534777
O37   O     O_3   0.667050 0.920722 0.830445 -0.642077
O38   O     O_3   0.505882 0.811658 0.617974 -0.638533
O39   O     O_3   0.325327 0.743302 0.640744 -0.643063
O40   O     O_2   0.267077 0.531272 0.588780 -0.537754
O41   O     O_3   0.940646 0.272991 0.284509 -0.657856
O42   O     O_2   0.151730 0.220998 0.430642 -0.550962
O43   O     O_R   0.270820 0.324620 0.384720 -0.611317
O44   O     O_3   0.500090 0.000040 0.000040 -0.513005
O45   O     O_R   0.440010 0.053840 0.824690 -0.574611
O46   O     O_R   0.560180 0.884750 0.113900 -0.641149
O47   O     O_R   0.729260 0.175430 0.115330 -0.658365
Zn1   Zn    Zn3+2 0.414150 0.543930 0.458110 1.049065
Zn2   Zn    Zn3+2 0.585850 0.541910 0.456060 0.959852
Zn3   Zn    Zn3+2 0.414160 0.370220 0.456060 0.998950
Zn4   Zn    Zn3+2 0.585840 0.543930 0.629770 0.986196
Zn5   Zn    Zn3+2 0.585940 0.956110 0.041940 1.027923
Zn6   Zn    Zn3+2 0.585930 0.129820 0.043980 0.961386
Zn7   Zn    Zn3+2 0.414240 0.958130 0.043980 1.021013
Zn8   Zn    Zn3+2 0.414250 0.956110 0.870280 1.016241

loop_
_geom_bond_atom_site_label_1
_geom_bond_atom_site_label_2
_ccdc_geom_bond_type
C53   H31   S    
C69   H60   S    
C66   C68   S    
C50   H25   S    
C16   C21   S    
C54   O30   D    
O15   Zn3   S    
C33   C45   S    
C40   H5    S    
O44   Zn8   S    
C1    O34   A    
C40   H4    S    
C75   C76   S    
C3    C6    S    
C67   H45   S    
C65   H51   S    
C23   C56   S    
C57   H36   S    
O11   Zn7   S    
C2    C37   S    
C25   O8    A    
C41   H7    S    
C36   O20   D    
C12   C23   S    
C26   O9    A    
C43   H10   S    
C47   H19   S    
C62   O36   D    
C61   H42   S    
C38   H80   S    
C57   O32   D    
C27   O3    A    
C38   C39   S    
C8    C10   S    
O46   Zn5   S    
O9    Zn8   S    
C72   H66   S    
O45   Zn8   S    
C24   O46   A    
O23   Zn4   S    
C33   C36   S    
C18   C19   D    
C60   H40   S    
C45   C73   S    
C34   C35   S    
O18   Zn3   S    
C48   H20   S    
C34   O39   S    
C28   O23   A    
C2    C79   D    
C66   H55   S    
C18   C58   S    
C46   H16   S    
C45   C56   S    
C8    C9    D    
C64   H49   S    
C1    C11   S    
C70   C71   S    
C51   O29   S    
C14   C27   S    
C24   O11   A    
C18   C20   S    
C44   H13   S    
C77   H79   S    
C49   O27   D    
C75   H74   S    
C53   H32   S    
C69   H61   S    
C14   C55   S    
C59   C60   S    
C70   O39   S    
O34   Zn2   S    
C13   C14   D    
C12   C32   S    
C58   H37   S    
C17   C30   S    
C15   C57   S    
C29   O5    A    
O44   Zn5   S    
C68   H58   S    
C67   C78   D    
C78   O41   S    
O16   Zn2   S    
C50   O28   D    
C32   C54   S    
C65   H52   S    
O4    Zn4   S    
C7    O26   S    
C9    C26   S    
C31   O17   A    
C77   C79   S    
C59   O35   S    
C48   H21   S    
C70   H63   S    
C43   H11   S    
C74   C75   S    
C5    C22   S    
C31   O19   A    
C74   H71   S    
C51   C52   S    
C66   O38   S    
C55   O31   D    
C68   H57   S    
C67   C79   S    
C39   H2    S    
C21   H34   S    
C44   H14   S    
C39   C40   S    
C68   C69   S    
C42   O25   S    
C72   H69   S    
O10   Zn6   S    
C76   H77   S    
C7    C28   S    
C25   C78   S    
C6    O25   S    
C60   C61   S    
C9    H1    S    
C29   O7    A    
C2    C4    S    
C17   H23   S    
O1    Zn3   S    
O7    Zn5   S    
O1    Zn2   S    
C66   H54   S    
C3    O22   S    
C12   O37   S    
C4    O43   A    
C47   C48   S    
C75   H73   S    
C51   H26   S    
C23   C34   S    
O19   Zn1   S    
C54   H33   S    
C34   C45   S    
C64   H50   S    
C12   C35   S    
C38   O22   S    
C76   H76   S    
C52   H29   S    
C27   O6    A    
O6    Zn7   S    
C74   O41   S    
C10   H12   S    
C59   H39   S    
C13   C15   S    
C16   O14   A    
C58   O33   D    
C31   C56   S    
C74   H72   S    
C42   H9    S    
C42   C43   S    
O43   Zn3   S    
O12   Zn1   S    
C25   O47   A    
C36   H56   S    
C30   O16   A    
C65   H53   S    
C52   C53   S    
C71   H64   S    
C53   H30   S    
C69   H59   S    
C15   C17   D    
C37   O21   D    
C5    C41   S    
C46   C47   S    
C70   H62   S    
C4    O13   A    
C40   H6    S    
C73   H70   S    
O44   Zn7   S    
O13   Zn1   S    
C41   O24   D    
C39   H3    S    
C52   H28   S    
C3    C5    D    
C77   O42   D    
C49   H24   S    
C62   H46   S    
C6    C7    D    
C55   H35   S    
C72   H68   S    
O1    Zn4   S    
C29   C35   S    
C23   O38   S    
C26   O2    A    
C47   H18   S    
C22   O45   A    
C22   O10   A    
C61   H44   S    
O5    Zn8   S    
C64   C65   S    
C38   H78   S    
C19   C24   S    
O8    Zn5   S    
C71   C72   S    
C11   C50   S    
C32   C33   S    
O1    Zn1   S    
C16   O12   A    
C28   O15   A    
O3    Zn6   S    
C43   C44   S    
C51   H27   S    
C48   H22   S    
C73   O40   D    
C76   H75   S    
C33   C35   S    
C30   O18   A    
O17   Zn4   S    
C60   H41   S    
O14   Zn2   S    
O2    Zn7   S    
C46   O26   S    
C20   C62   S    
O44   Zn6   S    
C63   H47   S    
C44   H15   S    
C10   C11   D    
C37   H67   S    
C63   C64   S    
O47   Zn6   S    
C46   H17   S    
C20   C21   D    
C1    O4    A    
C19   O35   S    
C59   H38   S    
C13   O29   S    
C63   O37   S    
C61   H43   S    
C42   H8    S    
C8    C49   S    
C32   C56   S    
C63   H48   S    
C71   H65   S    
