data_mof_unit_576.cif
_audit_creation_date              2012-12-10T21:00:34-0500
_audit_creation_method            fapswitch 2.2
_symmetry_space_group_name_H-M    P1
_symmetry_Int_Tables_number       1
_space_group_crystal_system       triclinic
_cell_length_a                    18.147845
_cell_length_b                    18.174487
_cell_length_c                    18.329155
_cell_angle_alpha                 119.970536
_cell_angle_beta                  89.967186
_cell_angle_gamma                 119.942359
_cell_volume                      4281.62829138

loop_
_atom_site_label
_atom_site_type_symbol
_atom_type_description
_atom_site_fract_x
_atom_site_fract_y
_atom_site_fract_z
_atom_type_partial_charge
C1    C     C_R   0.111889 0.220073 0.609762 0.796073
C2    C     C_3   0.450541 0.897490 0.947453 0.061509
C3    C     C_3   0.446097 0.032073 0.024527 -0.143532
C4    C     C_3   0.553903 0.967927 0.975473 -0.143532
C5    C     C_3   0.412680 0.437295 0.447588 -0.275620
C6    C     C_3   0.587320 0.562705 0.552412 -0.275622
C7    C     C_3   0.475956 0.401690 0.441795 -0.302631
C8    C     C_3   0.524044 0.598310 0.558205 -0.302633
C9    C     C_3   0.551464 0.499683 0.449522 -0.032498
C10   C     C_3   0.448535 0.500317 0.550478 -0.032498
C11   C     C_3   0.489391 0.534505 0.455700 0.499116
C12   C     C_R   0.888110 0.779927 0.390238 0.796073
C13   C     C_3   0.510609 0.465495 0.544300 0.499117
C14   C     C_R   0.218126 0.183274 0.805708 -0.119558
C15   C     C_R   0.781874 0.816726 0.194292 -0.119559
C16   C     C_R   0.392889 0.781158 0.888287 0.752447
C17   C     C_R   0.607111 0.218842 0.111713 0.752447
C18   C     C_R   0.176765 0.136363 0.716091 -0.122841
C19   C     C_R   0.823235 0.863637 0.283908 -0.122840
C20   C     C_R   0.086515 0.098887 0.685564 0.099671
C21   C     C_R   0.913485 0.901113 0.314435 0.099671
C22   C     C_R   0.037894 0.108297 0.745324 -0.109280
C23   C     C_3   0.983766 0.430717 0.413980 -0.134941
C24   C     C_R   0.962106 0.891703 0.254676 -0.109281
C25   C     C_R   0.079512 0.156233 0.835738 0.064269
C26   C     C_R   0.920487 0.843767 0.164262 0.064269
C27   C     C_R   0.169848 0.193317 0.865339 -0.230297
C28   C     C_R   0.830152 0.806682 0.134660 -0.230297
C29   C     C_R   0.986078 0.943549 0.535512 -0.255827
C30   C     C_R   0.013922 0.056451 0.464488 -0.255827
C31   C     C_R   0.943639 0.892293 0.445027 -0.048666
C32   C     C_R   0.056361 0.107707 0.554973 -0.048665
C33   C     C_R   0.957243 0.949347 0.408945 -0.004641
C34   C     C_3   0.016234 0.569283 0.586020 -0.134941
C35   C     C_R   0.042757 0.050653 0.591055 -0.004641
C36   C     C_R   0.655811 0.625005 0.811684 -0.093348
C37   C     C_R   0.344190 0.374995 0.188316 -0.093347
C38   C     C_R   0.609055 0.567792 0.845720 -0.124374
C39   C     C_R   0.390946 0.432208 0.154280 -0.124375
C40   C     C_R   0.111519 0.501408 0.890350 0.788950
C41   C     C_R   0.888481 0.498592 0.109650 0.788950
C42   C     C_R   0.594104 0.615214 0.926562 0.133622
C43   C     C_R   0.405896 0.384786 0.073438 0.133622
C44   C     C_R   0.626981 0.720445 0.973316 -0.122931
C45   C     C_3   0.441863 0.965924 0.927192 -0.168044
C46   C     C_R   0.373019 0.279555 0.026684 -0.122932
C47   C     C_R   0.673381 0.777227 0.938877 -0.134178
C48   C     C_R   0.326619 0.222773 0.061123 -0.134178
C49   C     C_R   0.687687 0.729498 0.858062 -0.120385
C50   C     C_R   0.312313 0.270502 0.141938 -0.120386
C51   C     C_R   0.592653 0.551443 0.016441 -0.279165
C52   C     C_R   0.407347 0.448556 0.983559 -0.279165
C53   C     C_R   0.550069 0.498094 0.054540 -0.039297
C54   C     C_R   0.449930 0.501906 0.945460 -0.039297
C55   C     C_R   0.456120 0.445101 0.037511 -0.017587
C56   C     C_3   0.558137 0.034076 0.072807 -0.168044
C57   C     C_R   0.543880 0.554899 0.962488 -0.017586
C58   C     C_R   0.200311 0.835429 0.017840 -0.069706
C59   C     C_R   0.799689 0.164571 0.982160 -0.069706
C60   C     C_R   0.164496 0.753957 0.027769 -0.080483
C61   C     C_R   0.835504 0.246043 0.972231 -0.080483
C62   C     C_R   0.075551 0.665898 0.976348 0.170433
C63   C     C_R   0.924449 0.334102 0.023651 0.170433
C64   C     C_R   0.392189 0.500098 0.607742 0.847506
C65   C     C_R   0.607811 0.499902 0.392258 0.847505
C66   C     C_R   0.022745 0.660587 0.915556 -0.126736
C67   C     C_3   0.545888 0.037798 0.955938 -0.185171
C68   C     C_R   0.977255 0.339412 0.084444 -0.126736
C69   C     C_R   0.059051 0.741947 0.905444 -0.131140
C70   C     C_R   0.940949 0.258053 0.094556 -0.131141
C71   C     C_R   0.147795 0.829278 0.956510 -0.063976
C72   C     C_R   0.852205 0.170721 0.043490 -0.063975
C73   C     C_R   0.981389 0.574557 0.037797 -0.239055
C74   C     C_R   0.018610 0.425443 0.962203 -0.239054
C75   C     C_R   0.944136 0.496591 0.052337 -0.068092
C76   C     C_R   0.055864 0.503409 0.947663 -0.068092
C77   C     C_R   0.962642 0.420593 0.013593 -0.021220
C78   C     C_3   0.454112 0.962202 0.044062 -0.185171
C79   C     C_R   0.037358 0.579407 0.986407 -0.021220
C80   C     C_R   0.393991 0.500169 0.888742 0.802736
C81   C     C_R   0.606009 0.499831 0.111258 0.802736
C82   C     C_R   0.108924 0.500252 0.607772 0.769595
C83   C     C_R   0.891076 0.499748 0.392228 0.769594
C84   C     C_3   0.078180 0.526441 0.483317 -0.181611
C85   C     C_3   0.921820 0.473559 0.516683 -0.181611
C86   C     C_3   0.042428 0.595091 0.517373 -0.176994
C87   C     C_3   0.957572 0.404909 0.482627 -0.176994
C88   C     C_3   0.948829 0.499405 0.448882 0.058918
C89   C     C_3   0.549459 0.102510 0.052547 0.061509
C90   C     C_3   0.051171 0.500595 0.551118 0.058918
C91   C     C_2   0.029890 0.168634 0.899981 0.340538
C92   C     C_2   0.970110 0.831365 0.100019 0.340538
H1    H     H_    0.076470 0.673173 0.530788 0.129764
H2    H     H_    0.031753 0.920546 0.278641 0.161418
H3    H     H_    0.976560 0.900157 0.563319 0.174373
H4    H     H_    0.023440 0.099843 0.436681 0.174373
H5    H     H_    0.723577 0.773496 0.831435 0.129382
H6    H     H_    0.276423 0.226503 0.168565 0.129382
H7    H     H_    0.667373 0.588431 0.749375 0.144574
H8    H     H_    0.332627 0.411569 0.250626 0.144576
H9    H     H_    0.584222 0.486753 0.809118 0.129100
H10   H     H_    0.415778 0.513247 0.190882 0.129100
H11   H     H_    0.615989 0.757972 0.035840 0.111318
H12   H     H_    0.923530 0.326827 0.469212 0.129764
H13   H     H_    0.384010 0.242028 0.964159 0.111318
H14   H     H_    0.143233 0.548211 0.470461 0.126417
H15   H     H_    0.856767 0.451789 0.529539 0.126416
H16   H     H_    0.698160 0.858159 0.974771 0.118803
H17   H     H_    0.301839 0.141841 0.025228 0.118803
H18   H     H_    0.664570 0.590733 0.028280 0.177669
H19   H     H_    0.335429 0.409267 0.971720 0.177669
H20   H     H_    0.175766 0.892356 0.948840 0.103863
H21   H     H_    0.824233 0.107644 0.051160 0.103863
H22   H     H_    0.268617 0.903509 0.057870 0.106371
H23   H     H_    0.203005 0.230256 0.934666 0.127891
H24   H     H_    0.731383 0.096491 0.942130 0.106371
H25   H     H_    0.205817 0.759291 0.075247 0.096270
H26   H     H_    0.794183 0.240709 0.924753 0.096270
H27   H     H_    0.953912 0.593284 0.875746 0.111450
H28   H     H_    0.046088 0.406716 0.124254 0.111450
H29   H     H_    0.018342 0.737391 0.858171 0.113981
H30   H     H_    0.981657 0.262609 0.141829 0.113981
H31   H     H_    0.968164 0.633551 0.067753 0.188102
H32   H     H_    0.031836 0.366449 0.932247 0.188102
H33   H     H_    0.969789 0.373781 0.342590 0.139548
H34   H     H_    0.796995 0.769744 0.065334 0.127890
H35   H     H_    0.030210 0.626218 0.657410 0.139548
H36   H     H_    0.583508 0.069972 0.919892 0.119057
H37   H     H_    0.416492 0.930028 0.080108 0.119057
H38   H     H_    0.393532 0.936881 0.866677 0.126836
H39   H     H_    0.606467 0.063119 0.133323 0.126836
H40   H     H_    0.401934 0.059091 0.045025 0.132992
H41   H     H_    0.598066 0.940909 0.954975 0.132992
H42   H     H_    0.458230 0.321962 0.394955 0.157242
H43   H     H_    0.541770 0.678037 0.605045 0.157242
H44   H     H_    0.341217 0.387895 0.405280 0.161957
H45   H     H_    0.287858 0.212340 0.829089 0.131022
H46   H     H_    0.658783 0.612105 0.594720 0.161958
H47   H     H_    0.063514 0.206867 0.969702 0.061073
H48   H     H_    0.936486 0.793133 0.030298 0.061073
H49   H     H_    0.435003 0.586102 0.423783 0.312889
H50   H     H_    0.564999 0.413901 0.576219 0.312889
H51   H     H_    0.712142 0.787659 0.170910 0.131023
H52   H     H_    0.214967 0.129631 0.670597 0.115565
H53   H     H_    0.785033 0.870369 0.329403 0.115565
H54   H     H_    0.968247 0.079454 0.721360 0.161418
O1    O     O_3   0.251620 0.500000 0.748430 -0.483731
O2    O     O_R   0.570330 0.268390 0.136490 -0.643947
O3    O     O_R   0.134680 0.268390 0.572240 -0.647215
O4    O     O_R   0.865320 0.731610 0.427760 -0.647215
O5    O     O_R   0.306670 0.731630 0.863510 -0.639910
O6    O     O_R   0.693330 0.268370 0.136490 -0.639910
O7    O     O_R   0.135450 0.439270 0.865360 -0.647006
O8    O     O_R   0.864550 0.560730 0.134640 -0.647006
O9    O     O_R   0.429670 0.560710 0.692610 -0.619377
O10   O     O_R   0.570330 0.439290 0.307390 -0.619377
O11   O     O_R   0.308540 0.439240 0.865360 -0.648687
O12   O     O_3   0.748380 0.500000 0.251570 -0.483731
O13   O     O_R   0.691460 0.560760 0.134640 -0.648687
O14   O     O_R   0.133580 0.439310 0.571150 -0.644810
O15   O     O_R   0.866420 0.560690 0.428850 -0.644810
O16   O     O_R   0.430770 0.560690 0.864590 -0.630691
O17   O     O_R   0.569230 0.439310 0.135410 -0.630691
O18   O     O_R   0.133580 0.560760 0.692610 -0.645927
O19   O     O_R   0.866420 0.439240 0.307390 -0.645927
O20   O     O_2   0.951060 0.136504 0.876031 -0.583314
O21   O     O_2   0.048940 0.863496 0.123969 -0.583314
O22   O     O_3   0.480383 0.571218 0.407439 -0.785903
O23   O     O_R   0.134680 0.560740 0.864590 -0.639875
O24   O     O_3   0.519617 0.428782 0.592561 -0.785902
O25   O     O_R   0.865320 0.439260 0.135410 -0.639875
O26   O     O_R   0.306670 0.439270 0.571150 -0.656112
O27   O     O_R   0.693330 0.560730 0.428850 -0.656112
O28   O     O_R   0.135450 0.268370 0.694460 -0.633114
O29   O     O_R   0.864550 0.731630 0.305540 -0.633114
O30   O     O_R   0.429670 0.731610 0.863510 -0.643948
Zn1   Zn    Zn3+2 0.207400 0.586780 0.791530 0.960681
Zn2   Zn    Zn3+2 0.792600 0.413220 0.208470 0.960681
Zn3   Zn    Zn3+2 0.208510 0.413230 0.792630 0.970618
Zn4   Zn    Zn3+2 0.791490 0.586770 0.207370 0.970618
Zn5   Zn    Zn3+2 0.383150 0.586740 0.791530 0.985683
Zn6   Zn    Zn3+2 0.616850 0.413260 0.208470 0.985683
Zn7   Zn    Zn3+2 0.207400 0.413250 0.618010 0.962155
Zn8   Zn    Zn3+2 0.792600 0.586750 0.381990 0.962154

loop_
_geom_bond_atom_site_label_1
_geom_bond_atom_site_label_2
_ccdc_geom_bond_type
C5    H44   S    
C74   H32   S    
O7    Zn3   S    
C64   O26   A    
C81   O13   A    
O8    Zn4   S    
C73   C75   A    
C14   C18   A    
C91   O20   D    
C84   C90   S    
C76   C79   A    
O13   Zn4   S    
C6    C9    S    
C80   O11   A    
C47   C49   A    
C15   C19   A    
C83   O19   A    
C64   O9    A    
C19   H53   S    
C74   C76   A    
C60   C62   A    
C19   C21   A    
C78   H37   S    
C84   C86   S    
C5    C11   S    
C65   O10   A    
O11   Zn3   S    
C86   C88   S    
C58   C71   A    
O5    Zn1   S    
C66   C69   A    
C21   C33   S    
C26   C92   S    
C46   H13   S    
C67   C89   S    
C56   C78   S    
C69   C71   A    
C34   C86   S    
C61   C63   A    
O12   Zn4   S    
C30   H4    S    
C20   C35   S    
C22   H54   S    
O27   Zn8   S    
C52   C54   A    
C59   H24   S    
C73   H31   S    
C22   C25   A    
C45   C67   S    
C84   H14   S    
C31   C33   A    
O25   Zn2   S    
C1    O3    A    
C51   C57   A    
C14   C27   A    
C36   H7    S    
C2    C16   S    
O14   Zn7   S    
C44   C47   A    
C59   C72   A    
H50   O24   S    
C16   O30   A    
C48   C50   A    
C48   H17   S    
C83   O15   A    
C45   H38   S    
C23   C87   S    
C4    C56   S    
C8    H43   S    
O19   Zn2   S    
C81   O17   A    
C42   C44   A    
C42   C57   S    
O23   Zn1   S    
C40   O23   A    
C43   C46   A    
C44   H11   S    
C28   H34   S    
C54   C80   S    
C85   C87   S    
C2    C45   S    
C39   C43   A    
O30   Zn5   S    
C37   C39   A    
C46   C48   A    
C1    O28   A    
C59   C61   A    
C50   H6    S    
C23   C84   S    
C62   C66   A    
C3    H40   S    
C32   C35   A    
C12   O4    A    
C62   C79   S    
C17   O2    A    
C17   C89   S    
O16   Zn5   S    
C5    C7    S    
O10   Zn6   S    
C34   H35   S    
C6    C8    S    
C52   H19   S    
C72   H21   S    
C3    C45   S    
C1    C32   S    
C40   C76   S    
C51   C53   A    
C34   C85   S    
C6    H46   S    
C2    C4    S    
C34   C90   S    
O26   Zn7   S    
C2    C78   S    
C86   H1    S    
C24   H2    S    
C41   C75   S    
C82   O14   A    
C70   H30   S    
C14   H45   S    
C69   H29   S    
C71   H20   S    
C74   C77   A    
O9    Zn5   S    
C3    C89   S    
C73   C79   A    
O12   Zn6   S    
C60   H25   S    
C75   C77   A    
C80   O16   A    
C7    H42   S    
C12   O29   A    
C15   H51   S    
C43   C55   S    
C56   C89   S    
C20   C22   A    
C51   H18   S    
C66   H27   S    
C9    C11   S    
C12   C31   S    
C11   O22   S    
C91   H47   S    
C40   O7    A    
C21   C24   A    
C17   O6    A    
C53   C55   A    
C92   H48   S    
C39   H10   S    
C29   H3    S    
C41   O8    A    
C63   C77   S    
C85   C88   S    
O1    Zn7   S    
C7    C9    S    
C63   C68   A    
C13   O24   S    
H49   O22   S    
C30   C33   A    
C65   O27   A    
C61   H26   S    
O12   Zn8   S    
C8    C10   S    
C10   C64   S    
C24   C26   A    
C10   C13   S    
C4    C67   S    
O4    Zn8   S    
C52   C55   A    
C38   C42   A    
O29   Zn4   S    
C25   C27   A    
C29   C35   A    
C26   C28   A    
C82   C90   S    
C23   H33   S    
C23   C88   S    
O1    Zn1   S    
O15   Zn8   S    
C18   H52   S    
C41   O25   A    
O12   Zn2   S    
C5    C10   S    
C29   C31   A    
C67   H36   S    
C68   H28   S    
C6    C13   S    
C30   C32   A    
C37   C50   A    
C92   O21   D    
O1    Zn5   S    
C15   C28   A    
C82   O18   A    
C8    C11   S    
C36   C38   A    
C83   C88   S    
C16   O5    A    
C18   C20   A    
O6    Zn2   S    
C53   C81   S    
C9    C65   S    
C56   H39   S    
O18   Zn1   S    
C58   H22   S    
C49   H5    S    
C87   H12   S    
O1    Zn3   S    
C38   H9    S    
C7    C13   S    
C68   C70   A    
C47   H16   S    
C87   C90   S    
O2    Zn6   S    
O3    Zn7   S    
C25   C91   S    
C70   C72   A    
C85   H15   S    
C3    C78   S    
C58   C60   A    
O28   Zn3   S    
C37   H8    S    
C36   C49   A    
C4    H41   S    
O17   Zn6   S    
C54   C57   A    
C27   H23   S    
