data_mof_unit_758.cif
_audit_creation_date              2012-12-10T16:43:23-0500
_audit_creation_method            fapswitch 2.2
_symmetry_space_group_name_H-M    P1
_symmetry_Int_Tables_number       1
_space_group_crystal_system       triclinic
_cell_length_a                    10.823065
_cell_length_b                    8.662745
_cell_length_c                    7.457996
_cell_angle_alpha                 103.030118
_cell_angle_beta                  95.608722
_cell_angle_gamma                 91.564809
_cell_volume                      677.098464667

loop_
_atom_site_label
_atom_site_type_symbol
_atom_type_description
_atom_site_fract_x
_atom_site_fract_y
_atom_site_fract_z
_atom_type_partial_charge
C1    C     C_R   0.498519 0.199734 0.453112 0.899104
C2    C     C_R   0.074526 0.588284 0.667152 0.007027
C3    C     C_R   0.128770 0.523509 0.503192 -0.071749
C4    C     C_R   0.053276 0.445670 0.342825 -0.168009
C5    C     C_R   0.925826 0.432568 0.343527 -0.228062
C6    C     C_R   0.873069 0.480598 0.509113 -0.080100
C7    C     C_2   0.500887 0.031883 0.426357 -0.325563
C8    C     C_2   0.517482 0.968470 0.572345 -0.336199
C9    C     C_R   0.262858 0.511791 0.502091 0.854525
C10   C     C_R   0.509796 0.800234 0.546480 0.919295
C11   C     C_R   0.737779 0.490071 0.500435 0.780770
C12   C     C_R   0.135390 0.703259 0.819335 0.134888
C13   C     C_R   0.089641 0.727658 0.993113 0.202983
C14   C     C_R   0.982041 0.644782 0.011786 -0.242212
C15   C     C_R   0.913249 0.550667 0.856890 -0.202495
C16   C     C_R   0.951709 0.537355 0.678083 0.090845
Cu1   Cu    Cu3+1 0.513920 0.517380 0.684380 0.974143
Cu2   Cu    Cu3+1 0.486080 0.482620 0.315620 0.983768
H1    H     H_    0.092485 0.396232 0.215239 0.184594
H2    H     H_    0.597530 0.621964 0.052602 0.223385
H3    H     H_    0.947244 0.661073 0.145408 0.183507
H4    H     H_    0.832929 0.485802 0.882466 0.182701
H5    H     H_    0.868651 0.382769 0.214714 0.163662
H6    H     H_    0.486463 0.960022 0.285475 0.196913
H7    H     H_    0.532502 0.040445 0.713125 0.185872
H8    H     H_    0.402452 0.378070 0.947381 0.240976
N1    N     N_2   0.465100 0.456430 0.038520 -0.208234
N2    N     N_2   0.534900 0.543570 0.961480 -0.218653
O1    O     O_R   0.509050 0.286130 0.619770 -0.588773
O2    O     O_R   0.485540 0.256780 0.308360 -0.575394
O3    O     O_R   0.331410 0.514680 0.655740 -0.575720
O4    O     O_R   0.307900 0.485330 0.344330 -0.572170
O5    O     O_R   0.514460 0.743220 0.691640 -0.567948
O6    O     O_R   0.490950 0.713870 0.380230 -0.575584
O7    O     O_R   0.692100 0.514670 0.655670 -0.603259
O8    O     O_R   0.668590 0.485320 0.344260 -0.600099
I1    I     I_    0.251704 0.887665 0.772875 -0.323356
I2    I     I_    0.173617 0.891289 0.232713 -0.345379

loop_
_geom_bond_atom_site_label_1
_geom_bond_atom_site_label_2
_ccdc_geom_bond_type
C3    C9    S    
C7    H6    S    
C4    H1    S    
Cu1   O1    S    
C5    H5    S    
C2    C12   A    
C1    O1    A    
C2    C3    A    
C13   I2    S    
C7    C8    D    
C10   O6    A    
C13   C14   A    
C8    H7    S    
Cu2   O6    S    
H8    N1    S    
Cu1   O5    S    
Cu2   O2    S    
C14   H3    S    
C11   O7    A    
C11   O8    A    
Cu1   Cu2   S    
C10   O5    A    
C6    C11   S    
C5    C6    A    
Cu1   O3    S    
Cu2   O4    S    
C9    O3    A    
C6    C16   A    
C15   C16   A    
C12   I1    S    
C2    C16   A    
C12   C13   A    
C8    C10   S    
N1    N2    D    
C14   C15   A    
C1    O2    A    
Cu1   O7    S    
H2    N2    S    
C9    O4    A    
C1    C7    S    
Cu1   N2    S    
Cu2   O8    S    
C15   H4    S    
Cu2   N1    S    
C3    C4    A    
C4    C5    A    
