data_mof_unit_2605.cif
_audit_creation_date              2012-12-11T16:44:22-0500
_audit_creation_method            fapswitch 2.2
_symmetry_space_group_name_H-M    P1
_symmetry_Int_Tables_number       1
_space_group_crystal_system       triclinic
_cell_length_a                    27.194578
_cell_length_b                    7.206046
_cell_length_c                    22.793665
_cell_angle_alpha                 89.981675
_cell_angle_beta                  101.33837
_cell_angle_gamma                 89.997142
_cell_volume                      4379.59200467

loop_
_atom_site_label
_atom_site_type_symbol
_atom_type_description
_atom_site_fract_x
_atom_site_fract_y
_atom_site_fract_z
_atom_type_partial_charge
O1    O     O_R   0.707300 0.594030 0.176840 -0.531073
O2    O     O_R   0.292700 0.405970 0.823160 -0.532253
O3    O     O_R   0.792700 0.094030 0.323160 -0.531279
O4    O     O_R   0.207300 0.905970 0.676840 -0.533637
O5    O     O_R   0.697330 0.262360 0.295660 -0.538326
O6    O     O_R   0.302670 0.737640 0.704340 -0.533108
O7    O     O_R   0.802670 0.762360 0.204340 -0.539523
O8    O     O_R   0.197330 0.237640 0.795660 -0.540181
C1    C     C_R   0.684968 0.432304 0.311991 0.678418
C2    C     C_R   0.314971 0.567792 0.688448 0.674970
C3    C     C_R   0.815076 0.932378 0.188074 0.680161
C4    C     C_R   0.184924 0.067622 0.811926 0.677549
O9    O     O_R   0.701410 0.264250 0.175600 -0.535727
O10   O     O_R   0.298590 0.735750 0.824400 -0.535566
O11   O     O_R   0.798590 0.764250 0.324400 -0.535915
O12   O     O_R   0.201410 0.235750 0.675600 -0.535645
O13   O     O_R   0.796800 0.094950 0.202240 -0.539433
O14   O     O_R   0.203200 0.905050 0.797760 -0.540197
O15   O     O_R   0.703200 0.594950 0.297760 -0.538509
O16   O     O_R   0.296800 0.405050 0.702240 -0.532734
C5    C     C_R   0.689783 0.432537 0.153489 0.685920
C6    C     C_R   0.310239 0.567456 0.846486 0.682377
C7    C     C_R   0.810224 0.932480 0.346507 0.685656
C8    C     C_R   0.189766 0.067511 0.653498 0.687202
O17   O     O_3   0.781290 0.427390 0.258880 -0.373509
O18   O     O_3   0.218710 0.572610 0.741120 -0.376364
O19   O     O_3   0.718710 0.927390 0.241120 -0.372393
O20   O     O_3   0.281290 0.072610 0.758880 -0.368811
V1    V     V_3+5 0.744190 0.152150 0.248350 1.418899
V2    V     V_3+5 0.255810 0.847850 0.751650 1.429911
V3    V     V_3+5 0.755810 0.652150 0.251650 1.417754
V4    V     V_3+5 0.244190 0.347850 0.748350 1.423326
C9    C     C_R   0.154766 0.062596 0.595196 -0.041087
C10   C     C_R   0.845217 0.937350 0.404812 -0.040803
C11   C     C_R   0.345242 0.562342 0.904770 -0.040074
C12   C     C_R   0.654802 0.437646 0.095177 -0.041492
C13   C     C_R   0.139012 0.125266 0.488975 -0.155926
C14   C     C_R   0.860979 0.874385 0.511014 -0.150328
C15   C     C_R   0.360899 0.623293 0.011072 -0.150849
C16   C     C_R   0.639165 0.376679 0.988868 -0.148811
C17   C     C_R   0.171941 0.116354 0.543961 -0.164121
C18   C     C_R   0.828049 0.883345 0.456028 -0.156654
C19   C     C_R   0.327996 0.614904 0.956062 -0.155726
C20   C     C_R   0.672056 0.384994 0.043895 -0.155104
C21   C     C_R   0.103802 0.018220 0.591108 -0.212732
C22   C     C_R   0.896174 0.981828 0.408911 -0.212267
C23   C     C_R   0.396247 0.518715 0.908807 -0.210509
C24   C     C_R   0.603804 0.481410 0.091102 -0.212270
C25   C     C_R   0.069013 0.029477 0.535489 0.086558
C26   C     C_R   0.930967 0.970443 0.464523 0.086340
C27   C     C_R   0.431004 0.529428 0.964457 0.086504
C28   C     C_R   0.569058 0.470730 0.035442 0.086342
C29   C     C_R   0.087959 0.083763 0.484317 0.134613
C30   C     C_R   0.912027 0.916016 0.515684 0.131649
C31   C     C_R   0.411987 0.582423 0.015697 0.131878
C32   C     C_R   0.588079 0.417681 0.984213 0.130889
C33   C     C_R   0.016273 0.991443 0.528837 0.057083
C34   C     C_R   0.983708 0.008470 0.471175 0.057818
C35   C     C_R   0.483775 0.492001 0.971085 0.057886
C36   C     C_R   0.516291 0.508215 0.028803 0.058035
C37   C     C_R   0.005006 0.062300 0.422117 -0.184572
C38   C     C_R   0.994977 0.937536 0.577890 -0.184296
C39   C     C_R   0.494922 0.560746 0.077926 -0.184908
C40   C     C_R   0.505147 0.439502 0.921960 -0.183263
C41   C     C_R   0.055918 0.098624 0.428706 -0.193719
C42   C     C_R   0.944069 0.901122 0.571294 -0.191298
C43   C     C_R   0.443987 0.596575 0.071351 -0.192930
C44   C     C_R   0.556085 0.403607 0.928547 -0.190773
H1    H     H_    0.070376 0.140105 0.389607 0.131574
H2    H     H_    0.929615 0.859540 0.610386 0.132972
H3    H     H_    0.429474 0.637056 0.110503 0.130593
H4    H     H_    0.570602 0.363119 0.889400 0.132615
H5    H     H_    0.907390 0.020106 0.367788 0.095643
H6    H     H_    0.092578 0.980131 0.632242 0.095430
H7    H     H_    0.592532 0.518696 0.132270 0.095301
H8    H     H_    0.407514 0.481504 0.867625 0.092966
H9    H     H_    0.789010 0.846811 0.453311 0.114596
H10   H     H_    0.210985 0.152752 0.546662 0.115658
H11   H     H_    0.711133 0.349079 0.046587 0.117771
H12   H     H_    0.288914 0.650714 0.953391 0.117220
H13   H     H_    0.153436 0.167416 0.449938 0.123495
H14   H     H_    0.846560 0.832085 0.550040 0.127186
H15   H     H_    0.346422 0.664470 0.050161 0.126757
H16   H     H_    0.653649 0.335449 0.949789 0.128553
H17   H     H_    0.983267 0.078371 0.377563 0.125989
H18   H     H_    0.016720 0.921404 0.622439 0.126146
H19   H     H_    0.516621 0.576160 0.122522 0.125231
H20   H     H_    0.483448 0.424153 0.877357 0.124368
C45   C     C_R   0.861304 0.110308 0.120787 -0.163383
C46   C     C_R   0.138695 0.889691 0.879211 -0.163611
C47   C     C_R   0.643783 0.600473 0.386197 -0.162202
C48   C     C_R   0.401240 0.489740 0.673553 -0.159167
H21   H     H_    0.839700 0.233281 0.126068 0.131675
H22   H     H_    0.160298 0.766718 0.873930 0.131395
H23   H     H_    0.669288 0.715830 0.386046 0.130376
H24   H     H_    0.411131 0.445709 0.719826 0.101772
C49   C     C_R   0.896765 0.121144 0.084017 -0.132909
C50   C     C_R   0.103233 0.878856 0.915981 -0.133694
C51   C     C_R   0.608444 0.610638 0.423240 -0.131901
C52   C     C_R   0.437188 0.479258 0.637180 -0.114097
H25   H     H_    0.901555 0.251422 0.062066 0.152965
H26   H     H_    0.098442 0.748578 0.937932 0.152787
H27   H     H_    0.607692 0.733162 0.450569 0.163952
H28   H     H_    0.474354 0.428546 0.656384 0.122957
C53   C     C_R   0.925418 0.965366 0.075058 0.149610
C54   C     C_R   0.074581 0.034635 0.924941 0.149670
C55   C     C_R   0.574752 0.464032 0.425531 0.146000
C56   C     C_R   0.425405 0.534534 0.576741 0.150107
C57   C     C_R   0.918351 0.798896 0.104550 -0.061571
C58   C     C_R   0.081648 0.201105 0.895449 -0.060939
C59   C     C_R   0.576999 0.307626 0.389154 -0.064666
C60   C     C_R   0.376499 0.598549 0.553608 -0.041966
H29   H     H_    0.940891 0.677980 0.099797 0.145060
H30   H     H_    0.059108 0.322022 0.900202 0.145424
H31   H     H_    0.550558 0.194895 0.388351 0.149006
H32   H     H_    0.365482 0.635227 0.506813 0.151816
C61   C     C_R   0.882489 0.787286 0.140980 -0.175741
C62   C     C_R   0.117511 0.212714 0.859019 -0.175947
C63   C     C_R   0.612970 0.295932 0.352787 -0.178849
C64   C     C_R   0.340994 0.613384 0.590394 -0.172204
H33   H     H_    0.877914 0.656683 0.162800 0.125824
H34   H     H_    0.122086 0.343318 0.837200 0.125777
H35   H     H_    0.613755 0.173241 0.325563 0.126199
H36   H     H_    0.303704 0.663911 0.571590 0.110524
C65   C     C_R   0.853454 0.943012 0.149625 -0.051883
C66   C     C_R   0.146545 0.056988 0.850374 -0.051280
C67   C     C_R   0.646758 0.442578 0.350688 -0.051259
C68   C     C_R   0.353077 0.558590 0.650533 -0.030437
C69   C     C_R   0.965203 0.853684 0.989411 0.431922
C70   C     C_R   0.034795 0.146318 0.010587 0.431591
C71   C     C_R   0.528461 0.335033 0.503721 0.441719
C72   C     C_R   0.472810 0.664967 0.499809 0.433773
C73   C     C_R   0.001493 0.874144 0.953915 -0.215677
C74   C     C_R   0.998506 0.125857 0.046083 -0.216301
C75   C     C_R   0.492141 0.355657 0.539294 -0.183300
C76   C     C_R   0.508441 0.642985 0.463436 -0.202994
H37   H     H_    0.001894 0.776865 0.917765 0.167632
H38   H     H_    0.998104 0.223137 0.082234 0.167246
H39   H     H_    0.486338 0.242933 0.568643 0.199830
H40   H     H_    0.514463 0.756183 0.434347 0.182107
C77   C     C_R   0.036490 0.020010 0.963652 -0.072541
C78   C     C_R   0.963508 0.979992 0.036346 -0.072713
C79   C     C_R   0.463599 0.519128 0.537773 -0.093560
C80   C     C_R   0.536530 0.478673 0.464417 -0.091093
Cl1   Cl    Cl    0.920958 0.673837 0.971113 -0.648577
Cl2   Cl    Cl    0.079041 0.326164 0.028885 -0.651766
Cl3   Cl    Cl    0.565194 0.131707 0.513155 -0.644775
Cl4   Cl    Cl    0.443203 0.882748 0.498922 -0.656812

loop_
_geom_bond_atom_site_label_1
_geom_bond_atom_site_label_2
_ccdc_geom_bond_type
O17   V3    S    
C51   H27   S    
O1    C5    A    
O19   V1    S    
C9    C21   A    
C16   H16   S    
O3    C7    A    
C10   C18   A    
O1    V3    S    
C73   H37   S    
C76   H40   S    
O15   V3    S    
C58   C62   A    
C57   C61   A    
C33   C38   A    
C5    C12   S    
C45   C65   A    
C75   H39   S    
C6    C11   S    
C38   H18   S    
C35   C40   A    
C1    C67   S    
C47   C67   A    
C36   C39   A    
C40   C44   A    
O2    V4    S    
C3    C65   S    
C23   H8    S    
C14   C18   A    
C71   C75   A    
C54   C58   A    
O4    C8    A    
C25   C29   A    
C72   C76   A    
C60   H32   S    
C70   Cl2   S    
C48   H24   S    
O13   V1    S    
C59   C63   A    
C62   H34   S    
O3    V1    S    
C70   C77   A    
C61   H33   S    
C28   C36   A    
C64   H36   S    
C1    O15   A    
C52   H28   S    
C15   C31   A    
C2    O16   A    
C16   C32   A    
O2    C6    A    
C43   H3    S    
C71   Cl3   S    
C10   C22   A    
C11   C19   A    
C58   H30   S    
C16   C20   A    
C69   Cl1   S    
C57   H29   S    
C13   C29   A    
C34   C37   A    
O11   C7    A    
C11   C23   A    
C35   C36   A    
O12   C8    A    
C14   H14   S    
C45   H21   S    
C24   H7    S    
C13   H13   S    
C70   C74   A    
O10   V2    S    
C2    C68   S    
C48   C68   A    
C46   H22   S    
O5    V1    S    
C39   C43   A    
C52   C56   A    
O7    V3    S    
C38   C42   A    
O8    V4    S    
C53   C78   S    
C60   C64   A    
O18   V4    S    
C15   C19   A    
C69   C78   A    
C19   H12   S    
C32   C44   A    
C47   H23   S    
C56   C60   A    
C45   C49   A    
C44   H4    S    
C72   Cl4   S    
O7    C3    A    
O5    C1    A    
C74   C78   A    
C31   C43   A    
C14   C30   A    
C21   C25   A    
O8    C4    A    
C7    C10   S    
C46   C66   A    
C26   C34   A    
O9    C5    A    
C26   C30   A    
C37   H17   S    
O14   V2    S    
O6    V2    S    
C69   C73   A    
C12   C20   A    
C27   C35   A    
C17   H10   S    
C29   C41   A    
C48   C52   A    
C54   C77   S    
O16   V4    S    
O9    V1    S    
C53   C57   A    
C3    O13   A    
C39   H19   S    
C55   C59   A    
C20   H11   S    
C74   H38   S    
C25   C33   A    
C23   C27   A    
C64   C68   A    
O11   V3    S    
C30   C42   A    
C63   H35   S    
O12   V4    S    
C51   C55   A    
C22   C26   A    
C73   C77   A    
C8    C9    S    
C50   C54   A    
C9    C17   A    
O10   C6    A    
O20   V2    S    
C49   C53   A    
C76   C80   A    
C50   H26   S    
C33   C34   A    
C42   H2    S    
C72   C79   A    
C41   H1    S    
C75   C79   A    
C46   C50   A    
C12   C24   A    
C27   C31   A    
C22   H5    S    
C13   C17   A    
C49   H25   S    
O6    C2    A    
C15   H15   S    
C37   C41   A    
C24   C28   A    
C4    C66   S    
C18   H9    S    
C4    O14   A    
C21   H6    S    
C59   H31   S    
C62   C66   A    
C47   C51   A    
C55   C80   S    
C61   C65   A    
C40   H20   S    
C56   C79   S    
O4    V2    S    
C71   C80   A    
C28   C32   A    
C63   C67   A    
