data_mof_unit_4022.cif
_audit_creation_date              2012-12-10T18:36:07-0500
_audit_creation_method            fapswitch 2.2
_symmetry_space_group_name_H-M    P1
_symmetry_Int_Tables_number       1
_space_group_crystal_system       triclinic
_cell_length_a                    15.138856
_cell_length_b                    13.890301
_cell_length_c                    15.080728
_cell_angle_alpha                 89.999973
_cell_angle_beta                  90.706011
_cell_angle_gamma                 90.0
_cell_volume                      3170.98399547

loop_
_atom_site_label
_atom_site_type_symbol
_atom_type_description
_atom_site_fract_x
_atom_site_fract_y
_atom_site_fract_z
_atom_type_partial_charge
C1    C     C_R   0.329931 0.499959 0.499828 0.784462
C2    C     C_R   0.670069 0.499959 0.500172 0.784471
C3    C     C_R   0.500727 0.675145 0.046223 -0.216843
C4    C     C_R   0.500325 0.324242 0.953769 -0.214174
C5    C     C_R   0.094797 0.581868 0.473317 -0.181464
C6    C     C_R   0.904253 0.416820 0.474026 -0.170406
C7    C     C_R   0.905204 0.581876 0.526659 -0.181463
C8    C     C_R   0.095748 0.416827 0.525993 -0.170394
C9    C     C_R   0.186584 0.582328 0.474066 -0.182951
C10   C     C_R   0.812458 0.416795 0.474750 -0.207395
C11   C     C_R   0.813416 0.582336 0.525911 -0.182956
C12   C     C_R   0.187543 0.416803 0.525269 -0.207417
C13   C     C_R   0.233470 0.499718 0.499706 -0.027849
C14   C     C_R   0.766531 0.499718 0.500293 -0.027845
C15   C     C_R   0.048578 0.499292 0.499785 0.112627
C16   C     C_R   0.951423 0.499292 0.500213 0.112629
C17   C     C_R   0.544853 0.107862 0.565958 -0.389928
C18   C     C_R   0.434150 0.892305 0.455342 -0.390456
C19   C     C_R   0.455140 0.107863 0.434045 -0.389894
C20   C     C_R   0.565846 0.892307 0.544659 -0.390449
C21   C     C_R   0.548624 0.209683 0.562435 0.572851
C22   C     C_R   0.437492 0.790379 0.451417 0.579718
C23   C     C_R   0.451375 0.209683 0.437566 0.572840
C24   C     C_R   0.562507 0.790380 0.548583 0.579713
C25   C     C_R   0.499996 0.054733 0.500001 0.081966
C26   C     C_R   0.499997 0.945374 0.500001 0.080350
C27   C     C_R   0.500158 0.499967 0.328551 0.814932
C28   C     C_R   0.499842 0.499967 0.671449 0.814935
C29   C     C_R   0.500645 0.412175 0.814687 -0.240528
C30   C     C_R   0.502314 0.587267 0.185228 -0.260290
C31   C     C_R   0.499421 0.499799 0.768333 -0.074297
C32   C     C_R   0.500579 0.499799 0.231667 -0.074299
C33   C     C_R   0.497696 0.587267 0.814772 -0.260287
C34   C     C_R   0.499347 0.412175 0.185313 -0.240528
C35   C     C_R   0.498927 0.587872 0.907117 0.109774
C36   C     C_R   0.499728 0.411508 0.092922 0.098779
C37   C     C_R   0.499825 0.499681 0.953525 0.066965
C38   C     C_R   0.500176 0.499681 0.046475 0.066966
C39   C     C_R   0.500263 0.411508 0.907078 0.098780
C40   C     C_R   0.501084 0.587872 0.092883 0.109774
C41   C     C_R   0.499294 0.675145 0.953776 -0.216842
C42   C     C_R   0.499657 0.324242 0.046231 -0.214170
Cu1   Cu    Cu3+1 0.500000 0.596430 0.500000 1.008420
Cu2   Cu    Cu3+1 0.500000 0.403570 0.500000 1.002425
H1    H     H_    0.501636 0.344394 0.779051 0.181667
H2    H     H_    0.504726 0.655024 0.220771 0.146429
H3    H     H_    0.495290 0.655025 0.779229 0.146428
H4    H     H_    0.498348 0.344394 0.220949 0.181677
H5    H     H_    0.498819 0.743290 0.918772 0.138866
H6    H     H_    0.499338 0.256098 0.081224 0.141688
H7    H     H_    0.501209 0.743290 0.081228 0.138866
H8    H     H_    0.500637 0.256097 0.918776 0.141684
H9    H     H_    0.060088 0.645815 0.451161 0.125868
H10   H     H_    0.938195 0.352748 0.451836 0.123812
H11   H     H_    0.939913 0.645830 0.548799 0.125869
H12   H     H_    0.061806 0.352762 0.548199 0.123813
H13   H     H_    0.220743 0.646891 0.453618 0.180994
H14   H     H_    0.777470 0.352407 0.454076 0.143134
H15   H     H_    0.779258 0.646905 0.546342 0.180994
H16   H     H_    0.222531 0.352421 0.545960 0.143128
H17   H     H_    0.576885 0.071367 0.620699 0.152005
H18   H     H_    0.379673 0.929257 0.423722 0.153481
H19   H     H_    0.423105 0.071370 0.379304 0.151998
H20   H     H_    0.620322 0.929260 0.576278 0.153472
N1    N     N_R   0.500000 0.258690 0.500000 -0.238362
N2    N     N_R   0.500000 0.741310 0.500000 -0.237809
O1    O     O_R   0.371460 0.581430 0.500010 -0.540550
O2    O     O_R   0.628540 0.418570 0.499990 -0.580955
O3    O     O_R   0.628540 0.581430 0.499990 -0.540557
O4    O     O_R   0.371460 0.418570 0.500010 -0.580979
O5    O     O_R   0.499980 0.581440 0.370260 -0.578168
O6    O     O_R   0.500020 0.418560 0.629740 -0.544514
O7    O     O_R   0.500020 0.581440 0.629740 -0.578171
O8    O     O_R   0.499980 0.418560 0.370260 -0.544515
O9    O     O_3   0.594600 0.261642 0.626495 -0.587717
C43   C     C_3   0.683750 0.231472 0.634912 0.044723
H21   H     H_    0.726366 0.295492 0.624446 0.172308
H22   H     H_    0.704606 0.176985 0.584897 0.116174
C44   C     C_3   0.700771 0.193760 0.728946 -0.357700
H23   H     H_    0.688696 0.252509 0.777390 0.227545
H24   H     H_    0.654596 0.133893 0.743626 0.208440
C45   C     C_3   0.795387 0.157595 0.740386 -0.919641
H25   H     H_    0.807845 0.096710 0.694421 0.255226
H26   H     H_    0.805848 0.131978 0.809467 0.258483
H27   H     H_    0.843026 0.216507 0.726994 0.257561
O10   O     O_3   0.373411 0.738173 0.405577 -0.589870
C46   C     C_3   0.359221 0.772439 0.317989 0.031087
H28   H     H_    0.364240 0.709938 0.272478 0.166964
H29   H     H_    0.409452 0.825557 0.295256 0.119394
C47   C     C_3   0.265624 0.813430 0.308463 -0.362417
H30   H     H_    0.216856 0.754403 0.316787 0.216422
H31   H     H_    0.253411 0.867912 0.360722 0.212716
C48   C     C_3   0.251231 0.860083 0.217831 -0.915573
H32   H     H_    0.297171 0.921716 0.209467 0.254032
H33   H     H_    0.182401 0.887253 0.212324 0.257502
H34   H     H_    0.262255 0.806726 0.164216 0.258544
O11   O     O_3   0.405403 0.261639 0.373502 -0.587732
C49   C     C_3   0.316241 0.231502 0.365118 0.044744
H35   H     H_    0.273649 0.295538 0.375598 0.172336
H36   H     H_    0.295386 0.177021 0.415139 0.116157
C50   C     C_3   0.299175 0.193792 0.271091 -0.357699
H37   H     H_    0.311288 0.252524 0.222638 0.227559
H38   H     H_    0.345300 0.133880 0.256412 0.208424
C51   C     C_3   0.204528 0.157716 0.259670 -0.919608
H39   H     H_    0.192027 0.096852 0.305647 0.255215
H40   H     H_    0.194036 0.132094 0.190596 0.258479
H41   H     H_    0.156937 0.216676 0.273058 0.257559
O12   O     O_3   0.626594 0.738176 0.594418 -0.589875
C52   C     C_3   0.640789 0.772441 0.682006 0.031085
H42   H     H_    0.635771 0.709938 0.727516 0.166978
H43   H     H_    0.590560 0.825559 0.704744 0.119383
C53   C     C_3   0.734386 0.813433 0.691531 -0.362396
H44   H     H_    0.783151 0.754410 0.683164 0.216437
H45   H     H_    0.746583 0.867945 0.639295 0.212687
C54   C     C_3   0.748799 0.860033 0.782184 -0.915559
H46   H     H_    0.702855 0.921654 0.790597 0.254041
H47   H     H_    0.817627 0.887212 0.787686 0.257491
H48   H     H_    0.737802 0.806641 0.835776 0.258543

loop_
_geom_bond_atom_site_label_1
_geom_bond_atom_site_label_2
_ccdc_geom_bond_type
Cu1   O7    S    
C38   C40   A    
C46   H28   S    
C48   H32   S    
C36   C42   A    
C18   C26   A    
C43   C44   S    
C7    H11   S    
Cu1   Cu2   S    
C8    H12   S    
C53   H45   S    
O11   C49   S    
C7    C11   A    
C50   H37   S    
C4    C42   A    
C4    H8    S    
C5    H9    S    
C10   H14   S    
C43   H22   S    
C2    O2    A    
C52   H43   S    
C11   C14   A    
C15   C16   S    
O12   C52   S    
C9    C13   A    
C51   H39   S    
C17   H17   S    
C22   N2    A    
C20   C24   A    
C19   H19   S    
C54   H47   S    
C31   C33   A    
Cu2   O4    S    
C24   O12   S    
C2    O3    A    
C9    H13   S    
C24   N2    A    
C21   N1    A    
C50   H38   S    
Cu2   N1    S    
C28   O6    A    
C6    H10   S    
C11   H15   S    
C28   O7    A    
C41   H5    S    
C53   H44   S    
C53   C54   S    
C43   H21   S    
C10   C14   A    
C52   C53   S    
C44   H24   S    
C3    H7    S    
O10   C46   S    
C18   H18   S    
C25   C26   S    
C17   C21   A    
C29   H1    S    
C32   C34   A    
C20   H20   S    
C19   C23   A    
O9    C43   S    
C5    C9    A    
C37   C38   A    
C47   H31   S    
C4    C39   A    
C8    C12   A    
C54   H48   S    
C29   C39   A    
C30   C40   A    
Cu2   O8    S    
C35   C41   A    
C42   H6    S    
Cu1   O1    S    
C7    C16   A    
C23   O11   S    
C3    C40   A    
C49   H35   S    
C48   H34   S    
C49   H36   S    
C46   H29   S    
C33   H3    S    
Cu2   O2    S    
C1    C13   S    
C27   O8    A    
C27   O5    A    
C47   C48   S    
C3    C41   A    
Cu1   O5    S    
C35   C37   A    
C27   C32   S    
C18   C22   A    
C30   H2    S    
C28   C31   S    
C6    C10   A    
C44   C45   S    
C51   H40   S    
C1    O1    A    
C8    C15   A    
C45   H27   S    
C21   O9    S    
C45   H26   S    
C1    O4    A    
C49   C50   S    
C17   C25   A    
C23   N1    A    
C36   C38   A    
C29   C31   A    
C52   H42   S    
C30   C32   A    
C47   H30   S    
C48   H33   S    
C20   C26   A    
Cu1   N2    S    
C33   C35   A    
Cu2   O6    S    
C34   C36   A    
C22   O10   S    
C2    C14   S    
C5    C15   A    
C19   C25   A    
C6    C16   A    
C44   H23   S    
C12   H16   S    
C34   H4    S    
C12   C13   A    
C37   C39   A    
C45   H25   S    
C46   C47   S    
C50   C51   S    
Cu1   O3    S    
C51   H41   S    
C54   H46   S    
