data_mof_unit_4381.cif
_audit_creation_date              2013-03-05T16:46:58-0500
_audit_creation_method            fapswitch 2.2
_symmetry_space_group_name_H-M    P1
_symmetry_Int_Tables_number       1
_space_group_crystal_system       triclinic
_cell_length_a                    14.975543
_cell_length_b                    8.928271
_cell_length_c                    8.11965
_cell_angle_alpha                 90.064862
_cell_angle_beta                  89.999915
_cell_angle_gamma                 90.000017
_cell_volume                      1085.64284231

loop_
_atom_site_label
_atom_site_type_symbol
_atom_site_description
_atom_site_fract_x
_atom_site_fract_y
_atom_site_fract_z
_atom_type_partial_charge
O1    O     O_R   0.500000 0.285350 0.636850 -0.598280
O2    O     O_R   0.500000 0.714650 0.363150 -0.598280
O3    O     O_R   0.500000 0.714650 0.636850 -0.619308
O4    O     O_R   0.500000 0.285350 0.363150 -0.619308
C1    C     C_R   0.499994 0.218068 0.499929 0.979669
C2    C     C_R   0.499996 0.781932 0.500071 0.979670
O5    O     O_R   0.367850 0.500000 0.636890 -0.601247
O6    O     O_R   0.632150 0.500000 0.363110 -0.601306
O7    O     O_R   0.632150 0.500000 0.636890 -0.601306
O8    O     O_R   0.367850 0.500000 0.363110 -0.601248
C3    C     C_R   0.326774 0.499999 0.500000 0.998136
C4    C     C_R   0.673224 0.500001 0.500000 0.998240
Zn1   Zn    Zn3+2 0.500000 0.500000 0.682780 1.076098
Zn2   Zn    Zn3+2 0.500000 0.500000 0.317220 1.076098
N1    N     N_1   0.500000 0.500000 0.073640 -0.004658
N2    N     N_1   0.500000 0.500000 0.926360 -0.004658
C5    C     C_R   0.813176 0.630348 0.452102 0.163382
C6    C     C_R   0.186818 0.369746 0.548161 0.163383
C7    C     C_R   0.813176 0.369653 0.547897 0.163384
C8    C     C_R   0.186818 0.630254 0.451841 0.163386
C9    C     C_R   0.768326 0.500000 0.499999 -0.186257
C10   C     C_R   0.231670 0.500000 0.500001 -0.186182
C11   C     C_R   0.906338 0.368952 0.547372 0.066286
C12   C     C_R   0.093657 0.631005 0.452508 0.066298
C13   C     C_R   0.906339 0.631048 0.452627 0.066287
C14   C     C_R   0.093656 0.368995 0.547494 0.066300
C15   C     C_R   0.953106 0.500000 0.500000 0.009756
C16   C     C_R   0.046889 0.500000 0.500000 0.009766
C17   C     C_R   0.953871 0.240358 0.592883 -0.155959
C18   C     C_R   0.046125 0.759612 0.407033 -0.155936
C19   C     C_R   0.953872 0.759642 0.407118 -0.155958
C20   C     C_R   0.046124 0.240388 0.592969 -0.155936
C21   C     C_1   0.499992 0.065201 0.499897 -0.071394
C22   C     C_1   0.499992 0.934799 0.500103 -0.071394
H1    H     H_    0.920839 0.138035 0.629168 0.204929
H2    H     H_    0.079159 0.861919 0.370699 0.204911
H3    H     H_    0.920840 0.861965 0.370833 0.204929
H4    H     H_    0.079158 0.138081 0.629303 0.204912
Br1   Br    Br    0.745249 0.806683 0.389991 -0.469246
Br2   Br    Br    0.254732 0.193595 0.610838 -0.469361
Br3   Br    Br    0.745248 0.193318 0.610008 -0.469243
Br4   Br    Br    0.254733 0.806406 0.389167 -0.469359

loop_
_geom_bond_atom_site_label_1
_geom_bond_atom_site_label_2
_geom_bond_distance
_ccdc_geom_bond_type
O3    Zn1   1.952816 S    
C13   C19   1.400858 A    
C8    Br4   1.941307 S    
C14   C20   1.400871 A    
C20   H4    1.080149 S    
C13   C15   1.417204 A    
C17   H1    1.080156 S    
C3    C10   1.424239 S    
C14   C16   1.417152 A    
C6    C14   1.395166 A    
C18   H2    1.080150 S    
O6    C4    1.270348 A    
O3    C2    1.263245 A    
C5    C13   1.395177 A    
C21   C22   1.164274 T    
C6    C10   1.399123 A    
O5    C3    1.270359 A    
O2    C2    1.263068 A    
C2    C22   1.364833 S    
O1    C1    1.263068 A    
C11   C17   1.400857 A    
C7    C9    1.399202 A    
C8    C10   1.399123 A    
C17   C20   1.381531 A    
C11   C15   1.417205 A    
O4    Zn2   1.952817 S    
C18   C19   1.381531 A    
O2    Zn2   1.951987 S    
O7    C4    1.270349 A    
C12   C18   1.400870 A    
O1    Zn1   1.951988 S    
O8    C3    1.270360 A    
N1    N2    1.195861 T    
C12   C16   1.417153 A    
O5    Zn1   2.013791 S    
C5    Br1   1.941539 S    
Zn1   N2    1.977784 S    
O8    Zn2   2.013790 S    
O7    Zn1   2.013788 S    
C7    C11   1.395178 A    
C6    Br2   1.941306 S    
O6    Zn2   2.013789 S    
Zn2   N1    1.977784 S    
C4    C9    1.424209 S    
C8    C12   1.395166 A    
C5    C9    1.399203 A    
C7    Br3   1.941538 S    
C19   H3    1.080156 S    
O4    C1    1.263245 A    
C15   C16   1.404453 A    
C1    C21   1.364833 S    
