data_mof_unit_676.cif
_audit_creation_date              2012-12-11T14:17:40-0500
_audit_creation_method            fapswitch 2.2
_symmetry_space_group_name_H-M    P1
_symmetry_Int_Tables_number       1
_space_group_crystal_system       triclinic
_cell_length_a                    6.947404
_cell_length_b                    13.682739
_cell_length_c                    20.447076
_cell_angle_alpha                 102.381932
_cell_angle_beta                  90.081395
_cell_angle_gamma                 90.674006
_cell_volume                      1898.33199893

loop_
_atom_site_label
_atom_site_type_symbol
_atom_type_description
_atom_site_fract_x
_atom_site_fract_y
_atom_site_fract_z
_atom_type_partial_charge
O1    O     O_R   0.506860 0.599390 0.449240 -0.541423
O2    O     O_R   0.180220 0.594600 0.586780 -0.545350
O3    O     O_R   0.004500 0.400610 0.550760 -0.536832
C1    C     C_R   0.349691 0.617643 0.612718 0.736492
O4    O     O_R   0.177490 0.611290 0.451970 -0.541466
O5    O     O_R   0.001750 0.417420 0.414990 -0.540286
C2    C     C_R   0.347025 0.637911 0.435840 0.693254
O6    O     O_R   0.509610 0.582580 0.585010 -0.541747
O7    O     O_3   0.337420 0.436370 0.488020 -0.372623
V1    V     V_3+5 0.064680 0.511800 0.502220 1.439635
O8    O     O_R   0.671710 0.405400 0.413220 -0.547667
C3    C     C_R   0.839578 0.384554 0.386366 0.740734
O9    O     O_R   0.674440 0.388710 0.548030 -0.539840
C4    C     C_R   0.842501 0.362724 0.565298 0.710106
V2    V     V_3+5 0.564010 0.488200 0.497780 1.435722
O10   O     O_3   0.841140 0.563630 0.511980 -0.373856
C5    C     C_R   0.828946 0.109000 0.609336 0.006387
H1    H     H_    0.821041 0.165574 0.518370 0.143322
H2    H     H_    0.852324 0.983558 0.696757 0.107203
C6    C     C_R   0.848123 0.284840 0.604541 -0.078483
C7    C     C_R   0.865210 0.313887 0.927621 -0.173414
C8    C     C_R   0.860401 0.389460 0.891927 -0.104312
C9    C     C_R   0.855201 0.366335 0.822164 -0.134911
C10   C     C_R   0.855419 0.265619 0.785754 0.079653
C11   C     C_R   0.858317 0.188579 0.822909 0.070672
C12   C     C_R   0.851307 0.239064 0.713967 0.076181
C13   C     C_R   0.841911 0.135916 0.680618 0.056124
C14   C     C_R   0.849258 0.062421 0.719225 -0.210894
C15   C     C_R   0.857361 0.088143 0.788581 -0.184785
C16   C     C_R   0.856965 0.311946 0.674221 -0.199196
C17   C     C_R   0.832977 0.184529 0.572518 -0.158133
C18   C     C_R   0.863522 0.213662 0.893979 -0.074152
H3    H     H_    0.867947 0.390898 0.695611 0.109367
H4    H     H_    0.869687 0.333610 0.981849 0.102957
H5    H     H_    0.849231 0.429405 0.798597 0.126189
H6    H     H_    0.860406 0.466921 0.918576 0.125323
H7    H     H_    0.862518 0.027810 0.815216 0.109336
C19   C     C_2   0.003686 0.296393 0.282700 -0.139955
C20   C     C_2   0.841987 0.316876 0.319329 -0.305766
H8    H     H_    0.139316 0.329678 0.303341 0.135708
H9    H     H_    0.704842 0.284342 0.300292 0.128913
C21   C     C_2   0.012893 0.228959 0.214903 -0.104274
C22   C     C_2   0.858582 0.187244 0.179029 -0.321959
H10   H     H_    0.155478 0.214219 0.193840 0.176615
H11   H     H_    0.714592 0.203969 0.197972 0.132827
C23   C     C_2   0.222221 0.799953 0.778808 -0.156867
C24   C     C_2   0.355010 0.799015 0.827311 -0.142666
H12   H     H_    0.116253 0.859087 0.786719 0.111340
C25   C     C_2   0.208567 0.726173 0.713803 -0.080553
C26   C     C_2   0.364027 0.690063 0.677539 -0.245195
H13   H     H_    0.065217 0.706818 0.693543 0.124420
H14   H     H_    0.507213 0.714904 0.695671 0.130609
C27   C     C_R   0.440417 0.884918 0.392195 -0.096136
H15   H     H_    0.439301 0.831341 0.483203 0.111711
H16   H     H_    0.486346 0.009384 0.313300 0.123187
H17   H     H_    0.482527 0.959956 0.417776 0.138513
C28   C     C_R   0.360190 0.715666 0.397721 -0.039260
C29   C     C_R   0.308402 0.693455 0.076400 -0.172346
C30   C     C_R   0.281847 0.619214 0.112062 -0.113497
C31   C     C_R   0.298262 0.641262 0.181330 -0.147162
C32   C     C_R   0.343190 0.739446 0.217445 0.072006
C33   C     C_R   0.372863 0.816849 0.180813 0.025108
C34   C     C_R   0.361648 0.762321 0.288838 0.070715
C35   C     C_R   0.415057 0.860621 0.322435 0.114087
C36   C     C_R   0.445161 0.934501 0.286666 -0.236823
C37   C     C_R   0.422682 0.915104 0.217535 -0.040897
C38   C     C_R   0.331659 0.690671 0.328490 -0.209770
C39   C     C_R   0.415098 0.812361 0.429572 -0.132841
C40   C     C_R   0.353667 0.791435 0.109297 -0.094756
H18   H     H_    0.289718 0.614350 0.307573 0.094085
H19   H     H_    0.292328 0.674405 0.022379 0.106809
H20   H     H_    0.276010 0.578855 0.204812 0.104497
H21   H     H_    0.247207 0.543605 0.085737 0.118627
O11   O     O_R   0.203230 0.917310 0.915020 -0.539206
O12   O     O_R   0.535500 0.888690 0.048040 -0.552455
O13   O     O_R   0.711080 0.082610 0.085000 -0.542588
C41   C     C_R   0.366442 0.864711 0.066749 0.749620
O14   O     O_R   0.532630 0.905370 0.913230 -0.556199
O15   O     O_R   0.708190 0.099410 0.949230 -0.540452
C42   C     C_R   0.363385 0.881067 0.887771 0.648067
O16   O     O_R   0.206120 0.900510 0.050790 -0.522501
O17   O     O_3   0.375360 0.063570 0.011990 -0.355627
V3    V     V_3+5 0.648170 0.988200 0.997780 1.435015
O18   O     O_R   0.038240 0.111390 0.951940 -0.545380
C43   C     C_R   0.870139 0.136792 0.934286 0.673588
O19   O     O_R   0.041120 0.094710 0.086750 -0.510144
C44   C     C_R   0.872565 0.117473 0.112915 0.757447
V4    V     V_3+5 0.148810 0.011930 0.002180 1.492270
O20   O     O_3   0.871750 0.936430 0.988010 -0.381683
C45   C     C_2   0.488061 0.714101 0.826326 0.352001
H22   H     H_    0.625301 0.727268 0.852336 0.047942
O21   O     O_2   0.441463 0.628208 0.800328 -0.523459
C46   C     C_2   0.463371 0.001738 0.188118 0.351266
H23   H     H_    0.608241 0.031854 0.191237 0.044129
O22   O     O_2   0.333748 0.044981 0.166373 -0.530756
C47   C     C_2   0.803798 0.003568 0.571682 0.339819
H24   H     H_    0.749517 0.945719 0.595731 0.034619
O23   O     O_2   0.840394 0.980070 0.511986 -0.533672

loop_
_geom_bond_atom_site_label_1
_geom_bond_atom_site_label_2
_ccdc_geom_bond_type
C19   H8    S    
C46   H23   S    
C40   C41   S    
C1    O6    A    
C20   H9    S    
C6    C16   A    
C23   C25   S    
C12   C13   A    
C14   C15   A    
C10   C12   A    
C19   C21   S    
O5    C3    A    
C19   C20   D    
C27   C35   A    
O14   C42   A    
C29   H19   S    
H15   C39   S    
C31   H20   S    
V2    O10   S    
C32   C34   A    
C27   C39   A    
O8    V2    S    
O14   V3    S    
C25   H13   S    
C47   O23   D    
C26   H14   S    
C9    C10   A    
O1    V2    S    
O7    V1    S    
C30   H21   S    
C11   C18   A    
C30   C31   A    
C46   O22   D    
O11   C42   A    
O9    C4    A    
C21   H10   S    
C24   C42   S    
C28   C38   A    
O13   V3    S    
H16   C36   S    
C23   H12   S    
C11   C15   A    
V3    O20   S    
C7    C18   A    
C34   C38   A    
C33   C37   A    
C5    C13   A    
C4    C6    S    
O18   C43   A    
O4    C2    A    
O19   C44   A    
C7    H4    S    
C29   C30   A    
O17   V3    S    
C33   C40   A    
C1    C26   S    
C31   C32   A    
O2    C1    A    
O12   C41   A    
C45   O21   D    
C41   O16   A    
C47   H24   S    
C5    C47   S    
C10   C11   A    
H2    C14   S    
C22   H11   S    
O13   C44   A    
O3    C4    A    
C37   C46   S    
C12   C16   A    
O6    V2    S    
C9    H5    S    
O9    V2    S    
C5    C17   A    
C24   C45   S    
C21   C22   D    
C28   C39   A    
O2    V1    S    
O15   C43   A    
C27   H17   S    
C23   C24   D    
C16   H3    S    
O1    C2    A    
O18   V4    S    
O5    V1    S    
O8    C3    A    
C29   C40   A    
C8    H6    S    
C38   H18   S    
C22   C44   S    
C35   C36   A    
C3    C20   S    
O7    V2    S    
O4    V1    S    
O3    V1    S    
V1    O10   S    
O15   V3    S    
O12   V3    S    
C45   H22   S    
O17   V4    S    
C18   C43   S    
O19   V4    S    
C36   C37   A    
C32   C33   A    
O16   V4    S    
C34   C35   A    
V4    O20   S    
C25   C26   D    
C15   H7    S    
C13   C14   A    
C8    C9    A    
H1    C17   S    
O11   V4    S    
C7    C8    A    
C2    C28   S    
C6    C17   A    
