data_mof_unit_2752.cif
_audit_creation_date              2012-12-10T20:43:25-0500
_audit_creation_method            fapswitch 2.2
_symmetry_space_group_name_H-M    P1
_symmetry_Int_Tables_number       1
_space_group_crystal_system       triclinic
_cell_length_a                    18.64441
_cell_length_b                    18.704037
_cell_length_c                    18.846124
_cell_angle_alpha                 109.672673
_cell_angle_beta                  109.589419
_cell_angle_gamma                 109.12503
_cell_volume                      5060.78266766

loop_
_atom_site_label
_atom_site_type_symbol
_atom_type_description
_atom_site_fract_x
_atom_site_fract_y
_atom_site_fract_z
_atom_type_partial_charge
C1    C     C_R   0.381422 0.501852 0.380189 0.875740
C2    C     C_R   0.818345 0.868132 0.846993 -0.080056
C3    C     C_R   0.816644 0.695715 0.947341 -0.121802
C4    C     C_R   0.851038 0.708493 0.031555 -0.166622
C5    C     C_R   0.940358 0.736946 0.080927 0.082753
C6    C     C_R   0.286338 0.552538 0.971256 -0.153212
C7    C     C_R   0.206532 0.480429 0.900423 -0.067236
C8    C     C_R   0.172392 0.401456 0.900524 0.100440
C9    C     C_R   0.221677 0.394254 0.970072 -0.227669
C10   C     C_R   0.301218 0.466576 0.040992 -0.107958
C11   C     C_R   0.333285 0.545835 0.041829 -0.100844
C12   C     C_R   0.085833 0.261428 0.758312 -0.040991
C13   C     C_R   0.823569 0.823081 0.576557 -0.252780
C14   C     C_R   0.003456 0.190102 0.686440 -0.090601
C15   C     C_R   0.923641 0.183549 0.680243 -0.039811
C16   C     C_R   0.926495 0.246176 0.747482 -0.275886
C17   C     C_R   0.006396 0.315464 0.818758 -0.086513
C18   C     C_R   0.087050 0.324822 0.825357 -0.103434
C19   C     C_R   0.779483 0.134626 0.556322 -0.135364
C20   C     C_R   0.697515 0.068754 0.483718 -0.147597
C21   C     C_R   0.671568 0.981037 0.458330 -0.119479
C22   C     C_R   0.727128 0.959255 0.506166 -0.107386
C23   C     C_R   0.808324 0.024867 0.579923 -0.124782
C24   C     C_R   0.813296 0.810464 0.495962 -0.079591
C25   C     C_R   0.835966 0.113086 0.604444 0.133525
C26   C     C_R   0.738753 0.738216 0.417928 -0.009147
C27   C     C_R   0.678365 0.676219 0.423219 -0.260522
C28   C     C_R   0.689027 0.688162 0.504145 -0.090908
C29   C     C_R   0.760762 0.764280 0.582334 0.001521
C30   C     C_R   0.643445 0.715685 0.273287 -0.162603
C31   C     C_R   0.625320 0.699721 0.189500 -0.135850
C32   C     C_R   0.684608 0.691898 0.161939 -0.113595
C33   C     C_R   0.623108 0.620639 0.503316 0.870559
C34   C     C_R   0.762217 0.700389 0.218263 -0.126605
C35   C     C_R   0.781072 0.717438 0.302461 -0.112273
C36   C     C_R   0.721704 0.724904 0.330523 0.135659
C37   C     C_R   0.439922 0.811045 0.510318 -0.145635
C38   C     C_R   0.373004 0.727684 0.441087 -0.154664
C39   C     C_R   0.393124 0.668982 0.393702 0.136585
C40   C     C_R   0.480809 0.695233 0.415876 -0.112931
C41   C     C_R   0.547431 0.778323 0.485577 -0.144640
C42   C     C_R   0.527202 0.836287 0.532708 -0.127138
C43   C     C_R   0.257201 0.576826 0.251740 -0.254443
C44   C     C_R   0.618441 0.498325 0.619836 0.885019
C45   C     C_R   0.185686 0.495980 0.182883 -0.071247
C46   C     C_R   0.176341 0.416935 0.180753 0.009699
C47   C     C_R   0.244268 0.421840 0.245765 -0.262758
C48   C     C_R   0.315883 0.502731 0.314246 -0.079051
C49   C     C_R   0.321695 0.581452 0.319457 -0.012556
C50   C     C_R   0.058034 0.272897 0.140406 -0.273624
C51   C     C_R   0.986726 0.188215 0.078779 0.063048
C52   C     C_R   0.954851 0.159319 0.989697 -0.090976
C53   C     C_R   0.993642 0.214592 0.963016 -0.181360
C54   C     C_R   0.064596 0.298695 0.024739 -0.094909
C55   C     C_R   0.378615 0.380014 0.498803 0.900329
C56   C     C_R   0.097835 0.328871 0.114029 0.137833
C57   C     C_R   0.244766 0.542996 0.580079 -0.157849
C58   C     C_R   0.251940 0.470810 0.579882 -0.116166
C59   C     C_R   0.232940 0.402527 0.502915 0.111922
C60   C     C_R   0.206692 0.407274 0.426341 -0.168028
C61   C     C_R   0.199102 0.479344 0.426718 -0.113186
C62   C     C_R   0.218400 0.547277 0.503570 -0.095732
C63   C     C_R   0.178242 0.262780 0.506107 -0.047111
C64   C     C_R   0.186015 0.188513 0.501699 -0.095989
C65   C     C_R   0.254675 0.177322 0.493600 -0.053043
C66   C     C_R   0.738554 0.848041 0.782431 -0.221535
C67   C     C_R   0.316852 0.241513 0.492681 -0.228743
C68   C     C_R   0.310292 0.314596 0.497250 -0.064018
C69   C     C_R   0.240774 0.325773 0.502474 -0.098649
C70   C     C_R   0.331404 0.099344 0.538496 -0.127446
C71   C     C_R   0.341129 0.025274 0.519665 -0.148403
C72   C     C_R   0.280643 0.948427 0.439630 -0.138217
C73   C     C_R   0.209612 0.945128 0.378875 -0.124680
C74   C     C_R   0.198608 0.018524 0.398083 -0.149692
C75   C     C_R   0.259816 0.096416 0.477976 0.131321
C76   C     C_R   0.482303 0.507000 0.771965 -0.145624
C77   C     C_R   0.717780 0.811014 0.695487 -0.098137
C78   C     C_R   0.562727 0.527237 0.774794 -0.097074
C79   C     C_R   0.584436 0.461362 0.748619 0.099219
C80   C     C_R   0.525342 0.375441 0.721945 -0.190967
C81   C     C_R   0.445326 0.355721 0.720163 -0.122073
C82   C     C_R   0.423536 0.421249 0.744455 -0.093962
C83   C     C_R   0.733715 0.480308 0.810565 -0.229667
C84   C     C_R   0.811849 0.494623 0.809360 -0.078860
C85   C     C_R   0.824432 0.506499 0.743572 -0.006566
C86   C     C_R   0.759595 0.508508 0.682453 -0.260610
C87   C     C_R   0.683118 0.496861 0.685484 -0.068047
C88   C     C_R   0.774020 0.788159 0.671192 0.130852
C89   C     C_R   0.668524 0.481516 0.748823 -0.013470
C90   C     C_R   0.956359 0.585918 0.735782 -0.156123
C91   C     C_R   0.028427 0.590534 0.725645 -0.148708
C92   C     C_R   0.045892 0.521414 0.713159 -0.125151
C93   C     C_R   0.991192 0.447430 0.710548 -0.114844
C94   C     C_R   0.919196 0.442617 0.720857 -0.117207
C95   C     C_R   0.901550 0.512104 0.734019 0.142983
C96   C     C_R   0.998914 0.878077 0.380014 0.863592
C97   C     C_R   0.879694 0.877168 0.496929 0.850880
C98   C     C_R   0.000999 0.121344 0.619973 0.980770
C99   C     C_R   0.853885 0.807700 0.736667 -0.301107
C100  C     C_R   0.120186 0.120542 0.500437 0.986825
C101  C     C_R   0.003047 0.380249 0.882754 0.876777
C102  C     C_R   0.120003 0.497848 0.118076 0.864894
C103  C     C_R   0.998856 0.620015 0.118621 0.886468
C104  C     C_R   0.879441 0.498322 0.878342 0.881494
C105  C     C_R   0.143582 0.792383 0.558051 -0.163505
C106  C     C_R   0.125549 0.798473 0.482720 -0.099726
C107  C     C_R   0.040684 0.745333 0.409843 0.135208
C108  C     C_R   0.975055 0.683817 0.412176 -0.179857
C109  C     C_R   0.993209 0.678049 0.487681 -0.119125
C110  C     C_R   0.877714 0.850362 0.824715 0.042883
C111  C     C_R   0.077358 0.732473 0.560672 -0.113942
C112  C     C_R   0.021355 0.688012 0.263293 -0.261930
C113  C     C_R   0.999032 0.686188 0.184202 -0.068825
C114  C     C_R   0.974772 0.745070 0.168011 -0.014657
C115  C     C_R   0.975221 0.807422 0.233803 -0.270126
C116  C     C_R   0.999067 0.810863 0.314226 -0.093690
C117  C     C_R   0.021559 0.749982 0.329205 -0.002829
C118  C     C_R   0.995203 0.755156 0.045926 -0.075924
C119  C     C_R   0.959869 0.739347 0.960524 -0.071440
C120  C     C_R   0.870541 0.709440 0.911169 -0.091250
H1    H     H_    0.834645 0.899729 0.914354 0.211769
H2    H     H_    0.670259 0.678892 0.096854 0.121446
H3    H     H_    0.807402 0.693103 0.196409 0.140426
H4    H     H_    0.841324 0.724069 0.345522 0.099545
H5    H     H_    0.579171 0.900625 0.586594 0.130009
H6    H     H_    0.424107 0.855942 0.546665 0.121212
H7    H     H_    0.305587 0.708708 0.424593 0.117904
H8    H     H_    0.497391 0.651423 0.379244 0.095928
H9    H     H_    0.614846 0.797468 0.503582 0.129345
H10   H     H_    0.261592 0.636910 0.253847 0.155133
H11   H     H_    0.240328 0.362176 0.244481 0.157255
H12   H     H_    0.694285 0.864533 0.800223 0.147142
H13   H     H_    0.082574 0.295444 0.209158 0.115667
H14   H     H_    0.900063 0.094226 0.940822 0.165925
H15   H     H_    0.968719 0.192183 0.894307 0.151411
H16   H     H_    0.093120 0.340573 0.002937 0.109188
H17   H     H_    0.212800 0.603152 0.503795 0.122930
H18   H     H_    0.259574 0.595582 0.639520 0.118748
H19   H     H_    0.272529 0.468114 0.639488 0.123735
H20   H     H_    0.192057 0.355157 0.366635 0.106803
H21   H     H_    0.178344 0.482632 0.367506 0.139485
H22   H     H_    0.659302 0.803255 0.647906 0.148107
H23   H     H_    0.370532 0.234064 0.487478 0.160292
H24   H     H_    0.380364 0.159154 0.599535 0.112247
H25   H     H_    0.396392 0.027899 0.566532 0.124212
H26   H     H_    0.288923 0.891489 0.424583 0.123132
H27   H     H_    0.163805 0.885960 0.316436 0.150838
H28   H     H_    0.144058 0.015518 0.349785 0.119966
H29   H     H_    0.361218 0.405587 0.742141 0.152381
H30   H     H_    0.465474 0.557813 0.790947 0.117982
H31   H     H_    0.607081 0.593907 0.795778 0.124890
H32   H     H_    0.899909 0.794631 0.719264 0.129712
H33   H     H_    0.540955 0.323779 0.701958 0.132078
H34   H     H_    0.399864 0.289652 0.699731 0.144185
H35   H     H_    0.724216 0.469985 0.860769 0.162385
H36   H     H_    0.768075 0.518043 0.631479 0.151063
H37   H     H_    0.943550 0.639935 0.745542 0.110745
H38   H     H_    0.070682 0.647662 0.727356 0.119195
H39   H     H_    0.101653 0.525065 0.705256 0.123537
H40   H     H_    0.004507 0.393760 0.700384 0.152061
H41   H     H_    0.877018 0.384730 0.718240 0.098341
H42   H     H_    0.091388 0.727772 0.618996 0.115079
H43   H     H_    0.208930 0.833990 0.614323 0.120290
H44   H     H_    0.177349 0.844809 0.481360 0.132710
H45   H     H_    0.910171 0.639966 0.355419 0.127456
H46   H     H_    0.942208 0.631000 0.489415 0.133442
H47   H     H_    0.038299 0.640600 0.273378 0.147138
H48   H     H_    0.956729 0.853316 0.221971 0.179814
H49   H     H_    0.064831 0.780010 0.084076 0.134719
H50   H     H_    0.001780 0.750467 0.932684 0.113455
H51   H     H_    0.843071 0.696992 0.844973 0.131727
H52   H     H_    0.747973 0.673933 0.909775 0.126035
H53   H     H_    0.879501 0.881683 0.635651 0.155690
H54   H     H_    0.807908 0.695087 0.057824 0.126437
H55   H     H_    0.394895 0.601764 0.096749 0.114267
H56   H     H_    0.311750 0.613628 0.971455 0.114898
H57   H     H_    0.170762 0.486313 0.846052 0.124531
H58   H     H_    0.198808 0.332525 0.969029 0.131162
H59   H     H_    0.338220 0.461029 0.095062 0.137603
H60   H     H_    0.865601 0.241828 0.743480 0.157958
H61   H     H_    0.799393 0.202349 0.574525 0.127742
H62   H     H_    0.654486 0.085696 0.446675 0.133625
H63   H     H_    0.621670 0.618879 0.363686 0.155898
H64   H     H_    0.608605 0.929934 0.401467 0.129622
H65   H     H_    0.707781 0.891480 0.485339 0.130891
H66   H     H_    0.850333 0.007013 0.616870 0.094074
H67   H     H_    0.596651 0.720992 0.293662 0.118702
H68   H     H_    0.565084 0.692897 0.145770 0.121856
O1    O     O_R   0.408360 0.551710 0.460090 -0.601574
O2    O     O_R   0.948280 0.908380 0.356650 -0.629941
O3    O     O_R   0.960110 0.908350 0.551690 -0.627421
O4    O     O_R   0.856660 0.908370 0.448270 -0.615759
O5    O     O_R   0.051720 0.091580 0.643310 -0.625067
O6    O     O_R   0.948270 0.091600 0.539890 -0.587089
O7    O     O_R   0.143340 0.091590 0.551680 -0.595956
O8    O     O_R   0.039890 0.091610 0.448270 -0.619238
O9    O     O_R   0.051730 0.460050 0.908360 -0.613283
O10   O     O_R   0.948290 0.356630 0.908390 -0.627233
O11   O     O_R   0.143340 0.551690 0.091580 -0.615675
O12   O     O_R   0.408400 0.448280 0.356670 -0.627962
O13   O     O_R   0.039900 0.448270 0.091610 -0.617669
O14   O     O_R   0.051710 0.643320 0.091560 -0.639412
O15   O     O_R   0.948270 0.539900 0.091590 -0.618660
O16   O     O_R   0.960100 0.551680 0.908340 -0.613210
O17   O     O_R   0.856660 0.448270 0.908370 -0.630639
O18   O     O_R   0.591600 0.643340 0.551710 -0.628432
O19   O     O_R   0.591630 0.539900 0.448290 -0.622419
O20   O     O_R   0.591600 0.551720 0.643330 -0.630436
O21   O     O_R   0.591640 0.448290 0.539910 -0.623159
O22   O     O_R   0.408370 0.460100 0.551710 -0.603198
O23   O     O_R   0.408400 0.356660 0.448290 -0.632476
O24   O     O_R   0.051730 0.908360 0.460060 -0.617473
Zn1   Zn    Zn3+2 0.499980 0.569060 0.569060 0.963844
Zn2   Zn    Zn3+2 0.500020 0.430940 0.430940 0.951432
Zn3   Zn    Zn3+2 0.069070 0.999960 0.569030 0.980781
Zn4   Zn    Zn3+2 0.930930 0.999990 0.430930 1.001406
Zn5   Zn    Zn3+2 0.069070 0.569030 0.999960 0.948996
Zn6   Zn    Zn3+2 0.930930 0.430930 0.000000 0.956881
C121  C     C_2   0.946740 0.130960 0.108674 0.399222
H69   H     H_    0.972831 0.154381 0.177852 0.053712
O25   O     O_2   0.884352 0.057170 0.056733 -0.586378
C122  C     C_2   0.104983 0.275409 0.512294 0.410001
H70   H     H_    0.078943 0.307351 0.480936 0.057760
O26   O     O_2   0.075215 0.253675 0.554845 -0.539728
C123  C     C_2   0.966476 0.880070 0.892542 0.355377
H71   H     H_    0.010847 0.864193 0.874060 0.042709
O27   O     O_2   0.991469 0.923120 0.969710 -0.554453
C124  C     C_2   0.171174 0.272869 0.763898 0.408821
H72   H     H_    0.228638 0.301546 0.826403 0.058380
O28   O     O_2   0.179360 0.253797 0.699617 -0.548800

loop_
_geom_bond_atom_site_label_1
_geom_bond_atom_site_label_2
_ccdc_geom_bond_type
C58   H19   S    
C21   H64   S    
C108  H45   S    
C40   C41   A    
O20   Zn1   S    
C96   O24   A    
C33   O18   A    
C5    C114  S    
C52   H14   S    
C41   C42   A    
C35   C36   A    
C53   H15   S    
C67   H23   S    
C19   H61   S    
C27   H63   S    
C124  O28   D    
C114  C115  A    
C57   C58   A    
C80   H33   S    
C85   C86   A    
C108  C109  A    
C13   H53   S    
C98   O6    A    
C26   C27   A    
C93   C94   A    
C73   H27   S    
C83   C84   A    
C10   H59   S    
C104  O16   A    
O14   Zn5   S    
C13   C29   A    
C28   C29   A    
C103  C113  S    
C102  O13   A    
C76   C78   A    
O13   Zn6   S    
C34   C35   A    
C109  C111  A    
O6    Zn4   S    
C112  C117  A    
O8    Zn4   S    
C101  O9    A    
C3    H52   S    
C12   C124  S    
C23   H66   S    
C83   H35   S    
C106  C107  A    
C16   H60   S    
C15   C16   A    
C40   H8    S    
C44   O20   A    
C116  C117  A    
C7    H57   S    
C44   O21   A    
C73   C74   A    
C96   O2    A    
C37   C42   A    
C17   C101  S    
C118  C119  A    
C124  H72   S    
C91   H38   S    
C86   H36   S    
C42   H5    S    
O3    Zn3   S    
C77   H22   S    
C97   O4    A    
C2    C110  A    
C63   C69   A    
C77   C88   A    
C16   C17   A    
C29   C88   S    
O11   Zn5   S    
C31   H68   S    
O12   Zn2   S    
C107  C108  A    
C105  H43   S    
O5    Zn3   S    
C70   C71   A    
C106  H44   S    
C44   C87   S    
C9    C10   A    
O7    Zn3   S    
C35   H4    S    
C72   C73   A    
C61   C62   A    
C105  C111  A    
C59   C60   A    
C4    H54   S    
C21   C22   A    
C63   C122  S    
O10   Zn6   S    
C111  H42   S    
O9    Zn5   S    
C112  C113  A    
C78   H31   S    
C14   C98   S    
C66   H12   S    
C100  O8    A    
C38   C39   A    
C83   C89   A    
C54   C56   A    
O17   Zn6   S    
C74   C75   A    
C101  O10   A    
C51   C52   A    
C82   H29   S    
C47   C48   A    
C32   H2    S    
C7    C8    A    
C84   C85   A    
C113  C114  A    
C109  H46   S    
C76   C82   A    
C91   C92   A    
C55   C68   S    
C86   C87   A    
C8    C9    A    
C81   C82   A    
C118  H49   S    
C65   C67   A    
C58   C59   A    
C53   C54   A    
C99   C110  A    
C110  C123  S    
O19   Zn2   S    
C50   C56   A    
C81   H34   S    
C67   C68   A    
C98   O5    A    
C47   H11   S    
C60   C61   A    
C32   C34   A    
C93   H40   S    
C37   C38   A    
C121  O25   D    
C31   C32   A    
C14   C15   A    
O24   Zn3   S    
C76   H30   S    
C54   H16   S    
C17   C18   A    
C94   C95   A    
C50   C51   A    
C104  O17   A    
C85   C95   S    
C122  O26   D    
C43   C45   A    
C94   H41   S    
O1    Zn1   S    
C59   C69   S    
O18   Zn1   S    
C61   H21   S    
C48   C49   A    
C39   C49   S    
C60   H20   S    
C28   C33   S    
C10   C11   A    
C92   H39   S    
C84   C104  S    
C79   C80   A    
C1    O12   A    
C57   C62   A    
C46   C56   S    
C3    C4    A    
C6    C11   A    
C52   C53   A    
C20   H62   S    
C37   H6    S    
C105  C106  A    
C100  O7    A    
C26   C36   S    
C3    C120  A    
C121  H69   S    
C66   C77   A    
C46   C47   A    
C33   O19   A    
O15   Zn6   S    
C123  H71   S    
C78   C79   A    
C5    C118  A    
C70   H24   S    
C68   C69   A    
C43   H10   S    
C43   C49   A    
C24   C26   A    
C80   C81   A    
C2    C66   A    
C50   H13   S    
C90   C95   A    
C19   C20   A    
C71   H25   S    
C119  C120  A    
C1    C48   S    
C2    H1    S    
C6    C7    A    
O22   Zn1   S    
C99   H32   S    
C74   H28   S    
C97   O3    A    
C11   H55   S    
O21   Zn2   S    
C65   C75   S    
C120  H51   S    
C30   C36   A    
O16   Zn5   S    
C51   C121  S    
C30   H67   S    
C103  O15   A    
C90   H37   S    
C87   C89   A    
C12   C14   A    
C103  O14   A    
C71   C72   A    
C102  O11   A    
C64   C65   A    
C55   O22   A    
C41   H9    S    
C112  H47   S    
C90   C91   A    
C30   C31   A    
C6    H56   S    
C22   H65   S    
C38   H7    S    
C4    C5    A    
C92   C93   A    
C123  O27   D    
O4    Zn4   S    
C57   H18   S    
C24   C97   S    
C23   C25   A    
C62   H17   S    
C122  H70   S    
C19   C25   A    
C8    C18   S    
C79   C89   S    
C88   C99   A    
C15   C25   S    
C45   C102  S    
C119  H50   S    
C55   O23   A    
C63   C64   A    
C39   C40   A    
C45   C46   A    
C64   C100  S    
O23   Zn2   S    
C20   C21   A    
C13   C24   A    
C12   C18   A    
C27   C28   A    
C72   H26   S    
C34   H3    S    
C22   C23   A    
C96   C116  S    
C70   C75   A    
C115  H48   S    
O2    Zn4   S    
C107  C117  S    
C9    H58   S    
C115  C116  A    
C1    O1    A    
