data_mof_unit_3818.cif
_audit_creation_date              2012-12-10T20:30:08-0500
_audit_creation_method            fapswitch 2.2
_symmetry_space_group_name_H-M    P1
_symmetry_Int_Tables_number       1
_space_group_crystal_system       triclinic
_cell_length_a                    9.873046
_cell_length_b                    10.790561
_cell_length_c                    12.940586
_cell_angle_alpha                 90.42926
_cell_angle_beta                  71.792071
_cell_angle_gamma                 89.530375
_cell_volume                      1309.48726679

loop_
_atom_site_label
_atom_site_type_symbol
_atom_type_description
_atom_site_fract_x
_atom_site_fract_y
_atom_site_fract_z
_atom_type_partial_charge
C1    C     C_R   0.499842 0.739392 0.499212 0.936684
C2    C     C_R   0.453527 0.379645 0.971052 0.034049
C3    C     C_R   0.493502 0.387757 0.857345 0.095454
C4    C     C_R   0.558046 0.404225 0.021868 0.105029
C5    C     C_R   0.703255 0.411336 0.957998 0.170397
C6    C     C_R   0.743031 0.378509 0.848327 -0.239888
C7    C     C_R   0.638433 0.366967 0.797869 -0.161505
C8    C     C_R   0.520310 0.434973 0.131927 -0.251692
C9    C     C_R   0.765428 0.485043 0.114129 -0.127191
C10   C     C_R   0.386731 0.416895 0.808877 -0.184784
C11   C     C_R   0.384206 0.939762 0.496845 0.109044
C12   C     C_R   0.424957 0.474964 0.700305 0.912136
C13   C     C_R   0.499999 0.870382 0.501637 -0.164483
C14   C     C_R   0.619677 0.932244 0.511577 -0.172587
C15   C     C_R   0.620779 0.060477 0.518375 0.175513
C16   C     C_R   0.502145 0.128927 0.507551 -0.168771
C17   C     C_R   0.385879 0.063552 0.498610 0.092472
C18   C     C_3   0.243388 0.075950 0.482224 -0.414244
C19   C     C_3   0.241592 0.933370 0.480591 -0.416014
C20   C     C_R   0.908367 0.595130 0.548800 0.177733
C21   C     C_R   0.953795 0.416828 0.438989 -0.095607
C22   C     C_R   0.097522 0.416247 0.439539 -0.109794
C23   C     C_R   0.500205 0.260344 0.502671 0.888804
C24   C     C_R   0.050328 0.593522 0.550062 0.152610
C25   C     C_3   0.009712 0.629252 0.667008 -0.529461
C26   C     C_3   0.856295 0.634000 0.665941 0.183303
C27   C     C_R   0.577706 0.497323 0.295402 0.876586
C28   C     C_R   0.805162 0.454198 0.003885 -0.098604
C29   C     C_R   0.622833 0.474529 0.178416 -0.076819
C30   C     C_R   0.244484 0.388052 0.866318 -0.257237
C31   C     C_R   0.210388 0.344325 0.973008 0.448274
C32   C     C_R   0.311252 0.349871 0.027903 -0.236145
H1    H     H_    0.845710 0.516674 0.148950 0.173755
H2    H     H_    0.162244 0.118286 0.554002 0.231282
H3    H     H_    0.250252 0.117625 0.402476 0.201397
H4    H     H_    0.159584 0.893170 0.551563 0.226997
H5    H     H_    0.247276 0.893126 0.400001 0.207757
H6    H     H_    0.919871 0.348612 0.390882 0.186185
H7    H     H_    0.171587 0.347015 0.392487 0.147187
H8    H     H_    0.030295 0.553661 0.718266 0.176673
H9    H     H_    0.053851 0.720582 0.679290 0.238444
H10   H     H_    0.786076 0.565945 0.718748 0.144685
H11   H     H_    0.854421 0.371638 0.799863 0.151659
H12   H     H_    0.914855 0.465762 0.953933 0.154210
H13   H     H_    0.409956 0.432762 0.181731 0.160839
H14   H     H_    0.162089 0.395248 0.827619 0.166891
H15   H     H_    0.279089 0.323339 0.112440 0.160124
H16   H     H_    0.672857 0.344563 0.712146 0.200797
H17   H     H_    0.713244 0.881469 0.514170 0.236263
N1    N     N_R   0.856940 0.500860 0.500710 -0.137683
N2    N     N_R   0.142580 0.500820 0.500710 -0.105808
O1    O     O_R   0.385310 0.683210 0.499990 -0.611981
O2    O     O_R   0.614650 0.683240 0.500000 -0.595370
O3    O     O_R   0.328390 0.499940 0.653610 -0.611538
O4    O     O_R   0.557730 0.499980 0.653620 -0.618860
O5    O     O_R   0.385350 0.316760 0.500000 -0.627135
O6    O     O_R   0.614690 0.316790 0.500010 -0.609239
O7    O     O_R   0.442270 0.500020 0.346380 -0.620567
O8    O     O_R   0.671610 0.500060 0.346390 -0.609571
Zn1   Zn    Zn3+2 0.346870 0.499980 0.499990 0.950502
Zn2   Zn    Zn3+2 0.653130 0.500020 0.500010 0.976303
I1    I     I_    0.805474 0.130341 0.550114 -0.358976
Cl1   Cl    Cl    0.783795 0.787167 0.685854 -0.587858
Cl2   Cl    Cl    0.044618 0.278190 0.038406 -0.650623

loop_
_geom_bond_atom_site_label_1
_geom_bond_atom_site_label_2
_ccdc_geom_bond_type
C2    C4    A    
C26   Cl1   S    
O6    Zn2   S    
C6    C7    A    
C13   C14   A    
C27   C29   S    
C5    C28   A    
C18   H2    S    
C18   H3    S    
C10   C30   A    
C31   C32   A    
C27   O8    A    
C9    C29   A    
C4    C8    A    
C7    H16   S    
C24   N2    A    
C17   C18   S    
C25   C26   S    
C23   O5    A    
C3    C10   A    
O3    Zn1   S    
C21   C22   A    
C9    H1    S    
C11   C13   A    
C11   C19   S    
C30   C31   A    
C10   C12   S    
O1    Zn1   S    
C22   H7    S    
O4    Zn2   S    
C21   N1    A    
C32   H15   S    
C15   I1    S    
C28   H12   S    
C2    C3    A    
C16   C23   S    
C3    C7    A    
C6    H11   S    
C25   H8    S    
C5    C6    A    
C1    O1    A    
C12   O3    A    
O8    Zn2   S    
C12   O4    A    
C1    C13   S    
C8    C29   A    
O7    Zn1   S    
C15   C16   A    
C14   H17   S    
C16   C17   A    
C20   C24   A    
C24   C25   S    
C26   H10   S    
C2    C32   A    
C18   C19   S    
C25   H9    S    
C23   O6    A    
N1    Zn2   S    
C1    O2    A    
C8    H13   S    
C4    C5    A    
C20   N1    A    
N2    Zn1   S    
C19   H5    S    
C19   H4    S    
C14   C15   A    
O2    Zn2   S    
C31   Cl2   S    
C30   H14   S    
C11   C17   A    
C21   H6    S    
O5    Zn1   S    
C9    C28   A    
C22   N2    A    
C20   C26   S    
C27   O7    A    
