data_mof_unit_4724.cif
_audit_creation_date              2012-12-10T20:42:44-0500
_audit_creation_method            fapswitch 2.2
_symmetry_space_group_name_H-M    P1
_symmetry_Int_Tables_number       1
_space_group_crystal_system       triclinic
_cell_length_a                    8.908307
_cell_length_b                    10.675288
_cell_length_c                    9.88369
_cell_angle_alpha                 89.994565
_cell_angle_beta                  90.007671
_cell_angle_gamma                 90.040902
_cell_volume                      939.926241251

loop_
_atom_site_label
_atom_site_type_symbol
_atom_type_description
_atom_site_fract_x
_atom_site_fract_y
_atom_site_fract_z
_atom_type_partial_charge
Br1   Br    Br    0.531518 0.140089 0.900242 -0.548631
C1    C     C_R   0.504989 0.259997 0.500106 0.876417
C2    C     C_R   0.369041 0.511918 0.928738 0.209625
C3    C     C_3   0.237347 0.425823 0.922814 -0.474960
C4    C     C_R   0.218764 0.499906 0.499981 0.932422
C5    C     C_3   0.237796 0.424972 0.076434 -0.477217
C6    C     C_R   0.504626 0.740032 0.499977 0.879816
C7    C     C_R   0.781254 0.499969 0.500026 0.936508
C8    C     C_1   0.065423 0.499850 0.499999 -0.209352
C9    C     C_1   0.934606 0.499876 0.500027 -0.201980
C10   C     C_R   0.533156 0.063882 0.623108 0.139778
C11   C     C_R   0.530033 0.128687 0.500751 -0.156535
C12   C     C_R   0.556213 0.935370 0.378851 -0.208263
C13   C     C_R   0.556529 0.064877 0.378991 -0.192512
C14   C     C_R   0.529116 0.871439 0.500410 -0.108476
C15   C     C_R   0.531864 0.936060 0.622702 0.084028
C16   C     C_3   0.428651 0.928667 0.741696 -0.500420
C17   C     C_3   0.430541 0.070897 0.742760 0.098774
C18   C     C_R   0.369033 0.511631 0.071121 0.212699
C19   C     C_R   0.630922 0.497524 0.071797 -0.106286
C20   C     C_R   0.630923 0.497542 0.928177 -0.073071
H1    H     H_    0.566543 0.113837 0.283386 0.204698
H2    H     H_    0.483707 0.884794 0.830802 0.236520
H3    H     H_    0.320030 0.114054 0.719000 0.124085
H4    H     H_    0.265217 0.333538 0.877221 0.240008
H5    H     H_    0.137073 0.470428 0.121061 0.200012
H6    H     H_    0.266789 0.332220 0.120520 0.233742
H7    H     H_    0.566255 0.886532 0.283206 0.185176
H8    H     H_    0.317077 0.888762 0.715233 0.179785
H9    H     H_    0.736643 0.493643 0.125263 0.152419
H10   H     H_    0.736637 0.493597 0.874735 0.152238
H11   H     H_    0.136687 0.472272 0.879243 0.198322
N1    N     N_R   0.499010 0.499140 0.142800 -0.105926
N2    N     N_R   0.499010 0.499180 0.857150 -0.098112
O1    O     O_R   0.500020 0.316790 0.614690 -0.589885
O2    O     O_R   0.500000 0.316760 0.385350 -0.614753
O3    O     O_R   0.285350 0.500020 0.614650 -0.621205
O4    O     O_R   0.285340 0.499980 0.385310 -0.616502
O5    O     O_R   0.500000 0.683240 0.614650 -0.617173
O6    O     O_R   0.499980 0.683210 0.385310 -0.624607
O7    O     O_R   0.714660 0.500020 0.614690 -0.622304
O8    O     O_R   0.714650 0.499980 0.385350 -0.627143
Zn1   Zn    Zn3+2 0.500010 0.500020 0.653130 0.965056
Zn2   Zn    Zn3+2 0.499990 0.499980 0.346870 0.953184

loop_
_geom_bond_atom_site_label_1
_geom_bond_atom_site_label_2
_ccdc_geom_bond_type
C1    O1    A    
O3    Zn1   S    
C10   C11   A    
C10   C17   S    
C2    C18   A    
C4    O3    A    
C16   H8    S    
C8    C9    T    
O7    Zn1   S    
C5    H6    S    
C16   H2    S    
C6    O6    A    
C1    C11   S    
C13   H1    S    
C6    C14   S    
C16   C17   S    
C5    H5    S    
C12   H7    S    
C19   H9    S    
C4    O4    A    
C7    O7    A    
C4    C8    S    
C5    C18   S    
C20   H10   S    
Br1   C17   S    
C3    H11   S    
O8    Zn2   S    
C17   H3    S    
C19   N1    A    
C7    C9    S    
C7    O8    A    
O4    Zn2   S    
C3    H4    S    
C12   C14   A    
O2    Zn2   S    
C10   C15   A    
C2    C3    S    
O6    Zn2   S    
O1    Zn1   S    
C19   C20   A    
C3    C5    S    
C18   N1    A    
C1    O2    A    
C6    O5    A    
O5    Zn1   S    
C20   N2    A    
C2    N2    A    
C12   C13   A    
N1    Zn2   S    
N2    Zn1   S    
C14   C15   A    
C11   C13   A    
C15   C16   S    
