data_mof_unit_4063.cif
_audit_creation_date              2012-12-10T18:07:37-0500
_audit_creation_method            fapswitch 2.2
_symmetry_space_group_name_H-M    P1
_symmetry_Int_Tables_number       1
_space_group_crystal_system       triclinic
_cell_length_a                    11.509529
_cell_length_b                    12.768979
_cell_length_c                    13.195426
_cell_angle_alpha                 82.681873
_cell_angle_beta                  93.937237
_cell_angle_gamma                 102.114958
_cell_volume                      1878.87074332

loop_
_atom_site_label
_atom_site_type_symbol
_atom_type_description
_atom_site_fract_x
_atom_site_fract_y
_atom_site_fract_z
_atom_type_partial_charge
C1    C     C_R   0.472275 0.440551 0.688792 0.892335
C2    C     C_R   0.450731 0.673845 0.885356 -0.292125
C3    C     C_R   0.409606 0.590213 0.824719 0.114811
C4    C     C_R   0.717560 0.500993 0.500979 0.907569
C5    C     C_R   0.444792 0.516658 0.134099 0.046548
C6    C     C_R   0.543336 0.700181 0.157592 -0.293104
C7    C     C_R   0.433111 0.405640 0.794305 -0.206700
C8    C     C_R   0.351863 0.101883 0.327796 0.034946
C9    C     C_R   0.644778 0.799034 0.629989 0.215995
C10   C     C_R   0.695811 0.906600 0.643594 0.030450
C11   C     C_R   0.653851 0.988381 0.581902 -0.200956
C12   C     C_R   0.499666 0.593260 0.199202 -0.106900
C13   C     C_R   0.555154 0.967025 0.513082 -0.027874
C14   C     C_R   0.514553 0.858088 0.492578 0.111337
C15   C     C_R   0.497216 0.050080 0.461938 -0.112337
C16   C     C_R   0.508598 0.559544 0.308920 0.876231
C17   C     C_R   0.422419 0.028330 0.373384 0.142580
C18   C     C_R   0.413483 0.930599 0.335663 0.015352
C19   C     C_R   0.437702 0.842238 0.401846 -0.089127
C20   C     C_R   0.504833 0.152907 0.495517 0.082412
C21   C     C_R   0.361576 0.197924 0.367380 -0.096395
C22   C     C_R   0.282401 0.497742 0.502294 0.900994
C23   C     C_R   0.418000 0.295691 0.835787 -0.031180
C24   C     C_1   0.838835 0.502412 0.502896 -0.183060
C25   C     C_1   0.940899 0.500372 0.503857 0.001864
C26   C     C_1   0.059007 0.496669 0.503994 0.002187
C27   C     C_1   0.161067 0.495151 0.503398 -0.160331
C28   C     C_R   0.528718 0.730065 0.052027 0.110575
C29   C     C_1   0.572244 0.187648 0.585619 0.245360
C30   C     C_1   0.364530 0.745155 0.370984 0.290854
C31   C     C_1   0.381561 0.208530 0.772884 0.253601
C32   C     C_R   0.434848 0.269566 0.941201 0.106375
C33   C     C_R   0.457313 0.352052 0.004050 -0.213061
C34   C     C_R   0.445698 0.457927 0.965658 0.047921
C35   C     C_R   0.428256 0.484509 0.859918 0.063187
C36   C     C_R   0.459982 0.540273 0.029832 0.049770
C37   C     C_R   0.483448 0.649400 0.987980 0.107876
H1    H     H_    0.583857 0.760782 0.206842 0.166808
H2    H     H_    0.777939 0.719278 0.675110 0.175467
H3    H     H_    0.677516 0.714605 0.765892 0.165089
H4    H     H_    0.821300 0.869720 0.755577 0.173944
H5    H     H_    0.761802 0.975162 0.770490 0.196646
H6    H     H_    0.514627 0.886316 0.041532 0.187197
H7    H     H_    0.653974 0.866935 0.031240 0.185371
H8    H     H_    0.390390 0.364560 0.206474 0.197759
H9    H     H_    0.297672 0.450665 0.216661 0.197625
H10   H     H_    0.507476 0.137297 0.957454 0.185249
H11   H     H_    0.443716 0.153586 0.063163 0.187340
H12   H     H_    0.706072 0.068343 0.584825 0.171025
H13   H     H_    0.259065 0.626909 0.756193 0.175223
H14   H     H_    0.381949 0.680143 0.691022 0.215989
H15   H     H_    0.448297 0.756123 0.854206 0.174986
H16   H     H_    0.485713 0.332653 0.082508 0.144195
H17   H     H_    0.307040 0.254629 0.336350 0.136528
H18   H     H_    0.431856 0.883635 0.197192 0.176777
H19   H     H_    0.288081 0.871280 0.227926 0.210204
H20   H     H_    0.283065 0.138119 0.185531 0.189932
H21   H     H_    0.181179 0.078395 0.272370 0.186511
N1    N     N_R   0.440320 0.222190 0.444690 -0.126810
N2    N     N_3   0.352733 0.426478 0.168191 -0.458145
N3    N     N_1   0.351070 0.138300 0.723381 -0.206697
N4    N     N_3   0.433399 0.159681 0.983422 -0.449776
N5    N     N_3   0.338061 0.610226 0.733877 -0.424320
N6    N     N_R   0.559060 0.776980 0.554780 -0.141516
N7    N     N_3   0.373266 0.919878 0.230735 -0.433377
N8    N     N_3   0.264756 0.077200 0.246591 -0.439439
N9    N     N_1   0.626680 0.215760 0.657904 -0.222614
N10   N     N_3   0.687843 0.711585 0.688288 -0.386112
N11   N     N_3   0.792951 0.936420 0.715872 -0.452891
N12   N     N_1   0.301015 0.673780 0.337159 -0.248587
N13   N     N_3   0.564568 0.840349 0.009640 -0.476868
O1    O     O_R   0.471500 0.366730 0.627160 -0.608826
O2    O     O_R   0.509620 0.544830 0.662520 -0.582991
O3    O     O_R   0.646490 0.410960 0.482310 -0.604351
O4    O     O_R   0.684610 0.589050 0.517670 -0.597373
O5    O     O_R   0.490380 0.455170 0.337480 -0.628170
O6    O     O_R   0.528500 0.633270 0.372840 -0.617222
O7    O     O_R   0.315390 0.410950 0.482330 -0.620848
O8    O     O_R   0.353510 0.589040 0.517690 -0.615887
Zn1   Zn    Zn3+2 0.474550 0.381080 0.476390 0.952652
Zn2   Zn    Zn3+2 0.525450 0.618920 0.523610 0.952323

loop_
_geom_bond_atom_site_label_1
_geom_bond_atom_site_label_2
_ccdc_geom_bond_type
H8    N2    S    
C8    N8    S    
C9    N6    A    
H2    N10   S    
C31   N3    T    
H20   N8    S    
H10   N4    S    
C18   N7    S    
C26   C27   T    
C36   C37   A    
C22   O8    A    
C21   N1    A    
C6    C12   A    
C21   H17   S    
C4    C24   S    
O7    Zn1   S    
H19   N7    S    
C5    C36   A    
C18   C19   A    
H7    N13   S    
C34   C35   A    
C4    O4    A    
C30   N12   T    
C29   N9    T    
H21   N8    S    
C6    C28   A    
C12   C16   S    
C6    H1    S    
O6    Zn2   S    
C9    C10   A    
C4    O3    A    
C1    C7    S    
C13   C14   A    
H13   N5    S    
O2    Zn2   S    
H18   N7    S    
C33   C34   A    
C20   C29   S    
C33   H16   S    
C15   C20   A    
C1    O1    A    
H14   N5    S    
C24   C25   T    
C22   O7    A    
C5    C12   A    
O8    Zn2   S    
O4    Zn2   S    
C25   C26   S    
H5    N11   S    
C23   C31   S    
C11   H12   S    
H11   N4    S    
C3    C35   A    
C14   N6    A    
C17   C18   A    
C20   N1    A    
C2    H15   S    
C22   C27   S    
C13   C15   A    
C28   N13   S    
H4    N11   S    
C15   C17   A    
H6    N13   S    
C5    N2    S    
H9    N2    S    
C16   O5    A    
C7    C35   A    
C14   C19   A    
O5    Zn1   S    
C8    C21   A    
N1    Zn1   S    
C3    N5    S    
C8    C17   A    
C1    O2    A    
C23   C32   A    
C2    C3    A    
C9    N10   S    
C32   N4    S    
O1    Zn1   S    
C32   C33   A    
C11   C13   A    
C2    C37   A    
C28   C37   A    
C7    C23   A    
C34   C36   A    
N6    Zn2   S    
C10   C11   A    
C10   N11   S    
H3    N10   S    
C16   O6    A    
O3    Zn1   S    
C19   C30   S    
