data_mof_unit_4926.cif
_audit_creation_date              2012-12-11T14:25:50-0500
_audit_creation_method            fapswitch 2.2
_symmetry_space_group_name_H-M    P1
_symmetry_Int_Tables_number       1
_space_group_crystal_system       triclinic
_cell_length_a                    6.925347
_cell_length_b                    14.759237
_cell_length_c                    16.225152
_cell_angle_alpha                 90.532825
_cell_angle_beta                  90.126494
_cell_angle_gamma                 89.719341
_cell_volume                      1658.32334443

loop_
_atom_site_label
_atom_site_type_symbol
_atom_type_description
_atom_site_fract_x
_atom_site_fract_y
_atom_site_fract_z
_atom_type_partial_charge
O1    O     O_R   0.494490 0.416160 0.413410 -0.547131
O2    O     O_R   0.823830 0.407240 0.585990 -0.521711
O3    O     O_R   0.994160 0.583840 0.586590 -0.528034
C1    C     C_R   0.655106 0.383685 0.612534 0.660412
O4    O     O_R   0.824200 0.405280 0.414020 -0.544452
O5    O     O_R   0.994530 0.581860 0.413390 -0.502971
C2    C     C_R   0.654691 0.381863 0.386982 0.737055
O6    O     O_R   0.494110 0.418140 0.586610 -0.549332
O7    O     O_3   0.660810 0.557940 0.500000 -0.351298
V1    V     V_3+5 0.935650 0.489250 0.500000 1.516601
O8    O     O_R   0.324250 0.592760 0.414010 -0.548219
C3    C     C_R   0.154461 0.614507 0.385557 0.766638
O9    O     O_R   0.323880 0.594720 0.585980 -0.542994
C4    C     C_R   0.154070 0.615244 0.615914 0.759827
V2    V     V_3+5 0.435660 0.510750 0.500000 1.474596
O10   O     O_3   0.160630 0.442060 0.500000 -0.381530
C5    C     C_3   0.928148 0.692437 0.723167 0.650714
C6    C     C_3   0.921304 0.769887 0.788465 -0.349489
H1    H     H_    0.849892 0.745990 0.845107 0.163713
H2    H     H_    0.822564 0.824825 0.767722 0.159803
H3    H     H_    0.109136 0.794931 0.598696 0.143410
C7    C     C_3   0.198875 0.779051 0.653086 -0.467373
C8    C     C_3   0.286385 0.660210 0.756719 0.087000
C9    C     C_3   0.139668 0.684388 0.686367 -0.132602
H4    H     H_    0.432918 0.667212 0.728980 0.160788
C10   C     C_3   0.125587 0.810746 0.806377 -0.135972
C11   C     C_3   0.195859 0.856336 0.721975 0.524720
C12   C     C_3   0.273933 0.732575 0.828282 0.121338
H5    H     H_    0.418039 0.765553 0.828491 0.109810
H6    H     H_    0.346775 0.771790 0.627342 0.177553
C13   C     C_2   0.978560 0.707665 0.279818 0.390002
C14   C     C_2   0.144518 0.683179 0.318967 -0.318999
H7    H     H_    0.280073 0.714856 0.303253 0.086001
C15   C     C_2   0.972613 0.778591 0.213772 -0.247309
C16   C     C_2   0.127332 0.811302 0.173928 -0.358448
H8    H     H_    0.830900 0.803654 0.196014 0.139677
H9    H     H_    0.271533 0.787553 0.188481 0.132263
C17   C     C_2   0.777020 0.213330 0.785641 -0.193666
C18   C     C_2   0.613403 0.183887 0.820752 -0.288072
H10   H     H_    0.914074 0.182885 0.803144 0.131193
H11   H     H_    0.477261 0.217881 0.808357 0.172618
C19   C     C_2   0.782872 0.292452 0.728520 0.323000
C20   C     C_2   0.643086 0.306830 0.671141 0.151970
C21   C     C_2   0.768486 0.193491 0.225730 0.277151
C22   C     C_2   0.619397 0.186925 0.170597 0.145584
C23   C     C_2   0.787512 0.271581 0.284746 -0.155424
C24   C     C_2   0.636587 0.308374 0.325097 -0.290499
H12   H     H_    0.932324 0.294529 0.299703 0.129218
H13   H     H_    0.492597 0.281763 0.314979 0.172264
O11   O     O_R   0.770850 0.076180 0.907410 -0.539761
O12   O     O_R   0.440600 0.088970 0.079950 -0.550446
O13   O     O_R   0.270430 0.912340 0.080550 -0.537808
C25   C     C_R   0.609659 0.111976 0.107887 0.672968
O14   O     O_R   0.441120 0.087010 0.907980 -0.551272
O15   O     O_R   0.270950 0.910370 0.907350 -0.547023
C26   C     C_R   0.609456 0.110164 0.881318 0.732239
O16   O     O_R   0.770320 0.078150 0.080620 -0.515665
O17   O     O_3   0.604200 0.936340 0.994000 -0.373209
V3    V     V_3+5 0.329300 0.004970 0.993950 1.413673
O18   O     O_R   0.941240 0.899420 0.907920 -0.550092
C27   C     C_R   0.110857 0.879493 0.877462 0.714277
O19   O     O_R   0.940720 0.901380 0.079890 -0.539683
C28   C     C_R   0.110490 0.879714 0.108076 0.794533
V4    V     V_3+5 0.829310 0.983370 0.993880 1.421828
O20   O     O_3   0.104280 0.052120 0.993920 -0.368584
O21   O     O_3   0.788762 0.708934 0.661100 -0.651195
H14   H     H_    0.807550 0.770429 0.638804 0.272664
N1    N     N_2   0.393003 0.892733 0.730714 -0.540231
H15   H     H_    0.425659 0.923280 0.785868 0.259083
C29   C     C_3   0.476577 0.944588 0.664368 -0.548305
H16   H     H_    0.631590 0.955844 0.677875 0.207497
H17   H     H_    0.406242 0.012201 0.660581 0.224040
H18   H     H_    0.466613 0.908486 0.604360 0.192963
O22   O     O_3   0.807338 0.666972 0.302648 -0.630196
H19   H     H_    0.700844 0.690673 0.267964 0.272210
O23   O     O_3   0.938225 0.350970 0.732634 -0.652545
H20   H     H_    0.024555 0.331500 0.778051 0.285923
O24   O     O_3   0.876687 0.611939 0.763235 -0.663067
H21   H     H_    0.851149 0.564674 0.720942 0.315548
O25   O     O_3   0.493013 0.245589 0.663590 -0.668766
H22   H     H_    0.412660 0.261656 0.615235 0.290373
N2    N     N_2   0.919453 0.127293 0.226025 -0.519975
H23   H     H_    0.052686 0.153207 0.241886 0.255656
C30   C     C_3   0.875000 0.046517 0.272004 -0.553071
H24   H     H_    0.996042 0.997278 0.266120 0.196296
H25   H     H_    0.742147 0.013891 0.247637 0.185472
H26   H     H_    0.854725 0.063658 0.338290 0.185788
O26   O     O_3   0.480810 0.254872 0.169299 -0.664827
H27   H     H_    0.391913 0.244417 0.122295 0.289835
N3    N     N_2   0.061873 0.931185 0.702914 -0.519219
H28   H     H_    0.068202 0.984839 0.744060 0.245051
C31   C     C_3   0.019463 0.958836 0.619004 -0.573076
H29   H     H_    0.962245 0.029311 0.619187 0.196858
H30   H     H_    0.906213 0.914851 0.591930 0.185022
H31   H     H_    0.148874 0.956379 0.579204 0.206312
N4    N     N_2   0.266165 0.566386 0.783541 -0.499080
H32   H     H_    0.162735 0.552222 0.826661 0.311969
C32   C     C_3   0.441766 0.513919 0.792729 -0.508842
H33   H     H_    0.405487 0.442904 0.808322 0.189561
H34   H     H_    0.533225 0.543040 0.842486 0.200387
H35   H     H_    0.523177 0.512968 0.734003 0.208048
N5    N     N_2   0.261903 0.694776 0.911452 -0.511328
H36   H     H_    0.375467 0.653030 0.927463 0.262387
C33   C     C_3   0.082101 0.675248 0.953085 -0.513845
H37   H     H_    0.113737 0.640208 0.011915 0.183845
H38   H     H_    0.988655 0.630264 0.915766 0.214957
H39   H     H_    0.004998 0.738597 0.969651 0.194457

loop_
_geom_bond_atom_site_label_1
_geom_bond_atom_site_label_2
_ccdc_geom_bond_type
O15   V3    S    
O11   V4    S    
C6    C10   S    
C30   H26   S    
C1    O6    A    
C33   H38   S    
C24   H13   S    
C10   C11   S    
C12   H5    S    
C16   H9    S    
C10   C27   S    
C30   H25   S    
C17   C19   S    
C21   N2    S    
O5    C3    A    
C17   C18   D    
V2    O10   S    
C8    N4    S    
C11   N3    S    
C15   C16   D    
C4    C9    S    
C5    O24   S    
O19   V4    S    
C11   N1    S    
O8    V2    S    
C13   C14   D    
N1    H15   S    
N4    C32   S    
C8    C9    S    
C29   H16   S    
O1    V2    S    
O7    V1    S    
C15   H8    S    
O21   H14   S    
C22   C25   S    
O9    C4    A    
C3    C14   S    
C33   H37   S    
C21   C23   S    
C23   H12   S    
O14   V3    S    
O17   V4    S    
O14   C26   A    
C5    C9    S    
O22   H19   S    
C22   O26   S    
O23   H20   S    
C18   H11   S    
O4    C2    A    
C25   O16   A    
O24   H21   S    
C6    H1    S    
C13   O22   S    
O17   V3    S    
C31   H31   S    
O11   C26   A    
O18   C27   A    
O12   C25   A    
C2    C24   S    
O2    C1    A    
O19   C28   A    
O13   V3    S    
N3    C31   S    
C18   C26   S    
N4    H32   S    
C29   H18   S    
C31   H30   S    
C5    C6    S    
C5    O21   S    
C13   C15   S    
C8    C12   S    
C30   H24   S    
N5    C33   S    
O3    C4    A    
C32   H33   S    
O6    V2    S    
N2    C30   S    
C7    C11   S    
O9    V2    S    
C7    C9    S    
O12   V3    S    
C19   C20   D    
O2    V1    S    
C21   C22   D    
O16   V4    S    
C23   C24   D    
C7    H6    S    
O1    C2    A    
C10   C12   S    
O25   H22   S    
O13   C28   A    
O5    V1    S    
C16   C28   S    
O8    C3    A    
C1    C20   S    
C32   H35   S    
C19   O23   S    
O18   V4    S    
C14   H7    S    
C20   O25   S    
O4    V1    S    
O3    V1    S    
V1    O10   S    
V4    O20   S    
C17   H10   S    
N3    H28   S    
O15   C27   A    
C31   H29   S    
C6    H2    S    
C8    H4    S    
O7    V2    S    
N5    H36   S    
C32   H34   S    
C12   N5    S    
O26   H27   S    
N1    C29   S    
N2    H23   S    
C29   H17   S    
H3    C7    S    
C33   H39   S    
V3    O20   S    
