data_mof_unit_4239.cif
_audit_creation_date              2012-12-11T17:07:30-0500
_audit_creation_method            fapswitch 2.2
_symmetry_space_group_name_H-M    P1
_symmetry_Int_Tables_number       1
_space_group_crystal_system       triclinic
_cell_length_a                    17.359873
_cell_length_b                    17.129334
_cell_length_c                    17.42468
_cell_angle_alpha                 90.935624
_cell_angle_beta                  89.748244
_cell_angle_gamma                 90.201592
_cell_volume                      5180.684592

loop_
_atom_site_label
_atom_site_type_symbol
_atom_type_description
_atom_site_fract_x
_atom_site_fract_y
_atom_site_fract_z
_atom_type_partial_charge
C1    C     C_R   0.424259 0.328837 0.856686 -0.117399
C2    C     C_R   0.696639 0.394225 0.897356 -0.079466
C3    C     C_R   0.582736 0.673797 0.860484 -0.052526
C4    C     C_R   0.315691 0.592081 0.871511 -0.074616
C5    C     C_R   0.425109 0.669042 0.144450 -0.146958
C6    C     C_R   0.696769 0.605351 0.102339 -0.127437
C7    C     C_R   0.602988 0.302515 0.101872 -0.114659
C8    C     C_R   0.303601 0.393969 0.101930 -0.102584
C9    C     C_R   0.924260 0.828842 0.356683 -0.117788
C10   C     C_R   0.196638 0.894226 0.397352 -0.079526
C11   C     C_R   0.082761 0.173819 0.360502 -0.052689
C12   C     C_R   0.815746 0.092017 0.371425 -0.073846
C13   C     C_R   0.925109 0.169043 0.644449 -0.146910
C14   C     C_R   0.196767 0.105345 0.602348 -0.127330
C15   C     C_R   0.102967 0.802525 0.601894 -0.114595
C16   C     C_R   0.803605 0.893972 0.601945 -0.102581
C17   C     C_3   0.862409 0.318232 0.714903 -0.458526
C18   C     C_3   0.718445 0.867835 0.754766 -0.446066
C19   C     C_3   0.120248 0.695083 0.735332 -0.490127
C20   C     C_3   0.316790 0.131529 0.725989 -0.469692
C21   C     C_3   0.867491 0.679081 0.278845 -0.495685
C22   C     C_3   0.664660 0.154770 0.297079 -0.496710
C23   C     C_3   0.173528 0.319910 0.311280 -0.494894
C24   C     C_3   0.311123 0.866301 0.266943 -0.468516
C25   C     C_3   0.362382 0.818231 0.214870 -0.458650
C26   C     C_3   0.218453 0.367845 0.254740 -0.446015
C27   C     C_3   0.620381 0.194493 0.234831 -0.490401
C28   C     C_3   0.816759 0.631538 0.226001 -0.469710
C29   C     C_3   0.367538 0.179075 0.778817 -0.495739
C30   C     C_3   0.164524 0.655435 0.797635 -0.496092
C31   C     C_3   0.673498 0.819897 0.811290 -0.494394
C32   C     C_3   0.811154 0.366301 0.766980 -0.468722
C33   C     C_R   0.405512 0.685368 0.871931 -0.125037
C34   C     C_R   0.327312 0.413997 0.858074 -0.051294
C35   C     C_R   0.606398 0.302160 0.895405 -0.131581
C36   C     C_R   0.674137 0.581605 0.858882 -0.101361
C37   C     C_R   0.395124 0.302934 0.105117 -0.113605
C38   C     C_R   0.330210 0.580327 0.144496 -0.076768
C39   C     C_R   0.607167 0.697694 0.104366 -0.120585
C40   C     C_R   0.695375 0.393467 0.105346 -0.116267
C41   C     C_R   0.905555 0.185305 0.371837 -0.125044
C42   C     C_R   0.827280 0.913958 0.358099 -0.050465
C43   C     C_R   0.106396 0.802162 0.395401 -0.131574
C44   C     C_R   0.174146 0.081613 0.358889 -0.101358
C45   C     C_R   0.895130 0.802938 0.605129 -0.113632
C46   C     C_R   0.830210 0.080329 0.644497 -0.076745
C47   C     C_R   0.107167 0.197692 0.604363 -0.121103
C48   C     C_R   0.195365 0.893476 0.605366 -0.116462
C49   C     C_R   0.364070 0.356680 0.814211 0.126251
C50   C     C_R   0.683352 0.316723 0.879586 0.105329
C51   C     C_R   0.642925 0.642742 0.818450 0.136488
C52   C     C_R   0.341020 0.657528 0.834209 0.104382
C53   C     C_R   0.365982 0.638918 0.188047 0.134731
C54   C     C_R   0.684238 0.682953 0.119738 0.088529
C55   C     C_R   0.678624 0.315780 0.119639 0.124623
C56   C     C_R   0.318313 0.317555 0.119548 0.085777
C57   C     C_R   0.864060 0.856673 0.314213 0.126604
C58   C     C_R   0.183348 0.816726 0.379577 0.105384
C59   C     C_R   0.142946 0.142762 0.318466 0.136488
C60   C     C_R   0.841104 0.157416 0.334053 0.104487
C61   C     C_R   0.865982 0.138920 0.688048 0.134695
C62   C     C_R   0.184234 0.182944 0.619749 0.088382
C63   C     C_R   0.178588 0.815803 0.619677 0.124876
C64   C     C_R   0.818321 0.817559 0.619570 0.085765
C65   C     C_R   0.807400 0.296962 0.818066 0.133373
C66   C     C_R   0.665786 0.759620 0.748422 0.105727
C67   C     C_R   0.233642 0.661129 0.746378 0.166390
C68   C     C_R   0.356687 0.245724 0.725290 0.152197
C69   C     C_R   0.810362 0.702829 0.177560 0.158746
C70   C     C_R   0.694071 0.196107 0.189296 0.165933
C71   C     C_R   0.206775 0.302226 0.197927 0.160045
C72   C     C_R   0.354277 0.753503 0.271493 0.141386
C73   C     C_R   0.307384 0.796971 0.318039 0.133055
C74   C     C_R   0.165791 0.259631 0.248418 0.106132
C75   C     C_R   0.733856 0.160790 0.245961 0.166897
C76   C     C_R   0.856678 0.745719 0.225301 0.152063
C77   C     C_R   0.310360 0.202829 0.677564 0.158714
C78   C     C_R   0.193874 0.696372 0.689673 0.165481
C79   C     C_R   0.706782 0.802221 0.697946 0.160090
C80   C     C_R   0.854290 0.253495 0.771514 0.141307
C81   C     C_R   0.744305 0.263132 0.854366 0.001626
C82   C     C_R   0.672772 0.679025 0.750425 0.015145
C83   C     C_R   0.308716 0.684064 0.762999 -0.041163
C84   C     C_R   0.340982 0.324201 0.739945 -0.016820
C85   C     C_R   0.746011 0.736501 0.143825 -0.043813
C86   C     C_R   0.728562 0.255633 0.147578 0.025961
C87   C     C_R   0.260320 0.266205 0.150174 -0.040531
C88   C     C_R   0.341140 0.673714 0.260966 -0.025674
C89   C     C_R   0.244297 0.763139 0.354351 0.001461
C90   C     C_R   0.172784 0.179037 0.250432 0.015251
C91   C     C_R   0.808853 0.183886 0.262762 -0.040662
C92   C     C_R   0.841000 0.824209 0.239928 -0.017155
C93   C     C_R   0.245992 0.236491 0.643852 -0.043792
C94   C     C_R   0.228452 0.755696 0.647752 0.025724
C95   C     C_R   0.760332 0.766205 0.650196 -0.040517
C96   C     C_R   0.841146 0.173709 0.760973 -0.025678
C97   C     C_R   0.242562 0.680365 0.361186 -0.155231
C98   C     C_R   0.211104 0.138664 0.189515 -0.184097
C99   C     C_R   0.850752 0.227306 0.207507 -0.157271
C100  C     C_R   0.794554 0.864991 0.186931 -0.213486
C101  C     C_R   0.242817 0.319499 0.640231 -0.174631
C102  C     C_R   0.309500 0.763025 0.647574 -0.190636
C103  C     C_R   0.759056 0.683786 0.640048 -0.170758
C104  C     C_R   0.795270 0.134244 0.816047 -0.205474
C105  C     C_R   0.742560 0.180356 0.861185 -0.155411
C106  C     C_R   0.711107 0.638659 0.689514 -0.184087
C107  C     C_R   0.350641 0.727308 0.707632 -0.156960
C108  C     C_R   0.294459 0.364980 0.687019 -0.213251
C109  C     C_R   0.742875 0.819513 0.140169 -0.174785
C110  C     C_R   0.809601 0.263066 0.147473 -0.190870
C111  C     C_R   0.259045 0.183785 0.140038 -0.170758
C112  C     C_R   0.295268 0.634251 0.316046 -0.205501
H1    H     H_    0.464888 0.284337 0.839837 0.109541
H2    H     H_    0.752149 0.422330 0.903754 0.090426
H3    H     H_    0.550459 0.725047 0.847412 0.099487
H4    H     H_    0.262412 0.561299 0.863343 0.086311
H5    H     H_    0.465303 0.714174 0.161205 0.116427
H6    H     H_    0.751841 0.576745 0.095566 0.105141
H7    H     H_    0.573918 0.246803 0.096156 0.112546
H8    H     H_    0.247711 0.421344 0.097837 0.097580
H9    H     H_    0.964893 0.784354 0.339819 0.109606
H10   H     H_    0.252149 0.922329 0.403749 0.090395
H11   H     H_    0.050506 0.225088 0.347448 0.099496
H12   H     H_    0.762489 0.061216 0.363247 0.086203
H13   H     H_    0.965304 0.214174 0.661205 0.116528
H14   H     H_    0.251839 0.076738 0.595579 0.105105
H15   H     H_    0.073886 0.746811 0.596234 0.112540
H16   H     H_    0.747713 0.921344 0.597856 0.097557
H17   H     H_    0.922240 0.341396 0.711901 0.209405
H18   H     H_    0.779859 0.875817 0.771001 0.221516
H19   H     H_    0.099794 0.754168 0.753085 0.204106
H20   H     H_    0.261305 0.114337 0.753193 0.211995
H21   H     H_    0.928002 0.658065 0.279608 0.207146
H22   H     H_    0.645727 0.093371 0.305196 0.204972
H23   H     H_    0.117751 0.347131 0.327850 0.213261
H24   H     H_    0.254546 0.880138 0.240963 0.209083
H25   H     H_    0.422209 0.841403 0.211861 0.209265
H26   H     H_    0.279871 0.375833 0.270956 0.221550
H27   H     H_    0.599752 0.253472 0.252734 0.204103
H28   H     H_    0.761263 0.614358 0.253186 0.211984
H29   H     H_    0.428053 0.158062 0.779552 0.207144
H30   H     H_    0.145446 0.594118 0.805973 0.204908
H31   H     H_    0.617712 0.847114 0.827836 0.213296
H32   H     H_    0.754581 0.380151 0.740999 0.209098
H33   H     H_    0.835304 0.304617 0.658498 0.201206
H34   H     H_    0.688180 0.921976 0.737883 0.204680
H35   H     H_    0.075828 0.656657 0.708469 0.214960
H36   H     H_    0.348338 0.083361 0.696230 0.203603
H37   H     H_    0.840828 0.689550 0.336167 0.216303
H38   H     H_    0.669858 0.190645 0.350613 0.200181
H39   H     H_    0.209134 0.299486 0.359847 0.234052
H40   H     H_    0.341636 0.916686 0.294159 0.198074
H41   H     H_    0.335276 0.804602 0.158469 0.201201
H42   H     H_    0.188179 0.421983 0.237862 0.204675
H43   H     H_    0.576104 0.156029 0.207780 0.215075
H44   H     H_    0.848314 0.583362 0.196265 0.203652
H45   H     H_    0.340899 0.189524 0.836154 0.216286
H46   H     H_    0.169902 0.691455 0.851053 0.200198
H47   H     H_    0.709084 0.799475 0.859873 0.234014
H48   H     H_    0.841673 0.416676 0.794206 0.198106
H49   H     H_    0.431895 0.741905 0.865763 0.111031
H50   H     H_    0.274002 0.441721 0.843729 0.080865
H51   H     H_    0.578071 0.246047 0.896648 0.102100
H52   H     H_    0.723530 0.546363 0.843497 0.092072
H53   H     H_    0.424662 0.247588 0.106575 0.110183
H54   H     H_    0.281400 0.544925 0.160918 0.098536
H55   H     H_    0.579133 0.753731 0.103480 0.108764
H56   H     H_    0.750951 0.422028 0.106622 0.103675
H57   H     H_    0.931931 0.241838 0.365643 0.111042
H58   H     H_    0.773934 0.941633 0.343783 0.080913
H59   H     H_    0.078070 0.746047 0.396643 0.102118
H60   H     H_    0.223536 0.046367 0.343502 0.092079
H61   H     H_    0.924668 0.747592 0.606588 0.110195
H62   H     H_    0.781401 0.044926 0.660919 0.098554
H63   H     H_    0.079135 0.253727 0.603464 0.109116
H64   H     H_    0.250943 0.922032 0.606668 0.103663
N1    N     N_R   0.425360 0.368540 0.922560 -0.046683
N2    N     N_R   0.631460 0.425360 0.922560 -0.039515
N3    N     N_R   0.574640 0.631460 0.922560 -0.050455
N4    N     N_R   0.368540 0.574640 0.922560 -0.046823
N5    N     N_R   0.425360 0.631460 0.077440 -0.050736
N6    N     N_R   0.631460 0.574640 0.077440 -0.043982
N7    N     N_R   0.574640 0.368540 0.077440 -0.047285
N8    N     N_R   0.368540 0.425360 0.077440 -0.041382
N9    N     N_R   0.925360 0.868540 0.422560 -0.046685
N10   N     N_R   0.131460 0.925360 0.422560 -0.039496
N11   N     N_R   0.074640 0.131460 0.422560 -0.050487
N12   N     N_R   0.868540 0.074640 0.422560 -0.046920
N13   N     N_R   0.925360 0.131460 0.577440 -0.050731
N14   N     N_R   0.131460 0.074640 0.577440 -0.043957
N15   N     N_R   0.074640 0.868540 0.577440 -0.047306
N16   N     N_R   0.868540 0.925360 0.577440 -0.041388
N17   N     N_R   0.425340 0.631500 0.922560 -0.042806
N18   N     N_R   0.368500 0.425340 0.922560 -0.051392
N19   N     N_R   0.574660 0.368500 0.922560 -0.039680
N20   N     N_R   0.631500 0.574660 0.922560 -0.049895
N21   N     N_R   0.425340 0.368500 0.077440 -0.042819
N22   N     N_R   0.368500 0.574660 0.077440 -0.056551
N23   N     N_R   0.574660 0.631500 0.077440 -0.044229
N24   N     N_R   0.631500 0.425340 0.077440 -0.046741
N25   N     N_R   0.925340 0.131500 0.422560 -0.042843
N26   N     N_R   0.868500 0.925340 0.422560 -0.051496
N27   N     N_R   0.074660 0.868500 0.422560 -0.039666
N28   N     N_R   0.131500 0.074660 0.422560 -0.049899
N29   N     N_R   0.925340 0.868500 0.577440 -0.042814
N30   N     N_R   0.868500 0.074660 0.577440 -0.056572
N31   N     N_R   0.074660 0.131500 0.577440 -0.044214
N32   N     N_R   0.131500 0.925340 0.577440 -0.046734
Ni1   Ni    Ni4+2 0.500000 0.369720 0.000000 0.240472
Ni2   Ni    Ni4+2 0.630280 0.500000 0.000000 0.232881
Ni3   Ni    Ni4+2 0.500000 0.630280 0.000000 0.237707
Ni4   Ni    Ni4+2 0.369720 0.500000 0.000000 0.229077
Ni5   Ni    Ni4+2 0.000000 0.869720 0.500000 0.240501
Ni6   Ni    Ni4+2 0.130280 1.000000 0.500000 0.232871
Ni7   Ni    Ni4+2 0.000000 0.130280 0.500000 0.237692
Ni8   Ni    Ni4+2 0.869720 1.000000 0.500000 0.229034
C113  C     C_2   0.185602 0.643728 0.412634 1.105884
O1    O     O_2   0.139069 0.596514 0.386791 -0.629672
O2    O     O_R   0.184035 0.664743 0.490401 -0.782512
H65   H     H_    0.142669 0.635795 0.519861 0.323348
C114  C     C_2   0.196230 0.053314 0.176026 1.015092
O3    O     O_2   0.136804 0.023863 0.200286 -0.608791
O4    O     O_R   0.247511 0.006825 0.133695 -0.771648
H66   H     H_    0.228279 0.951338 0.125820 0.321465
C115  C     C_2   0.935066 0.236597 0.212782 1.045323
O5    O     O_2   0.977044 0.180264 0.202185 -0.606811
O6    O     O_R   0.966019 0.309957 0.230904 -0.777140
H67   H     H_    0.024104 0.310843 0.227863 0.319469
C116  C     C_2   0.805705 0.951424 0.177592 1.024248
O7    O     O_2   0.859241 0.984717 0.209923 -0.617201
O8    O     O_R   0.759307 0.994323 0.128440 -0.761435
H68   H     H_    0.775805 0.050981 0.124835 0.337590
C117  C     C_2   0.185509 0.356604 0.590246 1.099133
O9    O     O_2   0.137477 0.401060 0.617885 -0.614176
O10   O     O_R   0.184280 0.337732 0.511954 -0.818297
H69   H     H_    0.141635 0.365575 0.483899 0.329742
C118  C     C_2   0.348757 0.805653 0.584555 1.020876
O11   O     O_2   0.405561 0.846137 0.596983 -0.623572
O12   O     O_R   0.319201 0.800239 0.510312 -0.787242
H70   H     H_    0.350288 0.831999 0.472521 0.308623
C119  C     C_2   0.807791 0.647593 0.579551 1.078664
O13   O     O_2   0.859201 0.602611 0.596809 -0.605880
O14   O     O_R   0.797902 0.668931 0.503197 -0.805281
H71   H     H_    0.835722 0.641697 0.467382 0.317647
C120  C     C_2   0.808331 0.048979 0.829944 1.018176
O15   O     O_2   0.859142 0.014072 0.794881 -0.656284
O16   O     O_R   0.767380 0.009532 0.886788 -0.758786
H72   H     H_    0.784721 0.953530 0.892865 0.339925
C121  C     C_2   0.685579 0.143709 0.912602 1.105924
O17   O     O_2   0.639061 0.096496 0.886733 -0.629677
O18   O     O_R   0.683982 0.164708 0.990373 -0.782730
H73   H     H_    0.642608 0.135749 0.019811 0.323314
C122  C     C_2   0.696243 0.553308 0.676021 1.015088
O19   O     O_2   0.636807 0.523855 0.700255 -0.608635
O20   O     O_R   0.747549 0.506821 0.633719 -0.771617
H74   H     H_    0.728324 0.451332 0.625839 0.321491
C123  C     C_2   0.434972 0.736491 0.712829 1.045354
O21   O     O_2   0.476871 0.680099 0.702223 -0.606522
O22   O     O_R   0.466032 0.809823 0.730875 -0.777230
H75   H     H_    0.524115 0.810638 0.727763 0.319486
C124  C     C_2   0.305496 0.451438 0.677832 1.023599
O23   O     O_2   0.359573 0.484541 0.709444 -0.616209
O24   O     O_R   0.258258 0.494612 0.629716 -0.761632
H76   H     H_    0.274799 0.551246 0.626011 0.337302
C125  C     C_2   0.685485 0.856640 0.090282 1.099589
O25   O     O_2   0.637767 0.901429 0.117952 -0.614924
O26   O     O_R   0.683850 0.837477 0.012062 -0.818192
H77   H     H_    0.641199 0.865388 0.984079 0.329667
C126  C     C_2   0.848846 0.305807 0.084525 1.020809
O27   O     O_2   0.905599 0.346341 0.097027 -0.623514
O28   O     O_R   0.819335 0.300440 0.010261 -0.787454
H78   H     H_    0.850411 0.332269 0.972519 0.308618
C127  C     C_2   0.307780 0.147587 0.079542 1.078686
O29   O     O_2   0.359184 0.102599 0.096804 -0.605988
O30   O     O_R   0.297897 0.168925 0.003188 -0.805257
H79   H     H_    0.335716 0.141687 0.967375 0.317626
C128  C     C_2   0.308329 0.548985 0.329941 1.018193
O31   O     O_2   0.359154 0.514084 0.294893 -0.656240
O32   O     O_R   0.267358 0.509529 0.386764 -0.759020
H80   H     H_    0.284701 0.453528 0.392843 0.339918

loop_
_geom_bond_atom_site_label_1
_geom_bond_atom_site_label_2
_ccdc_geom_bond_type
C31   C66   S    
C22   H38   S    
C120  O16   S    
C67   C83   A    
N31   Ni7   S    
C57   C92   S    
N3    Ni3   S    
C52   C83   S    
N16   N29   A    
C25   H25   S    
O12   H70   S    
C28   H28   S    
C7    C55   A    
C36   C51   A    
C8    C56   A    
C47   C62   A    
C2    C50   A    
N12   Ni8   S    
C61   C96   S    
C69   C85   A    
O18   H73   S    
C36   H52   S    
C33   C52   A    
C66   C79   A    
C104  C120  S    
C21   C76   S    
C8    H8    S    
C121  O17   D    
C114  O3    D    
C20   C77   S    
C4    C52   A    
C68   C77   A    
C11   N11   A    
C49   C84   S    
C5    C53   A    
C100  C116  S    
C86   C110  A    
C4    N4    A    
N19   Ni1   S    
C9    N9    A    
N24   Ni2   S    
C122  O19   D    
C123  O22   S    
C117  O10   S    
C48   H64   S    
C24   C73   S    
N17   Ni3   S    
C39   C54   A    
C87   C111  A    
C44   C59   A    
O28   H78   S    
C12   N12   A    
C98   C114  S    
N28   Ni6   S    
N12   N25   A    
N6    Ni2   S    
C7    N7    A    
C13   N13   A    
N2    Ni2   S    
C69   C76   A    
C30   H46   S    
C123  O21   D    
C23   C26   S    
N1    Ni1   S    
C44   H60   S    
N4    Ni4   S    
C3    N3    A    
C112  C128  S    
N25   Ni7   S    
C23   H39   S    
C24   H40   S    
C43   C58   A    
C84   C108  A    
C37   C56   A    
C1    N1    A    
C46   N30   A    
O4    H66   S    
C44   N28   A    
C18   C79   S    
C34   C49   A    
C16   N16   A    
N27   Ni5   S    
C9    H9    S    
O10   H69   S    
C20   H36   S    
C101  C108  A    
C21   H37   S    
C80   C96   A    
N13   Ni7   S    
C125  O25   D    
N23   Ni3   S    
C30   C67   S    
C35   N19   A    
C20   C29   S    
N20   Ni2   S    
C8    N8    A    
C6    N6    A    
C111  C127  S    
N29   Ni5   S    
C100  C109  A    
C83   C107  A    
C65   C80   A    
C15   H15   S    
C126  O27   D    
C103  C119  S    
C27   H43   S    
C26   C71   S    
C28   C69   S    
C106  C122  S    
C67   C78   A    
C1    H1    S    
C22   C75   S    
C6    C54   A    
C11   C59   A    
N5    N22   A    
C42   C57   A    
C21   H21   S    
C104  C105  A    
C72   C88   A    
C95   C103  A    
N8    Ni4   S    
N11   Ni7   S    
N3    N20   A    
C19   H19   S    
C115  O6    S    
C81   C105  A    
C121  O18   S    
C32   H32   S    
N1    N18   A    
C3    C51   A    
C46   C61   A    
C17   H17   S    
C68   C84   A    
C7    H7    S    
C102  C107  A    
C14   N14   A    
N21   Ni1   S    
C24   C25   S    
C41   C60   A    
C109  C125  S    
N2    N19   A    
C93   C101  A    
O2    H65   S    
C124  O24   S    
C126  O28   S    
C43   H59   S    
C56   C87   S    
C37   H53   S    
C40   N24   A    
C26   H26   S    
C113  O1    D    
C99   C110  A    
C25   H41   S    
N11   N28   A    
C17   C80   S    
C19   H35   S    
C48   C63   A    
C89   C97   A    
C119  O14   S    
C59   C90   S    
C12   C60   A    
N9    N26   A    
C20   H20   S    
C19   C78   S    
C33   H49   S    
C36   N20   A    
C79   C95   A    
C116  O7    D    
C10   N10   A    
C45   H61   S    
O20   H74   S    
C66   C82   A    
C29   C68   S    
C125  O26   S    
N14   N31   A    
C65   C81   A    
O6    H67   S    
C5    N5    A    
N13   N30   A    
O16   H72   S    
C40   C55   A    
C29   H29   S    
C48   N32   A    
C35   C50   A    
C38   N22   A    
C127  O29   D    
C13   H13   S    
C108  C124  S    
C25   C72   S    
C90   C98   A    
C42   H58   S    
C16   H16   S    
C51   C82   S    
C99   C115  S    
C27   C70   S    
C53   C88   S    
C76   C92   A    
C71   C87   A    
O30   H79   S    
C22   H22   S    
C23   H23   S    
C97   C112  A    
C37   N21   A    
C22   C27   S    
C128  O32   S    
C43   N27   A    
C17   H33   S    
C128  O31   D    
C97   C113  S    
C26   H42   S    
C27   H27   S    
C23   C74   S    
C41   N25   A    
O22   H75   S    
C70   C86   A    
C70   C75   A    
N22   Ni4   S    
C92   C100  A    
C122  O20   S    
C117  O9    D    
C60   C91   S    
N30   Ni8   S    
C21   C28   S    
C38   H54   S    
C96   C104  A    
C39   N23   A    
C54   C85   S    
C102  C118  S    
C45   N29   A    
C98   C111  A    
C115  O5    D    
C4    H4    S    
C11   H11   S    
N6    N23   A    
C64   C95   S    
N32   Ni6   S    
C72   C73   A    
C34   H50   S    
C14   H14   S    
C24   H24   S    
C71   C74   A    
C29   H45   S    
O26   H77   S    
C18   C31   S    
C75   C91   A    
N7    Ni1   S    
C2    N2    A    
C15   N15   A    
C45   C64   A    
C85   C109  A    
N7    N24   A    
C30   H30   S    
C18   H18   S    
C47   N31   A    
C107  C123  S    
C91   C99   A    
C74   C90   A    
C55   C86   S    
C118  O12   S    
O32   H80   S    
C105  C121  S    
C73   C89   A    
C114  O4    S    
C3    H3    S    
N15   Ni5   S    
C101  C117  S    
C2    H2    S    
C34   N18   A    
N5    Ni3   S    
C124  O23   D    
C38   C53   A    
C41   H57   S    
C78   C94   A    
C119  O13   D    
O24   H76   S    
C118  O11   D    
N10   Ni6   S    
C77   C93   A    
C127  O30   S    
N9    Ni5   S    
N10   N27   A    
C103  C106  A    
C9    C57   A    
N15   N32   A    
C82   C106  A    
C110  C126  S    
C31   H31   S    
C113  O2    S    
C58   C89   S    
C35   H51   S    
C40   H56   S    
N18   Ni4   S    
C42   N26   A    
C47   H63   S    
C33   N17   A    
C88   C112  A    
C39   H55   S    
C46   H62   S    
C10   H10   S    
N14   Ni6   S    
C13   C61   A    
C94   C102  A    
C18   H34   S    
C116  O8    S    
N8    N21   A    
C63   C94   S    
C62   C93   S    
C5    H5    S    
O8    H68   S    
C28   H44   S    
C17   C32   S    
C15   C63   A    
C10   C58   A    
C16   C64   A    
N26   Ni8   S    
C120  O15   D    
C19   C30   S    
C1    C49   A    
C12   H12   S    
N16   Ni8   S    
C31   H47   S    
N4    N17   A    
O14   H71   S    
C50   C81   S    
C6    H6    S    
C32   C65   S    
C32   H48   S    
C14   C62   A    
