data_mof_unit_928.cif
_audit_creation_date              2012-12-11T15:48:44-0500
_audit_creation_method            fapswitch 2.2
_symmetry_space_group_name_H-M    P1
_symmetry_Int_Tables_number       1
_space_group_crystal_system       triclinic
_cell_length_a                    10.977224
_cell_length_b                    10.95588
_cell_length_c                    18.827425
_cell_angle_alpha                 90.573335
_cell_angle_beta                  90.151746
_cell_angle_gamma                 60.135444
_cell_volume                      1963.49207581

loop_
_atom_site_label
_atom_site_type_symbol
_atom_type_description
_atom_site_fract_x
_atom_site_fract_y
_atom_site_fract_z
_atom_type_partial_charge
C1    C     C_R   0.239495 0.645176 0.610317 0.540470
C2    C     C_3   0.734464 0.520676 0.796755 -0.244608
C3    C     C_3   0.697833 0.672958 0.813517 0.058691
C4    C     C_3   0.668875 0.646647 0.677760 0.050850
C5    C     C_3   0.778736 0.693046 0.688963 -0.251745
C6    C     C_3   0.715750 0.506011 0.717495 -0.212516
C7    C     C_R   0.683145 0.146454 0.821288 0.017725
C8    C     C_R   0.773751 0.179254 0.785170 -0.007135
C9    C     C_R   0.768294 0.189615 0.711208 0.015541
C10   C     C_R   0.583783 0.131658 0.707840 -0.172901
C11   C     C_R   0.582757 0.130534 0.780908 -0.158849
C12   C     C_R   0.652765 0.621141 0.601855 0.540968
C13   C     C_3   0.929188 0.103149 0.786433 -0.275045
C14   C     C_3   0.924825 0.110589 0.706135 -0.280984
C15   C     C_R   0.674049 0.164753 0.671757 0.015657
C16   C     C_R   0.187105 0.666120 0.836965 0.015116
C17   C     C_R   0.196194 0.554327 0.796782 0.019535
C18   C     C_R   0.202737 0.551636 0.724600 0.022556
C19   C     C_R   0.204757 0.768010 0.725591 -0.186091
C20   C     C_R   0.204715 0.767204 0.799827 -0.181647
C21   C     C_3   0.189948 0.421681 0.800293 -0.281067
C22   C     C_3   0.199699 0.417568 0.718571 -0.277778
C23   C     C_R   0.629816 0.226278 0.601845 0.543311
C24   C     C_R   0.204434 0.658421 0.685703 0.012895
C25   C     C_R   0.654290 0.658105 0.165363 0.014153
C26   C     C_R   0.753210 0.538366 0.202091 -0.005888
C27   C     C_R   0.744433 0.526145 0.273776 0.035169
C28   C     C_R   0.526838 0.746000 0.276731 -0.166141
C29   C     C_R   0.532705 0.755355 0.202304 -0.172697
C30   C     C_3   0.911158 0.461553 0.204032 -0.218198
C31   C     C_3   0.901071 0.441328 0.282869 0.008177
C32   C     C_R   0.640219 0.636370 0.313601 0.013722
C33   C     C_R   0.634738 0.186239 0.169655 0.021690
C34   C     C_R   0.223615 0.647670 0.401165 0.546376
C35   C     C_R   0.522883 0.193342 0.208606 0.016037
C36   C     C_R   0.521500 0.202979 0.281270 0.021222
C37   C     C_R   0.728050 0.225173 0.278242 -0.157623
C38   C     C_R   0.727944 0.219280 0.204098 -0.160309
C39   C     C_3   0.466709 0.093853 0.210989 -0.264757
C40   C     C_3   0.464256 0.106417 0.290993 -0.282742
C41   C     C_R   0.630393 0.206062 0.317577 0.021993
C42   C     C_R   0.123789 0.688250 0.186794 0.020048
C43   C     C_R   0.068601 0.807435 0.230946 0.045164
C44   C     C_R   0.083949 0.796571 0.303030 0.006817
C45   C     C_R   0.637261 0.616930 0.389686 0.553050
C46   C     C_R   0.205077 0.542738 0.289479 -0.120050
C47   C     C_R   0.183916 0.555032 0.216576 -0.168271
C48   C     C_3   0.091261 0.930937 0.228350 -0.263149
C49   C     C_3   0.102266 0.923219 0.308215 -0.277998
C50   C     C_R   0.160914 0.663944 0.332746 0.021579
C51   C     C_R   0.702569 0.098182 0.894893 0.541168
C52   C     C_R   0.721794 0.686713 0.889157 0.542668
C53   C     C_R   0.120640 0.704573 0.906698 0.540241
C54   C     C_R   0.672724 0.111094 0.102542 0.547334
C55   C     C_R   0.695688 0.688739 0.097072 0.544616
C56   C     C_R   0.613367 0.235669 0.392931 0.545384
C57   C     C_R   0.090983 0.711236 0.113050 0.545354
C58   C     C_3   0.543461 0.773436 0.791501 -0.242546
C59   C     C_3   0.527831 0.760061 0.711086 -0.233194
C60   C     C_3   0.794045 0.711295 0.769254 -0.218667
Cr1   Cr    Cr6+3 0.392960 0.397920 0.502240 0.991070
Cr2   Cr    Cr6+3 0.398340 0.708480 0.501250 0.997816
Cr3   Cr    Cr6+3 0.708670 0.393570 0.496460 0.990204
Cr4   Cr    Cr6+3 0.937650 0.938540 0.007610 1.005311
Cr5   Cr    Cr6+3 0.625330 0.937370 0.994520 0.999507
Cr6   Cr    Cr6+3 0.937940 0.625230 0.001190 1.001684
H1    H     H_    0.511500 0.884608 0.804440 0.130877
H2    H     H_    0.817586 0.421542 0.695975 0.142022
H3    H     H_    0.905284 0.644522 0.784569 0.134363
H4    H     H_    0.881289 0.613529 0.665949 0.120009
H5    H     H_    0.508061 0.113317 0.679680 0.122730
H6    H     H_    0.507898 0.106353 0.804882 0.134647
H7    H     H_    0.969436 0.996091 0.807273 0.172129
H8    H     H_    0.971593 0.166174 0.811863 0.126422
H9    H     H_    0.967868 0.175448 0.684632 0.128055
H10   H     H_    0.964086 0.006945 0.679244 0.143210
H11   H     H_    0.210045 0.853170 0.699849 0.135011
H12   H     H_    0.472289 0.746889 0.821035 0.118699
H13   H     H_    0.206203 0.853526 0.827583 0.132532
H14   H     H_    0.088470 0.437394 0.820893 0.146173
H15   H     H_    0.284374 0.335867 0.826246 0.138137
H16   H     H_    0.299442 0.330421 0.697272 0.160164
H17   H     H_    0.103593 0.430720 0.692067 0.118777
H18   H     H_    0.437848 0.827336 0.305390 0.125098
H19   H     H_    0.449089 0.844354 0.175151 0.117720
H20   H     H_    0.954470 0.531331 0.191779 0.184059
H21   H     H_    0.958216 0.361187 0.173208 0.102236
H22   H     H_    0.942493 0.328942 0.295924 0.122690
H23   H     H_    0.449003 0.727405 0.701912 0.149315
H24   H     H_    0.806291 0.240089 0.305003 0.120862
H25   H     H_    0.808499 0.226503 0.174538 0.116222
H26   H     H_    0.545716 0.987645 0.191726 0.170616
H27   H     H_    0.360435 0.138887 0.187038 0.130057
H28   H     H_    0.356315 0.161104 0.313469 0.129532
H29   H     H_    0.539553 0.006959 0.317798 0.139372
H30   H     H_    0.265611 0.438225 0.310935 0.154901
H31   H     H_    0.220552 0.461562 0.183616 0.123438
H32   H     H_    0.998509 0.026738 0.209039 0.145635
H33   H     H_    0.490544 0.863720 0.685324 0.117066
H34   H     H_    0.191607 0.905663 0.201745 0.136140
H35   H     H_    0.206801 0.901533 0.326880 0.157862
H36   H     H_    0.012297 0.012853 0.335676 0.129455
H37   H     H_    0.766280 0.822089 0.780567 0.129977
H38   H     H_    0.745449 0.794223 0.661388 0.115787
H39   H     H_    0.845133 0.445123 0.811506 0.130607
H40   H     H_    0.665453 0.492928 0.827660 0.120258
H41   H     H_    0.635524 0.473255 0.709631 0.133726
O1    O     O_R   0.507380 0.255700 0.581440 -0.529112
O2    O     O_R   0.524480 0.695810 0.424040 -0.510437
O3    O     O_R   0.736390 0.504290 0.414790 -0.522629
O4    O     O_R   0.691300 0.277290 0.422170 -0.515075
O5    O     O_3   0.499990 0.499990 0.499980 -0.246966
O6    O     O_R   0.089400 0.825690 0.930570 -0.532472
O7    O     O_R   0.818460 0.054440 0.929850 -0.501927
O8    O     O_R   0.606060 0.077150 0.915510 -0.535623
O9    O     O_R   0.646550 0.806680 0.917570 -0.511277
O10   O     O_R   0.837170 0.593410 0.915250 -0.532343
O11   O     O_R   0.065200 0.635530 0.931570 -0.502007
O12   O     O_R   0.280320 0.527350 0.578930 -0.500220
O13   O     O_R   0.068260 0.828890 0.091840 -0.520811
O14   O     O_R   0.798870 0.057410 0.079340 -0.506200
O15   O     O_R   0.584930 0.080350 0.076780 -0.523342
O16   O     O_R   0.626960 0.809650 0.067060 -0.508032
O17   O     O_R   0.816040 0.596610 0.076510 -0.525277
O18   O     O_R   0.045610 0.638500 0.081060 -0.514099
O19   O     O_3   0.833640 0.833710 0.001100 -0.247158
O20   O     O_R   0.260510 0.739590 0.584590 -0.534330
O21   O     O_R   0.532300 0.695080 0.573820 -0.508600
O22   O     O_R   0.744840 0.503500 0.576370 -0.533075
O23   O     O_R   0.699120 0.276560 0.571960 -0.501841
O24   O     O_R   0.498940 0.256500 0.419860 -0.524137
O25   O     O_R   0.272500 0.528080 0.429150 -0.524455
O26   O     O_R   0.252060 0.740380 0.423010 -0.524775
N1    N     N_2   0.958508 0.510103 0.326896 -0.511384
H42   H     H_    0.896926 0.617343 0.334686 0.259302
C61   C     C_3   0.039771 0.430986 0.387730 -0.276872
H43   H     H_    0.055415 0.501223 0.424758 0.154443
H44   H     H_    0.143279 0.344285 0.369844 0.129589
H45   H     H_    0.986765 0.383538 0.417198 0.166280

loop_
_geom_bond_atom_site_label_1
_geom_bond_atom_site_label_2
_ccdc_geom_bond_type
C44   C49   S    
C8    C13   S    
Cr1   O12   S    
C59   H33   S    
C32   C45   S    
C19   C20   A    
C9    C14   S    
C7    C8    A    
C7    C11   A    
C26   C27   A    
C5    H4    S    
C37   H24   S    
C18   C24   A    
C22   H16   S    
Cr2   O26   S    
C28   C29   A    
C10   C15   A    
C61   H45   S    
C57   O18   A    
C30   C31   S    
C45   O2    A    
C28   H18   S    
Cr4   O14   S    
C4    C59   S    
C59   H23   S    
Cr3   O23   S    
Cr3   O5    S    
C19   H11   S    
Cr1   O1    S    
C16   C53   S    
C39   H27   S    
Cr1   O25   S    
C55   O17   A    
C35   C36   A    
C8    C9    A    
Cr6   O10   S    
C6    H41   S    
C31   H22   S    
C30   H20   S    
C60   H37   S    
C43   C48   S    
C56   O4    A    
C29   H19   S    
C20   H13   S    
C3    C60   S    
C15   C23   S    
C54   O15   A    
C5    H38   S    
C34   O25   A    
C21   C22   S    
C37   C41   A    
Cr5   O8    S    
C36   C41   A    
C2    C6    S    
C31   N1    S    
C42   C57   S    
C53   O6    A    
C52   O9    A    
C25   C29   A    
C48   H34   S    
C55   O16   A    
C34   C50   S    
C51   O7    A    
Cr4   O7    S    
C12   O22   A    
C27   C31   S    
C1    O20   A    
C28   C32   A    
C61   H44   S    
C40   H28   S    
C49   H36   S    
C58   H12   S    
C11   H6    S    
C16   C17   A    
N1    C61   S    
C34   O26   A    
C25   C26   A    
C38   H25   S    
C2    H40   S    
C51   O8    A    
Cr6   O19   S    
C23   O23   A    
C14   H10   S    
C35   C39   S    
C43   C44   A    
C41   C56   S    
C1    O12   A    
C37   C38   A    
C36   C40   S    
C16   C20   A    
C6    H2    S    
C45   O3    A    
C17   C18   A    
Cr2   O5    S    
Cr5   O15   S    
C57   O13   A    
C4    C6    S    
C48   C49   S    
C54   O14   A    
C21   H15   S    
C26   C30   S    
Cr4   O19   S    
Cr5   O9    S    
Cr6   O17   S    
C4    C12   S    
C42   C43   A    
C40   H29   S    
C39   H26   S    
C39   C40   S    
C49   H35   S    
C44   C50   A    
C33   C54   S    
C46   C47   A    
Cr4   O6    S    
C5    C60   S    
C27   C32   A    
C18   C22   S    
Cr5   O16   S    
C25   C55   S    
C13   H7    S    
C4    C5    S    
C47   H31   S    
C3    C52   S    
N1    H42   S    
C12   O21   A    
C48   H32   S    
C46   C50   A    
C2    H39   S    
C33   C38   A    
Cr4   O13   S    
Cr6   O18   S    
Cr5   O19   S    
Cr3   O3    S    
C19   C24   A    
C58   C59   S    
C7    C51   S    
C14   H9    S    
C22   H17   S    
Cr2   O21   S    
Cr2   O20   S    
Cr2   O2    S    
C60   H3    S    
C23   O1    A    
C21   H14   S    
C53   O11   A    
C33   C35   A    
C2    C3    S    
C42   C47   A    
Cr3   O22   S    
Cr3   O4    S    
C17   C21   S    
C56   O24   A    
C10   C11   A    
Cr1   O24   S    
C10   H5    S    
C3    C58   S    
C58   H1    S    
C46   H30   S    
C13   H8    S    
C1    C24   S    
Cr6   O11   S    
C52   O10   A    
C61   H43   S    
C30   H21   S    
C13   C14   S    
Cr1   O5    S    
C9    C15   A    
