data_mof_unit_587.cif
_audit_creation_date              2012-12-10T17:21:39-0500
_audit_creation_method            fapswitch 2.2
_symmetry_space_group_name_H-M    P1
_symmetry_Int_Tables_number       1
_space_group_crystal_system       triclinic
_cell_length_a                    10.753959
_cell_length_b                    10.852544
_cell_length_c                    9.610601
_cell_angle_alpha                 89.934712
_cell_angle_beta                  89.511707
_cell_angle_gamma                 96.490237
_cell_volume                      1114.40086548

loop_
_atom_site_label
_atom_site_type_symbol
_atom_type_description
_atom_site_fract_x
_atom_site_fract_y
_atom_site_fract_z
_atom_type_partial_charge
C1    C     C_R   0.504566 0.262410 0.500939 0.772864
C2    C     C_3   0.877526 0.490889 0.498008 0.154510
C3    C     C_3   0.942046 0.607166 0.421205 -0.432369
C4    C     C_3   0.914733 0.375139 0.420103 -0.402332
C5    C     C_R   0.549102 0.116960 0.759437 -0.183267
C6    C     C_R   0.533902 0.053261 0.884856 -0.271674
C7    C     C_R   0.468288 0.935993 0.888911 -0.241854
C8    C     C_R   0.423579 0.877228 0.765243 0.509372
C9    C     C_R   0.462062 0.932993 0.634636 -0.004265
C10   C     C_R   0.504034 0.061270 0.633372 0.023437
C11   C     C_R   0.504421 0.127143 0.505219 -0.084388
C12   C     C_R   0.259717 0.494589 0.500273 0.799182
C13   C     C_R   0.489307 0.061453 0.380154 -0.218607
C14   C     C_R   0.476493 0.933299 0.380434 -0.239114
C15   C     C_R   0.467144 0.867412 0.506166 -0.084810
C16   C     C_R   0.681544 0.652107 0.150149 -0.113568
C17   C     C_R   0.790266 0.704037 0.088257 -0.307090
C18   C     C_R   0.803163 0.698427 0.947157 -0.315963
C19   C     C_R   0.699587 0.655438 0.863538 0.524373
C20   C     C_R   0.594996 0.575809 0.926193 0.102488
C21   C     C_R   0.590964 0.575400 0.076027 0.047215
C22   C     C_R   0.415248 0.423330 0.075741 0.543564
C23   C     C_R   0.486075 0.735376 0.501226 0.858128
C24   C     C_R   0.414436 0.426452 0.926308 -0.178376
C25   C     C_R   0.739593 0.495286 0.499406 0.756675
C26   C     C_3   0.068579 0.484946 0.649866 -0.392269
C27   C     C_3   0.926608 0.483731 0.649232 -0.376650
C28   C     C_3   0.085850 0.610826 0.425652 0.003553
C29   C     C_3   0.059504 0.376901 0.419644 -0.437934
C30   C     C_3   0.121597 0.492273 0.499631 0.158362
Cu1   Cu    Cu3+1 0.499990 0.499990 0.640660 0.991346
Cu2   Cu    Cu3+1 0.500010 0.500010 0.359340 0.958419
H1    H     H_    0.109823 0.565680 0.710081 0.199172
H2    H     H_    0.880556 0.373924 0.311072 0.177479
H3    H     H_    0.120823 0.610387 0.316468 0.153391
H4    H     H_    0.912912 0.603195 0.310629 0.166595
H5    H     H_    0.491381 0.109091 0.280931 0.155052
H6    H     H_    0.605406 0.205739 0.762388 0.177601
H7    H     H_    0.570319 0.096437 0.979884 0.156862
H8    H     H_    0.450712 0.891896 0.989092 0.133971
H9    H     H_    0.475978 0.885812 0.281280 0.159121
H10   H     H_    0.093526 0.399911 0.702911 0.160080
H11   H     H_    0.675037 0.671834 0.257796 0.207584
H12   H     H_    0.863255 0.754352 0.149595 0.161065
H13   H     H_    0.890134 0.743842 0.906060 0.148578
H14   H     H_    0.343584 0.369840 0.868801 0.143665
H15   H     H_    0.883111 0.396974 0.700230 0.164885
H16   H     H_    0.900825 0.560991 0.713793 0.169721
H17   H     H_    0.911814 0.693393 0.462824 0.132198
H18   H     H_    0.094318 0.379506 0.310461 0.190099
H19   H     H_    0.085293 0.290223 0.468077 0.167607
H20   H     H_    0.870674 0.288951 0.471613 0.160094
N1    N     N_R   0.501200 0.501210 0.147910 -0.221830
N2    N     N_R   0.501250 0.501290 0.852040 -0.191984
O1    O     O_R   0.499990 0.319640 0.618810 -0.600520
O2    O     O_R   0.500000 0.319660 0.381240 -0.556625
O3    O     O_R   0.317680 0.499970 0.618790 -0.570257
O4    O     O_R   0.317700 0.499990 0.381210 -0.550560
O5    O     O_R   0.500000 0.680340 0.618760 -0.470124
O6    O     O_R   0.500010 0.680360 0.381190 -0.630279
O7    O     O_R   0.682300 0.500010 0.618790 -0.556593
O8    O     O_R   0.682320 0.500030 0.381210 -0.609930
O9    O     O_3   0.338393 0.770287 0.770509 -0.572515
C31   C     C_3   0.237639 0.784302 0.864359 0.058808
H21   H     H_    0.148311 0.752409 0.812583 0.144149
H22   H     H_    0.227625 0.882666 0.889914 0.090111
C32   C     C_3   0.249511 0.710790 0.999981 -0.333771
H23   H     H_    0.347836 0.691865 0.015256 0.229919
H24   H     H_    0.223048 0.767194 0.089758 0.167356
C33   C     C_3   0.165102 0.587964 0.002126 -0.870446
H25   H     H_    0.065391 0.603763 0.991271 0.237612
H26   H     H_    0.176211 0.539086 0.101701 0.260596
H27   H     H_    0.191969 0.527578 0.917100 0.260393
O10   O     O_3   0.323846 0.351638 0.153041 -0.595001
C34   C     C_3   0.288615 0.232566 0.096276 0.007057
H28   H     H_    0.288922 0.164202 0.182330 0.168141
H29   H     H_    0.354947 0.203217 0.016464 0.132100
C35   C     C_3   0.155006 0.225362 0.040339 -0.352233
H30   H     H_    0.089308 0.238693 0.127298 0.217591
H31   H     H_    0.147552 0.299831 0.962653 0.207227
C36   C     C_3   0.115369 0.100346 0.972878 -0.948793
H32   H     H_    0.172838 0.089640 0.877993 0.257724
H33   H     H_    0.015522 0.095231 0.942934 0.264943
H34   H     H_    0.126063 0.023713 0.047020 0.249620
O11   O     O_3   0.690839 0.702445 0.730149 -0.569457
C37   C     C_3   0.789854 0.788259 0.677248 0.026821
H35   H     H_    0.772940 0.795762 0.564007 0.144873
H36   H     H_    0.882931 0.755393 0.686705 0.110293
C38   C     C_3   0.789664 0.919617 0.734948 -0.359970
H37   H     H_    0.703432 0.954894 0.700934 0.241813
H38   H     H_    0.791709 0.921803 0.850197 0.228848
C39   C     C_3   0.900208 0.005825 0.677317 -0.960355
H39   H     H_    0.989878 0.973355 0.709999 0.257990
H40   H     H_    0.895836 0.101246 0.717267 0.257517
H41   H     H_    0.897129 0.008685 0.561819 0.256354
N3    N     N_3   0.144816 0.724707 0.491229 -0.592904
H42   H     H_    0.095203 0.743916 0.580923 0.221133
H43   H     H_    0.138424 0.798745 0.422860 0.211378

loop_
_geom_bond_atom_site_label_1
_geom_bond_atom_site_label_2
_ccdc_geom_bond_type
C27   H16   S    
C16   C21   A    
Cu1   O7    S    
C19   C20   A    
C1    C11   S    
Cu2   O4    S    
C36   H32   S    
C3    H17   S    
C7    C8    A    
O11   C37   S    
C23   O5    A    
C26   C27   S    
C4    H20   S    
C3    C28   S    
C1    O2    A    
C5    C6    A    
C35   H31   S    
C24   N2    A    
C18   C19   A    
Cu1   O5    S    
C28   H3    S    
C8    C9    A    
N3    H43   S    
C7    H8    S    
C2    C27   S    
C38   H38   S    
C9    C10   A    
C13   H5    S    
C4    C29   S    
C12   O4    A    
C15   C23   S    
C5    H6    S    
C36   H33   S    
C22   N1    A    
C29   H18   S    
C23   O6    A    
C4    H2    S    
O10   C34   S    
C32   H23   S    
C31   C32   S    
C20   N2    A    
C37   H35   S    
C16   C17   A    
C39   H41   S    
C32   H24   S    
C31   H22   S    
C2    C4    S    
C34   H28   S    
C29   C30   S    
C26   H1    S    
Cu1   Cu2   S    
C14   C15   A    
N3    H42   S    
C33   H27   S    
C39   H40   S    
C17   C18   A    
C25   O7    A    
C38   C39   S    
C34   H29   S    
C16   H11   S    
C33   H25   S    
C14   H9    S    
C12   O3    A    
C26   C30   S    
C22   C24   A    
C22   O10   S    
C18   H13   S    
Cu2   N1    S    
C36   H34   S    
C26   H10   S    
C29   H19   S    
C27   H15   S    
C12   C30   S    
C35   H30   S    
C19   O11   S    
C37   C38   S    
C6    C7    A    
C28   N3    S    
C32   C33   S    
C24   H14   S    
C31   H21   S    
Cu1   O3    S    
C28   C30   S    
C2    C3    S    
C1    O1    A    
C17   H12   S    
Cu2   O8    S    
C5    C10   A    
C21   N1    A    
C11   C13   A    
C35   C36   S    
C3    H4    S    
C39   H39   S    
C2    C25   S    
C37   H36   S    
C25   O8    A    
Cu1   N2    S    
C9    C15   A    
C34   C35   S    
C10   C11   A    
C8    O9    S    
O9    C31   S    
C20   C21   A    
Cu2   O6    S    
C6    H7    S    
C33   H26   S    
Cu1   O1    S    
C38   H37   S    
C13   C14   A    
Cu2   O2    S    
