data_mof_unit_2757.cif
_audit_creation_date              2012-12-11T16:07:26-0500
_audit_creation_method            fapswitch 2.2
_symmetry_space_group_name_H-M    P1
_symmetry_Int_Tables_number       1
_space_group_crystal_system       triclinic
_cell_length_a                    17.081563
_cell_length_b                    17.081561
_cell_length_c                    17.307057
_cell_angle_alpha                 90.000037
_cell_angle_beta                  90.00015
_cell_angle_gamma                 90.0
_cell_volume                      5049.84894398

loop_
_atom_site_label
_atom_site_type_symbol
_atom_type_description
_atom_site_fract_x
_atom_site_fract_y
_atom_site_fract_z
_atom_type_partial_charge
Br1   Br    Br    0.643752 0.567473 0.881713 -0.402117
Br2   Br    Br    0.100708 0.643792 0.637487 -0.548101
Br3   Br    Br    0.567463 0.643773 0.118291 -0.402114
Br4   Br    Br    0.412665 0.152380 0.738737 -0.396910
Br5   Br    Br    0.295443 0.628466 0.204132 -0.461107
Br6   Br    Br    0.899302 0.356167 0.637428 -0.548130
Br7   Br    Br    0.432537 0.356232 0.118298 -0.402244
Br8   Br    Br    0.587360 0.847631 0.738708 -0.396981
Br9   Br    Br    0.399296 0.143805 0.137475 -0.548089
Br10  Br    Br    0.795417 0.871548 0.704135 -0.461142
Br11  Br    Br    0.087382 0.652359 0.238680 -0.396980
Br12  Br    Br    0.152373 0.412651 0.261282 -0.396896
Br13  Br    Br    0.932517 0.143730 0.618290 -0.402230
Br14  Br    Br    0.600707 0.856199 0.137473 -0.548112
Br15  Br    Br    0.204617 0.128430 0.704139 -0.461182
Br16  Br    Br    0.912703 0.347602 0.238786 -0.396865
Br17  Br    Br    0.067446 0.856206 0.618290 -0.402132
Br18  Br    Br    0.347618 0.912664 0.761265 -0.396917
Br19  Br    Br    0.856169 0.067422 0.381700 -0.402210
Br20  Br    Br    0.143791 0.399293 0.862505 -0.548104
Br21  Br    Br    0.871558 0.795400 0.295866 -0.461164
Br22  Br    Br    0.652360 0.087376 0.761312 -0.396962
Br23  Br    Br    0.628459 0.295435 0.795864 -0.461124
Br24  Br    Br    0.143730 0.932513 0.381718 -0.402160
Br25  Br    Br    0.856183 0.600702 0.862551 -0.548134
Br26  Br    Br    0.128438 0.204600 0.295862 -0.461139
Br27  Br    Br    0.356166 0.899301 0.362578 -0.548119
Br28  Br    Br    0.356214 0.432550 0.881700 -0.402195
Br29  Br    Br    0.847625 0.587347 0.261277 -0.396957
Br30  Br    Br    0.371563 0.704616 0.795864 -0.461166
Br31  Br    Br    0.643764 0.100713 0.362464 -0.548091
Br32  Br    Br    0.704665 0.371591 0.204143 -0.461213
C1    C     C_R   0.390769 0.699357 0.600643 -0.063999
C2    C     C_R   0.577351 0.671906 0.644229 -0.063280
C3    C     C_3   0.754505 0.177831 0.643526 0.452407
C4    C     C_3   0.697931 0.764543 0.261621 0.451531
C5    C     C_3   0.235460 0.302062 0.738375 0.451545
C6    C     C_3   0.822153 0.245454 0.356498 0.452411
C7    C     C_3   0.245473 0.822160 0.643514 0.452387
C8    C     C_3   0.677836 0.745486 0.856477 0.452398
C9    C     C_3   0.254519 0.322162 0.143521 0.452405
C10   C     C_3   0.802082 0.264549 0.761607 0.451532
C11   C     C_3   0.264551 0.802085 0.238394 0.451533
C12   C     C_3   0.322160 0.254526 0.856484 0.452408
C13   C     C_R   0.699357 0.390769 0.399355 -0.063999
C14   C     C_3   0.745480 0.677840 0.143520 0.452395
C15   C     C_3   0.197933 0.735462 0.761622 0.451532
C16   C     C_3   0.735470 0.197950 0.238364 0.451531
C17   C     C_3   0.315466 0.112146 0.316697 0.072380
C18   C     C_3   0.887861 0.684508 0.683321 0.072376
C19   C     C_3   0.058219 0.739422 0.417768 0.150090
C20   C     C_3   0.739427 0.058219 0.582224 0.150056
C21   C     C_3   0.684528 0.887854 0.316698 0.072418
C22   C     C_3   0.112150 0.315448 0.683288 0.072414
C23   C     C_3   0.941746 0.260468 0.417853 0.150129
C24   C     C_R   0.300136 0.606005 0.601820 -0.150637
C25   C     C_3   0.260507 0.941758 0.582177 0.150091
C26   C     C_3   0.558226 0.760551 0.917784 0.150123
C27   C     C_3   0.239462 0.441767 0.082204 0.150066
C28   C     C_3   0.815505 0.387869 0.816664 0.072348
C29   C     C_3   0.387871 0.815515 0.183343 0.072377
C30   C     C_3   0.441762 0.239485 0.917810 0.150078
C31   C     C_3   0.760534 0.558236 0.082200 0.150120
C32   C     C_3   0.184540 0.612152 0.816707 0.072427
C33   C     C_3   0.612167 0.184585 0.183251 0.072426
C34   C     C_R   0.579251 0.670334 0.354276 -0.007224
C35   C     C_R   0.422649 0.328094 0.644228 -0.063274
C36   C     C_R   0.300641 0.609231 0.399361 -0.064010
C37   C     C_R   0.699865 0.393993 0.601816 -0.150636
C38   C     C_R   0.922652 0.171904 0.144230 -0.063278
C39   C     C_R   0.079250 0.829667 0.854275 -0.007227
C40   C     C_R   0.199865 0.106006 0.101819 -0.150648
C41   C     C_R   0.606003 0.300136 0.398178 -0.150645
C42   C     C_R   0.800642 0.890769 0.899360 -0.064013
C43   C     C_R   0.077352 0.828094 0.144229 -0.063276
C44   C     C_R   0.920747 0.170336 0.854278 -0.007241
C45   C     C_R   0.800136 0.893995 0.101820 -0.150628
C46   C     C_R   0.199358 0.109231 0.899358 -0.064002
C47   C     C_R   0.893994 0.800135 0.898182 -0.150629
C48   C     C_R   0.109230 0.199358 0.100641 -0.064000
C49   C     C_R   0.171904 0.922651 0.855770 -0.063277
C50   C     C_R   0.829669 0.079250 0.145726 -0.007229
C51   C     C_R   0.106005 0.199864 0.898180 -0.150645
C52   C     C_R   0.670335 0.579251 0.645723 -0.007227
C53   C     C_R   0.890770 0.800643 0.100643 -0.064011
C54   C     C_R   0.828093 0.077352 0.855771 -0.063276
C55   C     C_R   0.170336 0.920748 0.145723 -0.007240
C56   C     C_3   0.317378 0.323593 0.251708 -0.309835
C57   C     C_3   0.676408 0.682620 0.748294 -0.309834
C58   C     C_3   0.265460 0.739857 0.345510 -0.258207
C59   C     C_3   0.739858 0.265459 0.654489 -0.258202
C60   C     C_3   0.682620 0.676407 0.251706 -0.309832
C61   C     C_3   0.323594 0.317379 0.748293 -0.309841
C62   C     C_3   0.734535 0.260140 0.345501 -0.258224
C63   C     C_R   0.328093 0.422649 0.355772 -0.063271
C64   C     C_3   0.260141 0.734538 0.654496 -0.258211
C65   C     C_3   0.765461 0.760142 0.845508 -0.258206
C66   C     C_3   0.239857 0.234538 0.154495 -0.258227
C67   C     C_3   0.817378 0.176410 0.751707 -0.309819
C68   C     C_3   0.176410 0.817379 0.248293 -0.309826
C69   C     C_3   0.234537 0.239858 0.845504 -0.258225
C70   C     C_3   0.760143 0.765464 0.154497 -0.258211
C71   C     C_3   0.182616 0.823596 0.751703 -0.309834
C72   C     C_3   0.823599 0.182616 0.248298 -0.309840
C73   C     C_R   0.313148 0.683530 0.614202 0.246335
C74   C     C_R   0.609231 0.300641 0.600638 -0.064010
C75   C     C_R   0.683528 0.313148 0.385793 0.246325
C76   C     C_R   0.636963 0.640310 0.687063 0.213816
C77   C     C_R   0.359688 0.363037 0.312938 0.213820
C78   C     C_R   0.686853 0.316466 0.614192 0.246352
C79   C     C_R   0.316467 0.686853 0.385807 0.246349
C80   C     C_R   0.363038 0.359689 0.687063 0.213823
C81   C     C_R   0.640310 0.636962 0.312936 0.213818
C82   C     C_R   0.863043 0.140307 0.187066 0.213828
C83   C     C_R   0.140307 0.863040 0.812934 0.213818
C84   C     C_R   0.186852 0.183531 0.114198 0.246342
C85   C     C_R   0.393993 0.699865 0.398183 -0.150629
C86   C     C_R   0.816468 0.813147 0.885804 0.246344
C87   C     C_R   0.136965 0.859689 0.187063 0.213810
C88   C     C_R   0.859688 0.136965 0.812938 0.213818
C89   C     C_R   0.813149 0.816470 0.114201 0.246341
C90   C     C_R   0.183530 0.186852 0.885800 0.246339
C91   C     C_3   0.690261 0.658695 0.833188 0.222160
C92   C     C_3   0.230753 0.336990 0.228261 0.128896
C93   C     C_3   0.716707 0.251044 0.739455 0.191235
C94   C     C_3   0.279036 0.826169 0.322587 0.119703
C95   C     C_3   0.309725 0.341313 0.833182 0.222146
C96   C     C_R   0.329665 0.420748 0.645723 -0.007233
C97   C     C_3   0.769244 0.663010 0.228261 0.128896
C98   C     C_3   0.283302 0.748979 0.739454 0.191247
C99   C     C_3   0.720935 0.173841 0.322541 0.119681
C100  C     C_3   0.748999 0.283313 0.260549 0.191244
C101  C     C_3   0.173836 0.720947 0.677438 0.119701
C102  C     C_3   0.658691 0.690270 0.166815 0.222159
C103  C     C_3   0.336996 0.230757 0.771746 0.128900
C104  C     C_3   0.251047 0.716709 0.260543 0.191250
C105  C     C_3   0.826169 0.279037 0.677415 0.119707
C106  C     C_3   0.341307 0.309732 0.166817 0.222148
C107  C     C_R   0.671906 0.577351 0.355771 -0.063281
C108  C     C_3   0.663015 0.769247 0.771734 0.128889
C109  C     C_3   0.326163 0.220951 0.177435 0.119709
C110  C     C_3   0.751036 0.783296 0.760544 0.191245
C111  C     C_3   0.163023 0.730749 0.271724 0.128889
C112  C     C_3   0.841299 0.190252 0.666810 0.222143
C113  C     C_3   0.673837 0.779050 0.177435 0.119684
C114  C     C_3   0.248978 0.216694 0.760546 0.191244
C115  C     C_3   0.837011 0.269233 0.271765 0.128907
C116  C     C_3   0.158685 0.809726 0.666813 0.222133
C117  C     C_3   0.269239 0.836997 0.728253 0.128913
C118  C     C_R   0.420747 0.329665 0.354277 -0.007245
C119  C     C_3   0.809709 0.158673 0.333181 0.222151
C120  C     C_3   0.220947 0.326162 0.822559 0.119704
C121  C     C_3   0.783301 0.751029 0.239457 0.191246
C122  C     C_3   0.730749 0.163021 0.728272 0.128895
C123  C     C_3   0.190251 0.841298 0.333191 0.222149
C124  C     C_3   0.779044 0.673833 0.822576 0.119686
C125  C     C_3   0.216697 0.248971 0.239456 0.191254
C126  C     C_3   0.302067 0.235457 0.261620 0.451537
C127  C     C_3   0.764546 0.697923 0.738387 0.451535
C128  C     C_3   0.177831 0.754503 0.356471 0.452392
H1    H     H_    0.418211 0.756431 0.599923 0.156798
H2    H     H_    0.539345 0.719823 0.658753 0.167248
H3    H     H_    0.756430 0.418210 0.400076 0.156793
H4    H     H_    0.244775 0.575721 0.601236 0.165932
H5    H     H_    0.543991 0.720128 0.337797 0.134124
H6    H     H_    0.460656 0.280176 0.658751 0.167245
H7    H     H_    0.243569 0.581788 0.400081 0.156794
H8    H     H_    0.755226 0.424276 0.601235 0.165912
H9    H     H_    0.960657 0.219824 0.158751 0.167254
H10   H     H_    0.043990 0.779873 0.837796 0.134128
H11   H     H_    0.255225 0.075723 0.101235 0.165926
H12   H     H_    0.575719 0.244776 0.398763 0.165945
H13   H     H_    0.743569 0.918212 0.900080 0.156792
H14   H     H_    0.039344 0.780178 0.158754 0.167242
H15   H     H_    0.956008 0.220129 0.837798 0.134150
H16   H     H_    0.744775 0.924279 0.101237 0.165927
H17   H     H_    0.256431 0.081789 0.900078 0.156791
H18   H     H_    0.924278 0.744774 0.898765 0.165920
H19   H     H_    0.081788 0.256431 0.099921 0.156789
H20   H     H_    0.219821 0.960657 0.841246 0.167253
H21   H     H_    0.779874 0.043991 0.162206 0.134124
H22   H     H_    0.075722 0.255225 0.898765 0.165931
H23   H     H_    0.720128 0.543991 0.662202 0.134128
H24   H     H_    0.918212 0.743569 0.099923 0.156794
H25   H     H_    0.780176 0.039345 0.841247 0.167241
H26   H     H_    0.220129 0.956009 0.162201 0.134145
H27   H     H_    0.370159 0.086890 0.292802 0.170007
H28   H     H_    0.265033 0.096715 0.278858 0.125783
H29   H     H_    0.304993 0.084216 0.373623 0.191582
H30   H     H_    0.913107 0.629817 0.707229 0.169979
H31   H     H_    0.903294 0.734947 0.721151 0.125814
H32   H     H_    0.915799 0.694965 0.626396 0.191606
H33   H     H_    0.031196 0.687495 0.390123 0.168727
H34   H     H_    0.280175 0.460655 0.341249 0.167239
H35   H     H_    0.041501 0.793458 0.385871 0.143402
H36   H     H_    0.033195 0.744101 0.476698 0.185650
H37   H     H_    0.687499 0.031196 0.609866 0.168723
H38   H     H_    0.793462 0.041501 0.614122 0.143415
H39   H     H_    0.744107 0.033198 0.523294 0.185644
H40   H     H_    0.629834 0.913107 0.292801 0.169998
H41   H     H_    0.734962 0.903287 0.278860 0.125816
H42   H     H_    0.694997 0.915786 0.373623 0.191590
H43   H     H_    0.086886 0.370144 0.707168 0.170005
H44   H     H_    0.096720 0.265024 0.721139 0.125777
H45   H     H_    0.581788 0.243568 0.599918 0.156790
H46   H     H_    0.084226 0.304957 0.626362 0.191569
H47   H     H_    0.968799 0.312395 0.390237 0.168710
H48   H     H_    0.958457 0.206436 0.385946 0.143382
H49   H     H_    0.966743 0.255763 0.476791 0.185674
H50   H     H_    0.312409 0.968806 0.609842 0.168716
H51   H     H_    0.206448 0.958464 0.614040 0.143414
H52   H     H_    0.255853 0.966765 0.523239 0.185664
H53   H     H_    0.541509 0.706529 0.885865 0.143376
H54   H     H_    0.531197 0.812489 0.890167 0.168727
H55   H     H_    0.533211 0.755844 0.976715 0.185663
H56   H     H_    0.424277 0.755226 0.398764 0.165911
H57   H     H_    0.293497 0.458483 0.114103 0.143402
H58   H     H_    0.187535 0.468798 0.109839 0.168716
H59   H     H_    0.244148 0.466782 0.023272 0.185654
H60   H     H_    0.765057 0.403300 0.778844 0.125807
H61   H     H_    0.870192 0.413112 0.792740 0.169978
H62   H     H_    0.805064 0.415813 0.873589 0.191608
H63   H     H_    0.403305 0.765077 0.221174 0.125790
H64   H     H_    0.413111 0.870209 0.207255 0.169980
H65   H     H_    0.415816 0.805061 0.126421 0.191613
H66   H     H_    0.458476 0.293518 0.885907 0.143393
H67   H     H_    0.279871 0.456007 0.662202 0.134139
H68   H     H_    0.468801 0.187558 0.890182 0.168717
H69   H     H_    0.466772 0.244179 0.976744 0.185650
H70   H     H_    0.706505 0.541520 0.114110 0.143385
H71   H     H_    0.812465 0.531201 0.109824 0.168725
H72   H     H_    0.755834 0.533225 0.023267 0.185668
H73   H     H_    0.234966 0.596720 0.778860 0.125797
H74   H     H_    0.129843 0.586893 0.792823 0.170001
H75   H     H_    0.195023 0.584225 0.873633 0.191578
H76   H     H_    0.596736 0.235017 0.221090 0.125824
H77   H     H_    0.586898 0.129893 0.207135 0.170016
H78   H     H_    0.719824 0.539345 0.341248 0.167258
H79   H     H_    0.584251 0.195064 0.126320 0.191548
H80   H     H_    0.456006 0.279870 0.337798 0.134152
N1    N     N_R   0.424590 0.632770 0.578330 -0.064401
N2    N     N_R   0.575410 0.632770 0.578330 -0.063030
N3    N     N_R   0.632770 0.424590 0.421670 -0.064400
N4    N     N_R   0.367230 0.575410 0.578330 -0.061359
N5    N     N_R   0.575410 0.632770 0.421670 -0.062839
N6    N     N_R   0.424590 0.367230 0.578330 -0.063031
N7    N     N_R   0.367230 0.575410 0.421670 -0.064399
N8    N     N_R   0.632770 0.424590 0.578330 -0.061354
N9    N     N_R   0.924590 0.132770 0.078330 -0.063033
N10   N     N_R   0.075410 0.867230 0.921670 -0.062838
N11   N     N_R   0.132770 0.075410 0.078330 -0.061357
N12   N     N_R   0.575410 0.367230 0.421670 -0.061363
N13   N     N_R   0.867230 0.924590 0.921670 -0.064398
N14   N     N_R   0.075410 0.867230 0.078330 -0.063028
N15   N     N_R   0.924590 0.132770 0.921670 -0.062841
N16   N     N_R   0.867230 0.924590 0.078330 -0.061359
N17   N     N_R   0.132770 0.075410 0.921670 -0.064399
N18   N     N_R   0.924590 0.867230 0.921670 -0.061357
N19   N     N_R   0.075410 0.132770 0.078330 -0.064401
N20   N     N_R   0.132770 0.924590 0.921670 -0.063030
N21   N     N_R   0.867230 0.075410 0.078330 -0.062835
N22   N     N_R   0.075410 0.132770 0.921670 -0.061358
N23   N     N_R   0.632770 0.575410 0.578330 -0.062840
N24   N     N_R   0.924590 0.867230 0.078330 -0.064400
N25   N     N_R   0.867230 0.075410 0.921670 -0.063028
N26   N     N_R   0.132770 0.924590 0.078330 -0.062840
N27   N     N_R   0.367230 0.424590 0.421670 -0.063030
N28   N     N_R   0.575410 0.367230 0.578330 -0.064397
N29   N     N_R   0.424590 0.632770 0.421670 -0.061355
N30   N     N_R   0.367230 0.424590 0.578330 -0.062839
N31   N     N_R   0.632770 0.575410 0.421670 -0.063031
N32   N     N_R   0.424590 0.367230 0.421670 -0.062839
Ni1   Ni    Ni4+2 0.500000 0.631570 0.500000 0.257237
Ni2   Ni    Ni4+2 0.500000 0.368430 0.500000 0.257234
Ni3   Ni    Ni4+2 0.631570 0.500000 0.500000 0.257235
Ni4   Ni    Ni4+2 0.368430 0.500000 0.500000 0.257238
Ni5   Ni    Ni4+2 1.000000 0.131570 0.000000 0.257232
Ni6   Ni    Ni4+2 1.000000 0.868430 0.000000 0.257238
Ni7   Ni    Ni4+2 0.131570 0.000000 0.000000 0.257234
Ni8   Ni    Ni4+2 0.868430 0.000000 0.000000 0.257238
O1    O     O_3   0.324964 0.193330 0.328231 -0.610758
O2    O     O_3   0.228803 0.360219 0.075682 -0.591107
O3    O     O_3   0.824994 0.306685 0.828209 -0.610761
O4    O     O_3   0.306688 0.824999 0.171795 -0.610769
O5    O     O_3   0.360214 0.228818 0.924326 -0.591098
O6    O     O_3   0.771197 0.639784 0.075682 -0.591110
O7    O     O_3   0.175041 0.693337 0.828237 -0.610768
O8    O     O_3   0.693354 0.175077 0.171736 -0.610754
O9    O     O_3   0.806677 0.675019 0.671780 -0.610769
O10   O     O_3   0.139767 0.728770 0.424299 -0.591117
O11   O     O_3   0.728775 0.139768 0.575696 -0.591119
O12   O     O_3   0.675033 0.806670 0.328232 -0.610773
O13   O     O_3   0.193335 0.324953 0.671760 -0.610760
O14   O     O_3   0.860198 0.271147 0.424352 -0.591088
O15   O     O_3   0.271188 0.860212 0.575672 -0.591096
O16   O     O_3   0.639774 0.771209 0.924310 -0.591115

loop_
_geom_bond_atom_site_label_1
_geom_bond_atom_site_label_2
_ccdc_geom_bond_type
Br5   C104  S    
C45   C89   A    
C125  C126  S    
C99   C119  S    
C3    C122  S    
C43   N14   A    
C14   C97   S    
C23   H48   S    
C50   H21   S    
N5    N31   A    
C35   N6    A    
C44   N15   A    
C23   O14   S    
N13   N18   A    
C48   C84   A    
C53   C89   A    
C56   C126  S    
C13   N3    A    
C41   N12   A    
C12   C103  S    
N15   Ni5   S    
C10   C105  S    
C72   C115  S    
C45   N16   A    
C4    C121  S    
C55   H26   S    
C91   C124  S    
C14   O6    S    
N6    Ni2   S    
C32   H75   S    
C63   C77   A    
C118  N32   A    
C68   C111  S    
C62   C100  S    
C1    H1    S    
C25   O15   S    
N13   Ni8   S    
C14   C102  S    
N27   N32   A    
C66   C125  S    
C103  C114  S    
C50   N21   A    
C58   C94   S    
C39   H10   S    
C18   H31   S    
C70   C121  S    
C56   C106  S    
C9    C106  S    
C42   H13   S    
Br4   C103  S    
C56   C77   S    
C26   H54   S    
C68   C123  S    
C27   O2    S    
C53   H24   S    
N16   N24   A    
C20   H38   S    
C9    C92   S    
N14   N26   A    
C5    O13   S    
C59   C93   S    
C96   N30   A    
C44   H15   S    
C62   C99   S    
C49   H20   S    
N6    N30   A    
C106  C109  S    
C128  O10   S    
C85   N29   A    
C12   C69   S    
C24   H4    S    
C69   C90   S    
Br8   C108  S    
C13   H3    S    
C37   H8    S    
C19   H35   S    
N21   Ni8   S    
C8    C108  S    
C57   C76   S    
C46   N17   A    
N9    Ni5   S    
C65   C110  S    
C55   N26   A    
C35   C80   A    
C54   H25   S    
N28   Ni2   S    
Br21  C121  S    
C15   O7    S    
Br11  C111  S    
C25   H51   S    
C34   C81   A    
C46   H17   S    
C16   O8    S    
C33   H76   S    
C1    N1    A    
C56   C92   S    
C28   H61   S    
C61   C95   S    
C10   O3    S    
C111  C128  S    
C55   C87   A    
C12   O5    S    
C17   H28   S    
C44   C88   A    
C38   H9    S    
C104  C111  S    
Br27  C94   S    
C22   H43   S    
C67   C122  S    
C26   O16   S    
C65   C124  S    
Br31  C99   S    
C3    O11   S    
Br19  C119  S    
C81   C107  A    
C16   C99   S    
C70   C89   S    
Br28  C95   S    
C3    C112  S    
C24   N4    A    
C43   H14   S    
C6    C62   S    
C58   C79   S    
C57   C127  S    
C42   C86   A    
C62   C75   S    
C48   H19   S    
Br17  C116  S    
N8    Ni3   S    
C9    O2    S    
C19   H33   S    
C68   C87   S    
N20   Ni7   S    
C61   C80   S    
N22   Ni5   S    
C18   O9    S    
C32   H74   S    
C37   C78   A    
C63   N27   A    
C57   C108  S    
C28   O3    S    
C5    C61   S    
C48   N19   A    
C41   H12   S    
C105  C112  S    
N17   Ni7   S    
C45   H16   S    
N23   Ni3   S    
C7    O15   S    
C8    O16   S    
C5    C120  S    
N3    Ni3   S    
C6    C119  S    
C93   C122  S    
C31   H71   S    
C34   H5    S    
C100  C115  S    
C60   C102  S    
N2    Ni1   S    
C2    H2    S    
Br15  C114  S    
N25   Ni8   S    
N26   Ni7   S    
C63   H34   S    
C23   H47   S    
C7    C117  S    
C74   N28   A    
C79   C85   A    
Br3   C102  S    
Br6   C105  S    
C77   C118  A    
C29   H64   S    
C26   H55   S    
C97   C121  S    
N12   Ni2   S    
C30   H68   S    
C17   O1    S    
C51   C90   A    
C11   C104  S    
N11   Ni7   S    
N19   Ni5   S    
C4    C113  S    
N32   Ni2   S    
C6    O14   S    
C54   C88   A    
C20   O11   S    
C13   C75   A    
C64   C73   S    
C12   C95   S    
C110  C127  S    
Br14  C113  S    
Br16  C115  S    
N10   Ni6   S    
C59   C78   S    
C108  C110  S    
C28   H60   S    
C70   C113  S    
Br22  C122  S    
C41   C75   A    
Br10  C110  S    
N1    Ni1   S    
N11   N19   A    
C22   H46   S    
C7    C116  S    
N18   Ni6   S    
C5    C114  S    
C18   H32   S    
C60   C81   S    
C94   C123  S    
C4    C60   S    
C15   C101  S    
C107  H78   S    
C21   H40   S    
C124  C127  S    
N27   Ni4   S    
Br2   C101  S    
C15   C71   S    
N17   N22   A    
C40   H11   S    
C67   C112  S    
C1    C73   A    
C11   C68   S    
C8    C65   S    
N15   N25   A    
C61   C103  S    
C30   H66   S    
Br20  C120  S    
C71   C83   S    
Br1   C91   S    
C17   H27   S    
C92   C125  S    
C32   O7    S    
C118  H80   S    
C27   H57   S    
C53   N24   A    
C64   C98   S    
C102  C113  S    
C25   H50   S    
C49   N20   A    
C38   N9    A    
C27   H58   S    
C28   H62   S    
Br7   C106  S    
C40   C84   A    
C69   C120  S    
C21   H42   S    
N29   Ni1   S    
N1    N4    A    
C60   C97   S    
Br30  C98   S    
N14   Ni6   S    
C22   H44   S    
C52   C76   A    
C58   C128  S    
C18   H30   S    
C21   H41   S    
C6    C115  S    
C80   C96   A    
C42   N13   A    
C71   C117  S    
C11   O4    S    
C26   H53   S    
C109  C126  S    
C16   C100  S    
C20   H37   S    
C54   N25   A    
N7    Ni4   S    
C34   N5    A    
C47   C86   A    
C2    N2    A    
C74   H45   S    
C38   C82   A    
N31   Ni3   S    
C14   C70   S    
C20   H39   S    
C33   O8    S    
C72   C119  S    
C19   H36   S    
N7    N29   A    
Br13  C112  S    
C17   H29   S    
C16   C72   S    
Br26  C125  S    
N5    Ni1   S    
C65   C86   S    
C31   O6    S    
C67   C88   S    
C59   C105  S    
C126  O1    S    
N24   Ni6   S    
N2    N23   A    
C52   N23   A    
Br18  C117  S    
C39   N10   A    
C10   C93   S    
Br24  C123  S    
Br23  C93   S    
C25   H52   S    
C40   N11   A    
C33   H77   S    
C11   C94   S    
N10   N20   A    
C71   C116  S    
C36   N7    A    
Br29  C97   S    
C69   C114  S    
C15   C98   S    
C29   O4    S    
N30   Ni4   S    
C43   C87   A    
C50   C82   A    
C19   O10   S    
Br9   C109  S    
C57   C91   S    
C107  N31   A    
C29   H65   S    
C51   H22   S    
C36   C79   A    
C85   H56   S    
C29   H63   S    
C21   O12   S    
C95   C120  S    
C58   C104  S    
C37   N8    A    
C66   C84   S    
C127  O9    S    
Br12  C92   S    
C30   H69   S    
C49   C83   A    
C98   C117  S    
C47   H18   S    
C39   C83   A    
C101  C116  S    
C72   C82   S    
C35   H6    S    
C31   H70   S    
C66   C109  S    
Br32  C100  S    
C24   C73   A    
N4    Ni4   S    
C74   C78   A    
C4    O12   S    
C8    C91   S    
N3    N12   A    
C123  C128  S    
C47   N18   A    
N16   Ni8   S    
C52   H23   S    
C64   C101  S    
N8    N28   A    
C23   H49   S    
C2    C76   A    
C30   O5    S    
C32   H73   S    
C27   H59   S    
C10   C67   S    
C96   H67   S    
C46   C90   A    
C7    C64   S    
C22   O13   S    
C36   H7    S    
C9    C66   S    
C33   H79   S    
C51   N22   A    
N9    N21   A    
C31   H72   S    
Br25  C124  S    
C3    C59   S    
