data_mof_unit_4821.cif
_audit_creation_date              2012-12-10T16:53:01-0500
_audit_creation_method            fapswitch 2.2
_symmetry_space_group_name_H-M    P1
_symmetry_Int_Tables_number       1
_space_group_crystal_system       triclinic
_cell_length_a                    7.822599
_cell_length_b                    8.580767
_cell_length_c                    11.53004
_cell_angle_alpha                 91.406578
_cell_angle_beta                  85.524884
_cell_angle_gamma                 93.096092
_cell_volume                      770.294785771

loop_
_atom_site_label
_atom_site_type_symbol
_atom_type_description
_atom_site_fract_x
_atom_site_fract_y
_atom_site_fract_z
_atom_type_partial_charge
C1    C     C_R   0.542984 0.793745 0.485846 0.840485
C2    C     C_2   0.420383 0.042328 0.469413 -0.200548
C3    C     C_2   0.698432 0.994795 0.360087 0.389342
C4    C     C_2   0.236602 0.983010 0.466405 0.384421
C5    C     C_3   0.024024 0.289221 0.326873 0.225747
C6    C     C_3   0.002518 0.269519 0.197228 -0.782476
C7    C     C_3   0.053114 0.679712 0.698994 0.215353
C8    C     C_3   0.950126 0.790323 0.778481 -0.842135
C9    C     C_R   0.453331 0.205437 0.492880 0.943392
C10   C     C_R   0.501347 0.500248 0.717816 0.897836
C11   C     C_R   0.498593 0.499462 0.282170 0.874073
C12   C     C_1   0.503261 0.499764 0.838231 -0.193796
C13   C     C_1   0.496534 0.499490 0.161783 -0.151105
C14   C     C_1   0.501599 0.499549 0.940565 -0.001481
C15   C     C_1   0.498127 0.499463 0.059456 0.003880
C16   C     C_2   0.555855 0.951677 0.446936 -0.257805
H1    H     H_    0.820967 0.941349 0.361098 0.091835
H2    H     H_    0.825444 0.731976 0.809830 0.252591
H3    H     H_    0.022983 0.825089 0.854714 0.212169
H4    H     H_    0.925324 0.896684 0.730765 0.288331
H5    H     H_    0.201938 0.893335 0.403079 0.108841
H6    H     H_    0.926472 0.214877 0.377081 0.160427
H7    H     H_    0.152131 0.249229 0.342359 0.143709
H8    H     H_    0.106810 0.337478 0.146866 0.239096
H9    H     H_    0.008813 0.144428 0.171053 0.215943
H10   H     H_    0.876914 0.311811 0.176622 0.289678
H11   H     H_    0.176354 0.742222 0.671160 0.190652
H12   H     H_    0.071714 0.574447 0.749903 0.150778
N1    N     N_2   0.950330 0.457960 0.469510 0.173030
N2    N     N_2   0.049670 0.542040 0.530490 0.154439
O1    O     O_R   0.389250 0.738570 0.507480 -0.654196
O2    O     O_2   0.123885 0.032664 0.534510 -0.590850
O3    O     O_3   0.015929 0.447744 0.358356 -0.520485
O4    O     O_3   0.959277 0.638008 0.603549 -0.513182
O5    O     O_R   0.610750 0.261430 0.492520 -0.614347
O6    O     O_R   0.678390 0.711630 0.487940 -0.563600
O7    O     O_R   0.321610 0.288370 0.512060 -0.611784
O8    O     O_R   0.355420 0.513450 0.675320 -0.669670
O9    O     O_R   0.644580 0.486550 0.324680 -0.582330
O10   O     O_R   0.644570 0.486510 0.655780 -0.571083
O11   O     O_R   0.355430 0.513490 0.344220 -0.600985
O12   O     O_2   0.675632 0.082518 0.281554 -0.601145
Zn1   Zn    Zn3+2 0.306940 0.517990 0.513050 1.002713
Zn2   Zn    Zn3+2 0.693060 0.482010 0.486950 1.074242

loop_
_geom_bond_atom_site_label_1
_geom_bond_atom_site_label_2
_ccdc_geom_bond_type
O7    Zn1   S    
C2    C4    S    
C3    O12   D    
C3    H1    S    
N1    N2    D    
O5    Zn2   S    
C2    C16   D    
O11   Zn1   S    
C5    H7    S    
O10   Zn2   S    
C10   O8    A    
C6    H8    S    
C9    O7    A    
C7    C8    S    
C1    C16   S    
C6    H10   S    
C11   O9    A    
C4    H5    S    
C11   C13   S    
C4    O2    D    
O1    Zn1   S    
C8    H4    S    
C5    H6    S    
C10   C12   S    
C12   C14   T    
C11   O11   A    
C13   C15   T    
N1    Zn2   S    
C5    C6    S    
C7    O4    S    
O8    Zn1   S    
N2    Zn1   S    
O6    Zn2   S    
C8    H3    S    
C3    C16   S    
O9    Zn2   S    
C6    H9    S    
N1    O3    S    
C1    O1    A    
C7    H11   S    
C10   O10   A    
C9    O5    A    
N2    O4    S    
C14   C15   S    
C2    C9    S    
C8    H2    S    
C7    H12   S    
C1    O6    A    
C5    O3    S    
