data_mof_unit_662.cif
_audit_creation_date              2012-12-10T17:59:19-0500
_audit_creation_method            fapswitch 2.2
_symmetry_space_group_name_H-M    P1
_symmetry_Int_Tables_number       1
_space_group_crystal_system       triclinic
_cell_length_a                    10.910992
_cell_length_b                    9.678561
_cell_length_c                    11.090198
_cell_angle_alpha                 90.180516
_cell_angle_beta                  95.290543
_cell_angle_gamma                 88.511196
_cell_volume                      1165.77166165

loop_
_atom_site_label
_atom_site_type_symbol
_atom_type_description
_atom_site_fract_x
_atom_site_fract_y
_atom_site_fract_z
_atom_type_partial_charge
C1    C     C_R   0.262822 0.501417 0.507174 0.794211
C2    C     C_3   0.636419 0.488789 0.940513 0.123669
C3    C     C_R   0.066685 0.375970 0.531022 -0.046996
C4    C     C_R   0.057290 0.629147 0.512399 -0.003962
C5    C     C_R   0.938651 0.375845 0.515219 -0.120000
C6    C     C_R   0.929709 0.623763 0.502934 -0.103342
C7    C     C_R   0.870433 0.498545 0.503040 -0.114098
C8    C     C_R   0.128683 0.503129 0.519996 -0.164113
C9    C     C_R   0.410835 0.075615 0.431819 0.263406
C10   C     C_R   0.414090 0.928522 0.427757 0.315998
C11   C     C_R   0.584653 0.923683 0.574393 0.094908
C12   C     C_R   0.591245 0.070865 0.564847 0.038923
C13   C     C_R   0.499840 0.500685 0.260503 0.887403
C14   C     C_R   0.737012 0.498830 0.500013 0.846392
C15   C     C_R   0.497484 0.499945 0.739650 0.773812
C16   C     C_3   0.417661 0.636538 0.066944 -0.028198
C17   C     C_3   0.435719 0.360730 0.067004 0.051765
C18   C     C_3   0.427131 0.642136 0.922032 -0.170044
C19   C     C_3   0.418508 0.367652 0.920437 -0.084463
C20   C     C_3   0.640395 0.508995 0.085823 -0.154746
C21   C     C_3   0.499983 0.502631 0.122559 -0.041091
C22   C     C_3   0.494812 0.499345 0.878445 -0.122052
Cu1   Cu    Cu3+1 0.500020 0.640660 0.500000 1.012922
Cu2   Cu    Cu3+1 0.500020 0.359340 0.500000 0.944355
H1    H     H_    0.891626 0.279600 0.517350 0.233925
H2    H     H_    0.875745 0.719561 0.497993 0.216115
N1    N     N_R   0.500030 0.852070 0.500030 -0.236325
N2    N     N_R   0.500030 0.147930 0.500030 -0.256676
O1    O     O_R   0.319660 0.618740 0.499990 -0.604262
O2    O     O_R   0.319660 0.381260 0.499990 -0.616563
O3    O     O_R   0.499990 0.618790 0.317690 -0.513359
O4    O     O_R   0.499990 0.381210 0.317690 -0.613003
O5    O     O_R   0.680370 0.618830 0.500010 -0.603623
O6    O     O_R   0.680370 0.381170 0.500010 -0.586506
O7    O     O_R   0.500030 0.618780 0.682310 -0.541697
O8    O     O_R   0.500030 0.381220 0.682310 -0.668059
C23   C     C_2   0.444900 0.784898 0.116595 0.373088
H3    H     H_    0.382026 0.868016 0.083046 0.098727
O9    O     O_2   0.531088 0.817855 0.187204 -0.481917
C24   C     C_2   0.509371 0.229064 0.114645 0.491107
H4    H     H_    0.481026 0.174314 0.192004 0.091436
O10   O     O_2   0.598433 0.180531 0.068809 -0.495501
C25   C     C_2   0.665168 0.850451 0.671343 0.497629
H5    H     H_    0.686190 0.742961 0.667540 0.091163
O11   O     O_2   0.705531 0.910225 0.763170 -0.534910
C26   C     C_2   0.701877 0.138597 0.619500 0.493531
H6    H     H_    0.694193 0.236161 0.662527 0.061240
O12   O     O_2   0.803974 0.084978 0.615082 -0.504104
N3    N     N_3   0.289641 0.616466 0.099094 -0.619456
H7    H     H_    0.235903 0.559501 0.035920 0.278760
H8    H     H_    0.238517 0.708063 0.109837 0.201646
N4    N     N_3   0.312776 0.344450 0.110327 -0.559653
H9    H     H_    0.302933 0.381956 0.196831 0.214797
H10   H     H_    0.282832 0.242551 0.103007 0.249365
C27   C     C_2   0.298110 0.674452 0.857229 0.409280
H11   H     H_    0.231607 0.736582 0.901929 0.094968
O13   O     O_2   0.272565 0.650377 0.750294 -0.585519
C28   C     C_2   0.285408 0.382129 0.859830 0.435477
H12   H     H_    0.272925 0.405432 0.764239 0.067617
O14   O     O_2   0.193091 0.353792 0.907960 -0.524743
C29   C     C_2   0.499971 0.769342 0.887860 0.441632
H13   H     H_    0.588817 0.789960 0.932370 0.129364
O15   O     O_2   0.456274 0.857044 0.815841 -0.486017
C30   C     C_2   0.452029 0.225015 0.868060 0.442244
H14   H     H_    0.533962 0.203597 0.823499 0.140391
O16   O     O_2   0.386970 0.126123 0.881583 -0.507552
C31   C     C_2   0.701972 0.643156 0.129937 0.359834
H15   H     H_    0.722865 0.724788 0.069981 0.134700
O17   O     O_2   0.733108 0.661925 0.237548 -0.482288
C32   C     C_2   0.734067 0.405297 0.151499 0.513447
H16   H     H_    0.827060 0.398400 0.124285 0.066325
O18   O     O_2   0.714932 0.341688 0.242209 -0.507785
N5    N     N_3   0.713077 0.591928 0.886793 -0.639118
H17   H     H_    0.722302 0.567955 0.796215 0.203428
H18   H     H_    0.803212 0.584148 0.928042 0.214537
N6    N     N_3   0.690397 0.352408 0.912947 -0.539109
H19   H     H_    0.688996 0.344265 0.820102 0.190178
H20   H     H_    0.785005 0.348065 0.937931 0.227654
C33   C     C_2   0.129728 0.242435 0.567799 0.493755
H21   H     H_    0.216392 0.238936 0.623688 0.090774
O19   O     O_2   0.082840 0.132813 0.538882 -0.451784
C34   C     C_2   0.108115 0.769926 0.519818 0.400306
H22   H     H_    0.194626 0.791613 0.570858 0.168654
O20   O     O_2   0.049701 0.866977 0.470920 -0.476839
N7    N     N_3   0.310129 0.146528 0.363894 -0.544746
H23   H     H_    0.339707 0.241479 0.340776 0.248357
H24   H     H_    0.293330 0.100291 0.279003 0.197322
N8    N     N_3   0.326235 0.864117 0.342554 -0.601993
H25   H     H_    0.334631 0.758148 0.341447 0.279614
H26   H     H_    0.238008 0.889562 0.365040 0.246063

loop_
_geom_bond_atom_site_label_1
_geom_bond_atom_site_label_2
_ccdc_geom_bond_type
C10   N1    A    
C27   H11   S    
C16   C21   S    
C1    C8    S    
N5    H17   S    
C13   O4    A    
C4    C8    A    
C3    C33   S    
C14   O5    A    
N7    H23   S    
C10   N8    S    
Cu2   O8    S    
C12   N2    A    
Cu1   O1    S    
N6    H20   S    
C28   O14   D    
C29   O15   D    
C20   C31   S    
C9    N7    S    
C15   C22   S    
N3    H8    S    
C2    C22   S    
Cu1   Cu2   S    
C11   C25   S    
C32   H16   S    
Cu1   N1    S    
C7    C14   S    
C9    C10   A    
C16   C23   S    
C24   O10   D    
N5    H18   S    
C20   C32   S    
C17   N4    S    
C15   O7    A    
N4    H10   S    
Cu2   O2    S    
N7    H24   S    
C19   C28   S    
C26   O12   D    
C2    C20   S    
C31   H15   S    
C19   C22   S    
N6    H19   S    
C12   C26   S    
C3    C8    A    
C5    C7    A    
Cu1   O5    S    
C28   H12   S    
Cu2   O6    S    
C31   O17   D    
C17   C24   S    
Cu1   O3    S    
C25   H5    S    
Cu2   O4    S    
C23   H3    S    
C11   N1    A    
C19   C30   S    
C20   C21   S    
C1    O1    A    
C13   C21   S    
C16   N3    S    
C25   O11   D    
C2    N5    S    
C18   C27   S    
C5    H1    S    
C4    C6    A    
C24   H4    S    
N8    H26   S    
N3    H7    S    
Cu1   O7    S    
C27   O13   D    
C15   O8    A    
C2    N6    S    
N4    H9    S    
C33   O19   D    
C26   H6    S    
C18   C22   S    
C13   O3    A    
Cu2   N2    S    
C3    C5    A    
C14   O6    A    
C11   C12   A    
C18   C29   S    
C6    C7    A    
C34   O20   D    
C30   H14   S    
C23   O9    D    
C6    H2    S    
C1    O2    A    
C17   C19   S    
C29   H13   S    
C17   C21   S    
C33   H21   S    
C4    C34   S    
N8    H25   S    
C16   C18   S    
C34   H22   S    
C32   O18   D    
C9    N2    A    
C30   O16   D    
