data_mof_unit_648.cif
_audit_creation_date              2012-12-10T18:00:19-0500
_audit_creation_method            fapswitch 2.2
_symmetry_space_group_name_H-M    P1
_symmetry_Int_Tables_number       1
_space_group_crystal_system       triclinic
_cell_length_a                    10.77745
_cell_length_b                    9.537656
_cell_length_c                    10.622131
_cell_angle_alpha                 89.832227
_cell_angle_beta                  90.154719
_cell_angle_gamma                 90.023033
_cell_volume                      1091.85720744

loop_
_atom_site_label
_atom_site_type_symbol
_atom_type_description
_atom_site_fract_x
_atom_site_fract_y
_atom_site_fract_z
_atom_type_partial_charge
C1    C     C_R   0.871470 0.500025 0.499968 -0.217715
C2    C     C_R   0.128679 0.499941 0.500028 -0.207554
C3    C     C_R   0.262701 0.499977 0.500040 0.746396
C4    C     C_R   0.737337 0.500019 0.499962 0.746715
C5    C     C_R   0.499821 0.500260 0.259240 0.769181
C6    C     C_R   0.500000 0.499740 0.740759 0.768318
C7    C     C_3   0.499956 0.633394 0.040296 -0.141996
C8    C     C_3   0.500119 0.366609 0.959703 -0.142386
C9    C     C_3   0.601987 0.566318 0.958131 -0.147008
C10   C     C_3   0.398080 0.433682 0.041857 -0.134819
C11   C     C_3   0.398050 0.566101 0.957517 -0.129637
C12   C     C_3   0.602021 0.433910 0.042490 -0.141220
C13   C     C_3   0.500067 0.499137 0.877628 -0.014827
C14   C     C_3   0.499969 0.500866 0.122370 -0.014844
C15   C     C_R   0.424092 0.074560 0.420546 -0.004819
C16   C     C_R   0.575922 0.925441 0.579443 0.000438
C17   C     C_R   0.575917 0.074148 0.579455 -0.009056
C18   C     C_R   0.424103 0.925855 0.420530 -0.007899
C19   C     C_R   0.065490 0.462269 0.611345 -0.014966
C20   C     C_R   0.934676 0.544915 0.390873 -0.025708
C21   C     C_R   0.935135 0.454975 0.609047 -0.023178
C22   C     C_R   0.065016 0.537613 0.388675 -0.018205
Cu1   Cu    Cu3+1 0.500000 0.640660 0.500000 0.952805
Cu2   Cu    Cu3+1 0.500000 0.359340 0.500000 0.951142
H1    H     H_    0.363211 0.130648 0.356846 0.129586
H2    H     H_    0.636812 0.869355 0.643133 0.129816
H3    H     H_    0.636798 0.129912 0.643150 0.137531
H4    H     H_    0.363245 0.870095 0.356817 0.121940
H5    H     H_    0.499853 0.742697 0.075966 0.152091
H6    H     H_    0.500221 0.257306 0.924033 0.151420
H7    H     H_    0.685395 0.620505 0.920816 0.153557
H8    H     H_    0.314831 0.379241 0.079177 0.176475
N1    N     N_R   0.500000 0.852070 0.500000 -0.163039
N2    N     N_R   0.500000 0.147930 0.500000 -0.165491
O1    O     O_R   0.319640 0.618740 0.499990 -0.578375
O2    O     O_R   0.680360 0.381260 0.500010 -0.573480
O3    O     O_R   0.680360 0.618740 0.500010 -0.574944
O4    O     O_R   0.319640 0.381260 0.499990 -0.580716
O5    O     O_R   0.499970 0.618770 0.316850 -0.590010
O6    O     O_R   0.500030 0.381230 0.683150 -0.592133
O7    O     O_R   0.500030 0.618770 0.683150 -0.581315
O8    O     O_R   0.499970 0.381230 0.316850 -0.580434
H9    H     H_    0.314789 0.620415 0.919723 0.179546
H10   H     H_    0.685466 0.379882 0.080268 0.156918
C23   C     C_2   0.136992 0.438059 0.730112 0.421784
H11   H     H_    0.228479 0.390983 0.727549 0.061060
O9    O     O_2   0.096628 0.476271 0.831686 -0.493800
C24   C     C_2   0.862756 0.599625 0.280985 0.492686
H12   H     H_    0.772619 0.555865 0.258129 0.023787
O10   O     O_2   0.901073 0.698043 0.218414 -0.506675
C25   C     C_2   0.863660 0.399978 0.718764 0.474003
H13   H     H_    0.773766 0.443881 0.741811 0.020396
O11   O     O_2   0.902032 0.301133 0.780920 -0.511281
C26   C     C_2   0.136030 0.561870 0.269991 0.413220
H14   H     H_    0.227312 0.609590 0.272616 0.050090
O12   O     O_2   0.095509 0.522983 0.168458 -0.493371

loop_
_geom_bond_atom_site_label_1
_geom_bond_atom_site_label_2
_ccdc_geom_bond_type
C2    C22   A    
C15   C18   A    
Cu2   O4    S    
C5    O8    A    
C19   C23   S    
C1    C21   A    
C8    C13   S    
C7    H5    S    
C16   N1    A    
Cu2   O8    S    
C15   N2    A    
C17   N2    A    
Cu1   O7    S    
C3    O1    A    
C8    C12   S    
C1    C4    S    
C8    H6    S    
C24   O10   D    
C2    C3    S    
C20   C22   A    
C22   C26   S    
C20   C24   S    
C23   H11   S    
C4    O3    A    
C6    C13   S    
C11   H9    S    
C11   C13   S    
C5    C14   S    
Cu2   O2    S    
Cu1   O5    S    
C24   H12   S    
Cu2   O6    S    
C12   C14   S    
C7    C11   S    
Cu1   O1    S    
C5    O5    A    
C16   H2    S    
C18   N1    A    
C26   O12   D    
C15   H1    S    
C9    C12   S    
C9    H7    S    
Cu1   Cu2   S    
C25   H13   S    
C17   H3    S    
C10   H8    S    
C21   C25   S    
C6    O6    A    
C18   H4    S    
C4    O2    A    
C8    C10   S    
C10   C11   S    
C23   O9    D    
C7    C9    S    
C9    C13   S    
C26   H14   S    
C12   H10   S    
C1    C20   A    
C19   C21   A    
C2    C19   A    
Cu1   O3    S    
C7    C14   S    
Cu2   N2    S    
C25   O11   D    
C3    O4    A    
C10   C14   S    
C16   C17   A    
Cu1   N1    S    
C6    O7    A    
