data_mof_unit_3306.cif
_audit_creation_date              2012-12-10T18:49:01-0500
_audit_creation_method            fapswitch 2.2
_symmetry_space_group_name_H-M    P1
_symmetry_Int_Tables_number       1
_space_group_crystal_system       triclinic
_cell_length_a                    10.664353
_cell_length_b                    9.850548
_cell_length_c                    14.157803
_cell_angle_alpha                 90.049715
_cell_angle_beta                  90.239717
_cell_angle_gamma                 90.235218
_cell_volume                      1487.24712452

loop_
_atom_site_label
_atom_site_type_symbol
_atom_type_description
_atom_site_fract_x
_atom_site_fract_y
_atom_site_fract_z
_atom_type_partial_charge
C1    C     C_R   0.260459 0.499700 0.499596 0.823130
C2    C     C_1   0.499960 0.500018 0.957390 0.036242
C3    C     C_R   0.065833 0.439713 0.576387 -0.040894
C4    C     C_R   0.934167 0.560288 0.423613 -0.040893
C5    C     C_R   0.935178 0.441793 0.578236 -0.046769
C6    C     C_R   0.064822 0.558207 0.421764 -0.046767
C7    C     C_R   0.872270 0.501157 0.501046 -0.202179
C8    C     C_R   0.127730 0.498843 0.498954 -0.202180
C9    C     C_R   0.584390 0.072363 0.553593 -0.038649
C10   C     C_R   0.415610 0.927637 0.446406 -0.038649
C11   C     C_R   0.415604 0.071461 0.446419 -0.031877
C12   C     C_R   0.739540 0.500300 0.500404 0.823129
C13   C     C_R   0.584396 0.928539 0.553581 -0.031877
C14   C     C_2   0.140138 0.385872 0.657050 0.543791
C15   C     C_2   0.859863 0.614127 0.342950 0.543778
C16   C     C_2   0.862390 0.393413 0.662118 0.433891
C17   C     C_2   0.137609 0.606589 0.337884 0.433896
C18   C     C_R   0.500208 0.499956 0.329103 0.862761
C19   C     C_R   0.499792 0.500044 0.670897 0.862760
C20   C     C_1   0.500185 0.499906 0.227673 -0.186952
C21   C     C_1   0.499815 0.500094 0.772326 -0.186952
C22   C     C_1   0.500129 0.499937 0.142459 0.019316
C23   C     C_1   0.499871 0.500063 0.857541 0.019317
C24   C     C_1   0.500040 0.499982 0.042610 0.036242
H1    H     H_    0.651866 0.127154 0.596491 0.152832
H2    H     H_    0.348134 0.872846 0.403509 0.152835
H3    H     H_    0.348123 0.125531 0.403538 0.141759
H4    H     H_    0.651876 0.874469 0.596462 0.141759
H5    H     H_    0.200663 0.453656 0.697160 0.004548
H6    H     H_    0.799337 0.546343 0.302841 0.004550
H7    H     H_    0.772747 0.439051 0.678653 0.034392
H8    H     H_    0.227248 0.560944 0.321344 0.034388
N1    N     N_R   0.500000 0.857200 0.500000 -0.083801
N2    N     N_R   0.500000 0.142800 0.500000 -0.083801
O1    O     O_R   0.316770 0.614620 0.499990 -0.610082
O2    O     O_2   0.859650 0.735383 0.325269 -0.491073
O3    O     O_2   0.898997 0.300833 0.712140 -0.512118
O4    O     O_2   0.101008 0.699177 0.287866 -0.512115
O5    O     O_R   0.683230 0.385380 0.500010 -0.610084
O6    O     O_R   0.683230 0.614620 0.500010 -0.597770
O7    O     O_R   0.316770 0.385380 0.499990 -0.597770
O8    O     O_R   0.500000 0.614690 0.373720 -0.589458
O9    O     O_R   0.500000 0.385310 0.626280 -0.589459
O10   O     O_R   0.500000 0.614690 0.626280 -0.597137
O11   O     O_R   0.500000 0.385310 0.373720 -0.597137
O12   O     O_2   0.140352 0.264616 0.674730 -0.491076
Zn1   Zn    Zn3+2 0.500000 0.653120 0.500000 0.976100
Zn2   Zn    Zn3+2 0.500000 0.346880 0.500000 0.976099

loop_
_geom_bond_atom_site_label_1
_geom_bond_atom_site_label_2
_ccdc_geom_bond_type
C12   O6    A    
O6    Zn1   S    
C13   H4    S    
C13   N1    A    
C1    C8    S    
O9    Zn2   S    
O10   Zn1   S    
C11   H3    S    
C16   O3    D    
C17   O4    D    
O1    Zn1   S    
C10   H2    S    
C4    C15   S    
C18   O8    A    
C9    H1    S    
C14   O12   D    
C16   H7    S    
C7    C12   S    
C3    C14   S    
C12   O5    A    
C4    C7    A    
C1    O7    A    
C19   C21   S    
O7    Zn2   S    
C19   O9    A    
C10   N1    A    
C18   C20   S    
O8    Zn1   S    
C21   C23   T    
C2    C24   T    
C9    N2    A    
N1    Zn1   S    
C22   C24   S    
N2    Zn2   S    
C10   C11   A    
C14   H5    S    
C6    C17   S    
C18   O11   A    
C15   O2    D    
C19   O10   A    
C1    O1    A    
C15   H6    S    
C4    C6    A    
C3    C8    A    
O11   Zn2   S    
C2    C23   S    
C5    C7    A    
C17   H8    S    
C9    C13   A    
C5    C16   S    
C6    C8    A    
C11   N2    A    
C20   C22   T    
O5    Zn2   S    
C3    C5    A    
