data_mof_unit_1880.cif
_audit_creation_date              2012-12-10T17:38:16-0500
_audit_creation_method            fapswitch 2.2
_symmetry_space_group_name_H-M    P1
_symmetry_Int_Tables_number       1
_space_group_crystal_system       triclinic
_cell_length_a                    12.36917
_cell_length_b                    13.241251
_cell_length_c                    19.302314
_cell_angle_alpha                 76.768768
_cell_angle_beta                  101.093174
_cell_angle_gamma                 116.96856
_cell_volume                      2728.47462419

loop_
_atom_site_label
_atom_site_type_symbol
_atom_type_description
_atom_site_fract_x
_atom_site_fract_y
_atom_site_fract_z
_atom_type_partial_charge
C1    C     C_R   0.854928 0.287051 0.504420 0.785724
C2    C     C_R   0.002624 0.505565 0.707681 -0.102518
C3    C     C_R   0.996807 0.507445 0.067819 0.425275
C4    C     C_R   0.005711 0.515730 0.927513 0.510041
C5    C     C_R   0.061916 0.455623 0.195754 -0.197324
C6    C     C_R   0.063489 0.453776 0.268314 -0.165182
C7    C     C_R   0.998099 0.500834 0.291126 -0.108618
C8    C     C_R   0.928539 0.547621 0.240191 -0.257195
C9    C     C_R   0.924082 0.547621 0.167290 0.462117
C10   C     C_R   0.993919 0.503843 0.144390 -0.050263
C11   C     C_R   0.267732 0.030599 0.426238 0.486295
C12   C     C_R   0.000180 0.500575 0.632215 0.818400
C13   C     C_R   0.228522 0.835611 0.480673 -0.215887
C14   C     C_R   0.817689 0.082320 0.529903 -0.183207
C15   C     C_R   0.740875 0.966348 0.532055 -0.189689
C16   C     C_R   0.616706 0.930961 0.511510 -0.115150
C17   C     C_R   0.566576 0.011774 0.487731 0.123887
C18   C     C_R   0.648210 0.128730 0.472994 0.063031
C19   C     C_R   0.438779 0.980167 0.475239 -0.088681
C20   C     C_R   0.395167 0.062156 0.435459 -0.075998
C21   C     C_R   0.480330 0.172738 0.407510 -0.031222
C22   C     C_R   0.604424 0.204435 0.427265 -0.257543
C23   C     C_R   0.145210 0.713335 0.491341 0.877817
C24   C     C_R   0.352829 0.871005 0.504390 0.410185
C25   C     C_R   0.186339 0.916222 0.443745 -0.351626
C26   C     C_R   0.772790 0.165011 0.501120 -0.092244
C27   C     C_R   0.350057 0.338102 0.621447 -0.259132
C28   C     C_R   0.767597 0.655041 0.409151 0.101773
C29   C     C_R   0.684973 0.702250 0.399274 -0.239041
C30   C     C_R   0.584575 0.648811 0.438447 -0.154880
C31   C     C_R   0.560426 0.542843 0.484523 0.035937
C32   C     C_R   0.654668 0.505869 0.498887 0.301125
C33   C     C_R   0.451315 0.477746 0.520672 -0.088965
C34   C     C_R   0.999907 0.500166 0.367589 0.812692
C35   C     C_R   0.449034 0.390267 0.579617 0.058367
C36   C     C_R   0.546160 0.357803 0.595773 -0.093695
C37   C     C_R   0.646097 0.415540 0.555653 -0.262367
C38   C     C_R   0.341603 0.492037 0.498527 0.152856
C39   C     C_R   0.251210 0.365315 0.601997 0.018842
C40   C     C_R   0.107461 0.517678 0.754643 -0.236792
C41   C     C_R   0.113101 0.526491 0.826160 -0.066829
C42   C     C_R   0.008761 0.518932 0.851414 -0.105983
C43   C     C_R   0.903418 0.509457 0.804044 0.468720
C44   C     C_R   0.901309 0.501378 0.732368 -0.249291
Cu1   Cu    Cu3+1 0.098280 0.475420 0.516260 0.966423
Cu2   Cu    Cu3+1 0.901720 0.524580 0.483740 0.931018
H1    H     H_    0.186658 0.523574 0.734847 0.193336
H2    H     H_    0.912714 0.107172 0.550069 0.156691
H3    H     H_    0.562866 0.840180 0.511618 0.191943
H4    H     H_    0.777265 0.903252 0.551085 0.146041
H5    H     H_    0.666856 0.286766 0.401534 0.188192
H6    H     H_    0.176296 0.325747 0.634883 0.148583
H7    H     H_    0.348856 0.277904 0.670042 0.185273
H8    H     H_    0.847529 0.698110 0.380222 0.126757
H9    H     H_    0.530606 0.695086 0.434373 0.158671
H10   H     H_    0.700708 0.782110 0.363061 0.153975
H11   H     H_    0.716814 0.387799 0.571464 0.225592
H12   H     H_    0.819696 0.488924 0.695987 0.164190
H13   H     H_    0.115190 0.420142 0.179892 0.187015
H14   H     H_    0.115234 0.414841 0.306441 0.194526
H15   H     H_    0.877044 0.584457 0.256595 0.172341
H16   H     H_    0.089568 0.891559 0.429600 0.191772
N1    N     N_R   0.036343 0.440631 0.978002 -0.202634
N2    N     N_R   0.032334 0.436851 0.046929 -0.231868
N3    N     N_R   0.965877 0.582229 0.017047 -0.163209
N4    N     N_R   0.969884 0.586145 0.948119 -0.191748
N5    N     N_R   0.246290 0.438200 0.540910 -0.226038
N6    N     N_R   0.754310 0.561190 0.459520 -0.201745
O1    O     O_R   0.972510 0.318130 0.520450 -0.596250
O2    O     O_R   0.806530 0.359650 0.492990 -0.598739
O3    O     O_R   0.083010 0.479220 0.613590 -0.586852
O4    O     O_R   0.917030 0.520740 0.586130 -0.605077
O5    O     O_R   0.193470 0.640350 0.507010 -0.485238
O6    O     O_R   0.027490 0.681870 0.479550 -0.612212
O7    O     O_R   0.082970 0.479260 0.413870 -0.576190
O8    O     O_R   0.916990 0.520780 0.386410 -0.591534
C45   C     C_2   0.445448 0.256170 0.354381 0.908146
O9    O     O_2   0.491897 0.357150 0.361697 -0.587978
O10   O     O_R   0.363612 0.220344 0.294392 -0.711154
H17   H     H_    0.347834 0.285263 0.261942 0.341608
O11   O     O_3   0.220138 0.109718 0.399767 -0.551228
C46   C     C_3   0.202434 0.146288 0.458210 0.053245
H18   H     H_    0.291907 0.203996 0.483352 0.174536
H19   H     H_    0.153639 0.072772 0.499560 0.136836
C47   C     C_3   0.125182 0.212166 0.431299 -0.734272
H20   H     H_    0.034210 0.155521 0.407473 0.237398
H21   H     H_    0.112879 0.243785 0.476285 0.217511
H22   H     H_    0.171139 0.286086 0.390199 0.273932
O12   O     O_3   0.388927 0.798551 0.556860 -0.578228
C48   C     C_3   0.376561 0.813502 0.624516 0.063774
H23   H     H_    0.278962 0.785769 0.630831 0.130933
H24   H     H_    0.430315 0.904813 0.632417 0.156812
C49   C     C_3   0.424350 0.739821 0.682200 -0.753192
H25   H     H_    0.523170 0.769060 0.679342 0.240123
H26   H     H_    0.410818 0.746834 0.735838 0.213124
H27   H     H_    0.374838 0.648553 0.674492 0.256555
C50   C     C_2   0.543237 0.257932 0.650877 0.834041
O13   O     O_2   0.634585 0.265010 0.691452 -0.599590
O14   O     O_R   0.438122 0.154052 0.653986 -0.788955
H28   H     H_    0.448360 0.091934 0.692707 0.331802
C51   C     C_2   0.231091 0.548446 0.871435 0.865060
O15   O     O_2   0.259690 0.601084 0.921439 -0.580342
O16   O     O_R   0.312139 0.512459 0.854980 -0.773210
H29   H     H_    0.390082 0.533830 0.888687 0.334173
C52   C     C_2   0.321880 0.545217 0.423911 0.853889
O17   O     O_2   0.324685 0.502275 0.374947 -0.608897
O18   O     O_R   0.311192 0.648813 0.408849 -0.746789
H30   H     H_    0.301515 0.677121 0.355606 0.324165
O19   O     O_3   0.800651 0.496058 0.831682 -0.562979
C53   C     C_3   0.737731 0.555451 0.784779 0.075182
H31   H     H_    0.674394 0.501740 0.744523 0.160653
H32   H     H_    0.801313 0.639961 0.757167 0.128783
C54   C     C_3   0.661950 0.578012 0.827553 -0.741263
H33   H     H_    0.722574 0.633375 0.867544 0.251376
H34   H     H_    0.609758 0.622207 0.791087 0.202984
H35   H     H_    0.596833 0.495672 0.855729 0.258955
O20   O     O_3   0.854626 0.594477 0.118687 -0.562699
C55   C     C_3   0.733046 0.509811 0.113144 0.060501
H36   H     H_    0.692342 0.487276 0.164386 0.149946
H37   H     H_    0.727774 0.430746 0.098620 0.146310
C56   C     C_3   0.657964 0.556321 0.054662 -0.700186
H38   H     H_    0.695734 0.578289 0.002681 0.253642
H39   H     H_    0.562024 0.490489 0.049805 0.203491
H40   H     H_    0.659715 0.634465 0.067822 0.254704

loop_
_geom_bond_atom_site_label_1
_geom_bond_atom_site_label_2
_ccdc_geom_bond_type
C40   H1    S    
C49   H25   S    
Cu1   O3    S    
C9    O20   S    
C41   C42   A    
C44   H12   S    
C19   C20   A    
C18   C26   A    
C2    C12   S    
C24   O12   S    
Cu2   O8    S    
C50   O13   D    
C7    C8    A    
C45   O9    D    
C11   O11   S    
C52   O18   S    
C4    N1    A    
C51   O15   D    
C28   C29   A    
C28   N6    A    
C47   H20   S    
C5    C6    A    
C11   C25   A    
C15   C16   A    
C13   C23   S    
Cu1   O5    S    
C15   H4    S    
C55   H36   S    
C56   H40   S    
C17   C19   A    
C53   H31   S    
C35   C36   A    
C2    C44   A    
C8    C9    A    
Cu1   N5    S    
O18   H30   S    
C31   C33   A    
C36   C50   S    
C9    C10   A    
Cu2   O4    S    
C8    H15   S    
C32   N6    A    
C54   H35   S    
C47   H21   S    
C39   H6    S    
C12   O4    A    
C49   H26   S    
C21   C22   A    
C13   C25   A    
C3    N3    A    
C23   O5    A    
C50   O14   S    
O11   C46   S    
C53   H32   S    
C45   O10   S    
C11   C20   A    
Cu2   O2    S    
C5    H13   S    
Cu1   O1    S    
C6    H14   S    
C16   H3    S    
C27   C39   A    
C28   H8    S    
C16   C17   A    
C14   H2    S    
C27   C35   A    
Cu1   Cu2   S    
C1    O1    A    
O10   H17   S    
C13   C24   A    
C55   C56   S    
C43   C44   A    
Cu2   N6    S    
C29   C30   A    
C48   H24   S    
O14   H28   S    
C20   C21   A    
C17   C18   A    
C32   C37   A    
C14   C26   A    
C53   C54   S    
C56   H38   S    
C40   C41   A    
C12   O3    A    
C46   H18   S    
C49   H27   S    
C46   H19   S    
C1    C26   S    
C7    C34   S    
C42   C43   A    
C23   O6    A    
Cu2   O6    S    
C48   C49   S    
C54   H33   S    
C30   H9    S    
C47   H22   S    
C36   C37   A    
C18   C22   A    
C39   N5    A    
C31   C32   A    
C1    O2    A    
C27   H7    S    
C6    C7    A    
C29   H10   S    
C46   C47   S    
C52   O17   D    
C34   O7    A    
C33   C38   A    
Cu1   O7    S    
C38   C52   S    
C19   C24   A    
C5    C10   A    
C3    C10   S    
O20   C55   S    
C4    N4    A    
C48   H23   S    
C30   C31   A    
C4    C42   S    
C33   C35   A    
C41   C51   S    
C25   H16   S    
C3    N2    A    
C55   H37   S    
C56   H39   S    
N1    N2    A    
C2    C40   A    
C38   N5    A    
C51   O16   S    
N3    N4    A    
C21   C45   S    
O16   H29   S    
C14   C15   A    
C43   O19   S    
O12   C48   S    
O19   C53   S    
C37   H11   S    
C34   O8    A    
C22   H5    S    
C54   H34   S    
