data_mof_unit_2880.cif
_audit_creation_date              2012-12-10T16:48:46-0500
_audit_creation_method            fapswitch 2.2
_symmetry_space_group_name_H-M    P1
_symmetry_Int_Tables_number       1
_space_group_crystal_system       triclinic
_cell_length_a                    17.189787
_cell_length_b                    8.684954
_cell_length_c                    7.487321
_cell_angle_alpha                 103.263923
_cell_angle_beta                  90.079752
_cell_angle_gamma                 93.663064
_cell_volume                      1085.61098612

loop_
_atom_site_label
_atom_site_type_symbol
_atom_type_description
_atom_site_fract_x
_atom_site_fract_y
_atom_site_fract_z
_atom_type_partial_charge
C1    C     C_R   0.497142 0.199771 0.453582 0.849951
C2    C     C_R   0.502858 0.800229 0.546418 0.849951
C3    C     C_2   0.493901 0.031463 0.428565 -0.370027
C4    C     C_2   0.506099 0.968536 0.571435 -0.370027
C5    C     C_R   0.351078 0.497495 0.525610 0.791447
C6    C     C_R   0.648922 0.502505 0.474389 0.791447
C7    C     C_R   0.266499 0.484296 0.541206 -0.061218
C8    C     C_R   0.733501 0.515702 0.458794 -0.061217
C9    C     C_R   0.221382 0.398040 0.391008 -0.309843
C10   C     C_R   0.778618 0.601957 0.608993 -0.309845
C11   C     C_R   0.139599 0.390461 0.397568 0.479848
C12   C     C_R   0.860401 0.609534 0.602433 0.479849
C13   C     C_R   0.104371 0.470423 0.559313 0.070666
C14   C     C_R   0.895629 0.529572 0.440687 0.070668
C15   C     C_R   0.149678 0.547893 0.713062 -0.249491
C16   C     C_R   0.850322 0.452105 0.286938 -0.249492
C17   C     C_R   0.230530 0.554969 0.704239 -0.192724
C18   C     C_R   0.769470 0.445030 0.295760 -0.192726
C19   C     C_2   0.019861 0.481016 0.568091 -0.115844
C20   C     C_2   0.980139 0.518978 0.431909 -0.115845
Cu1   Cu    Cu3+1 0.508700 0.517250 0.683000 1.010437
Cu2   Cu    Cu3+1 0.491300 0.482750 0.317000 1.010436
H1    H     H_    0.250278 0.335025 0.270687 0.136106
H2    H     H_    0.749722 0.664971 0.729314 0.136105
H3    H     H_    0.735218 0.380738 0.177378 0.170043
H4    H     H_    0.264782 0.619262 0.822621 0.170042
H5    H     H_    0.009322 0.534129 0.307915 0.156776
H6    H     H_    0.990678 0.465865 0.692085 0.156778
H7    H     H_    0.122283 0.607568 0.837900 0.157482
H8    H     H_    0.877716 0.392429 0.162099 0.157481
H9    H     H_    0.480647 0.959075 0.291953 0.167174
H10   H     H_    0.519353 0.040925 0.708047 0.167174
N1    N     N_2   0.478180 0.456750 0.041980 0.125763
N2    N     N_2   0.521820 0.543250 0.958020 0.125763
O1    O     O_R   0.505650 0.286040 0.618880 -0.558249
O2    O     O_R   0.494350 0.713960 0.381120 -0.558250
O3    O     O_R   0.490960 0.256910 0.309800 -0.634977
O4    O     O_R   0.509040 0.743090 0.690200 -0.634976
O5    O     O_R   0.394600 0.516230 0.672450 -0.535699
O6    O     O_R   0.605400 0.483770 0.327550 -0.535700
O7    O     O_R   0.379910 0.487100 0.363380 -0.595043
O8    O     O_R   0.620090 0.512900 0.636620 -0.595042
O9    O     O_3   0.907819 0.704306 0.741529 -0.588507
C21   C     C_3   0.880127 0.702631 0.918777 0.035182
H11   H     H_    0.855799 0.582619 0.928186 0.139984
H12   H     H_    0.835207 0.790369 0.957000 0.159935
C22   C     C_3   0.947384 0.751210 0.056527 -0.774682
H13   H     H_    0.974047 0.869459 0.049275 0.263245
H14   H     H_    0.925721 0.757661 0.197475 0.215576
H15   H     H_    0.992389 0.662987 0.026502 0.221972
O10   O     O_3   0.092182 0.295687 0.258473 -0.588504
C23   C     C_3   0.119872 0.297369 0.081224 0.035178
H16   H     H_    0.164794 0.209638 0.042997 0.159937
H17   H     H_    0.144195 0.417383 0.071818 0.139985
C24   C     C_3   0.052615 0.248784 0.943477 -0.774698
H18   H     H_    0.007607 0.336998 0.973506 0.221977
H19   H     H_    0.074275 0.242340 0.802528 0.215576
H20   H     H_    0.025956 0.130531 0.950724 0.263248
O11   O     O_3   0.409746 0.403929 0.955355 -0.472229
C25   C     C_3   0.392433 0.248156 0.974656 0.203035
H21   H     H_    0.368352 0.248745 0.111818 0.149167
H22   H     H_    0.444760 0.177191 0.953885 0.125533
C26   C     C_3   0.331039 0.167401 0.831235 -0.874411
H23   H     H_    0.354126 0.159547 0.691260 0.255951
H24   H     H_    0.314809 0.045832 0.848307 0.203861
H25   H     H_    0.278243 0.236293 0.846641 0.243815
O12   O     O_3   0.590254 0.596070 0.044644 -0.472229
C27   C     C_3   0.607568 0.751843 0.025344 0.203035
H26   H     H_    0.555241 0.822809 0.046117 0.125533
H27   H     H_    0.631648 0.751255 0.888182 0.149167
C28   C     C_3   0.668962 0.832596 0.168764 -0.874411
H28   H     H_    0.721758 0.763702 0.153357 0.243815
H29   H     H_    0.685194 0.954165 0.151691 0.203860
H30   H     H_    0.645876 0.840451 0.308740 0.255950

loop_
_geom_bond_atom_site_label_1
_geom_bond_atom_site_label_2
_ccdc_geom_bond_type
N2    O12   S    
C28   H30   S    
C2    C4    S    
O9    C21   S    
C26   H24   S    
C27   C28   S    
Cu1   O1    S    
C20   H5    S    
C12   O9    S    
C9    C11   A    
C2    O4    A    
C19   C20   D    
Cu1   O5    S    
C21   C22   S    
C1    O3    A    
C24   H18   S    
Cu2   O6    S    
C7    C9    A    
C24   H19   S    
N1    N2    D    
C26   H25   S    
C28   H28   S    
C22   H14   S    
C16   C18   A    
Cu1   Cu2   S    
C23   H16   S    
C3    H9    S    
C19   H6    S    
C11   C13   A    
O10   C23   S    
C4    H10   S    
C18   H3    S    
C10   C12   A    
Cu2   N1    S    
C25   C26   S    
C17   H4    S    
C25   H22   S    
C23   C24   S    
C23   H17   S    
C15   H7    S    
C22   H15   S    
C5    C7    S    
C13   C15   A    
C14   C16   A    
Cu2   O7    S    
C11   O10   S    
C13   C19   S    
C16   H8    S    
O12   C27   S    
C22   H13   S    
C14   C20   S    
C28   H29   S    
O11   C25   S    
C6    O6    A    
Cu2   O2    S    
C21   H11   S    
C1    O1    A    
N1    O11   S    
C6    O8    A    
C24   H20   S    
C2    O2    A    
Cu2   O3    S    
C15   C17   A    
C5    O5    A    
C5    O7    A    
C9    H1    S    
C6    C8    S    
Cu1   O8    S    
C21   H12   S    
C25   H21   S    
C10   H2    S    
C26   H23   S    
C27   H27   S    
Cu1   N2    S    
C8    C10   A    
C8    C18   A    
Cu1   O4    S    
C3    C4    D    
C12   C14   A    
C27   H26   S    
C1    C3    S    
C7    C17   A    
