data_mof_unit_4218.cif
_audit_creation_date              2012-12-10T19:28:32-0500
_audit_creation_method            fapswitch 2.2
_symmetry_space_group_name_H-M    P1
_symmetry_Int_Tables_number       1
_space_group_crystal_system       triclinic
_cell_length_a                    27.548724
_cell_length_b                    10.651463
_cell_length_c                    9.813016
_cell_angle_alpha                 91.013271
_cell_angle_beta                  90.757433
_cell_angle_gamma                 90.373912
_cell_volume                      2878.7069956

loop_
_atom_site_label
_atom_site_type_symbol
_atom_type_description
_atom_site_fract_x
_atom_site_fract_y
_atom_site_fract_z
_atom_type_partial_charge
C1    C     C_R   0.500507 0.257373 0.499700 0.858629
C2    C     C_R   0.498037 0.742283 0.500602 0.859146
C3    C     C_R   0.099858 0.520808 0.401127 -0.123371
C4    C     C_R   0.897820 0.499354 0.425401 -0.127136
C5    C     C_R   0.125110 0.405604 0.402216 -0.025092
C6    C     C_R   0.874856 0.585143 0.516429 -0.030480
C7    C     C_R   0.099071 0.292238 0.371994 0.184933
C8    C     C_R   0.901952 0.688907 0.572903 0.185461
C9    C     C_R   0.125159 0.635038 0.421323 -0.099638
C10   C     C_R   0.871352 0.398996 0.362280 -0.109742
C11   C     C_R   0.352847 0.504138 0.493145 -0.189853
C12   C     C_R   0.646870 0.495080 0.500774 -0.175511
C13   C     C_R   0.972657 0.415365 0.331303 -0.022528
C14   C     C_R   0.023099 0.632210 0.416369 -0.013526
C15   C     C_R   0.973453 0.618932 0.448418 0.042752
C16   C     C_R   0.023632 0.410713 0.350971 0.041440
C17   C     C_R   0.947756 0.511692 0.400749 0.057113
C18   C     C_R   0.048982 0.521481 0.388026 0.054933
C19   C     C_R   0.945717 0.324595 0.254123 0.087749
C20   C     C_R   0.048538 0.748060 0.424299 0.102793
C21   C     C_R   0.895864 0.308588 0.280560 0.210196
C22   C     C_R   0.099225 0.746973 0.442780 0.195427
C23   C     C_R   0.406092 0.501448 0.498875 0.876922
C24   C     C_R   0.593790 0.499472 0.500689 0.889726
C25   C     C_R   0.048870 0.297045 0.348139 -0.273744
C26   C     C_R   0.950709 0.702773 0.538178 -0.272371
C27   C     C_3   0.514878 0.040090 0.621835 0.259519
C28   C     C_3   0.481576 0.959052 0.380893 0.254296
C29   C     C_3   0.543103 0.955024 0.523057 -0.257553
C30   C     C_3   0.453370 0.044333 0.479722 -0.251356
C31   C     C_3   0.496653 0.877464 0.500886 -0.056591
C32   C     C_3   0.500027 0.121862 0.501257 -0.053194
C33   C     C_3   0.468468 0.960770 0.600799 -0.198343
C34   C     C_3   0.528057 0.038031 0.401554 -0.203245
C35   C     C_3   0.502362 0.386077 0.046723 -0.166185
C36   C     C_3   0.497440 0.613747 0.953078 -0.173837
C37   C     C_3   0.538890 0.449860 0.952918 0.216017
C38   C     C_3   0.461096 0.550153 0.047131 0.187326
C39   C     C_3   0.463498 0.437556 0.949117 0.198751
C40   C     C_3   0.536459 0.562582 0.050166 0.214982
C41   C     C_R   0.174908 0.410578 0.438863 0.500242
C42   C     C_R   0.825759 0.562150 0.546130 0.495007
C43   C     C_R   0.175956 0.632634 0.417909 0.531528
C44   C     C_R   0.820704 0.398339 0.377177 0.537512
C45   C     C_R   0.275151 0.591753 0.560481 0.171259
C46   C     C_R   0.722506 0.383694 0.544286 0.180403
C47   C     C_R   0.326546 0.598337 0.563869 0.091123
C48   C     C_R   0.671150 0.384863 0.541897 0.089059
C49   C     C_R   0.328036 0.419269 0.403821 0.108933
C50   C     C_R   0.673231 0.597475 0.448839 0.089355
C51   C     C_R   0.280023 0.446881 0.364444 0.190519
C52   C     C_R   0.722870 0.582132 0.420435 0.165754
C53   C     C_R   0.251939 0.522436 0.452859 0.150068
C54   C     C_R   0.747779 0.479962 0.477581 0.182114
H1    H     H_    0.444548 0.926590 0.682566 0.144944
H2    H     H_    0.551723 0.071108 0.318692 0.147270
H3    H     H_    0.504076 0.290995 0.090694 0.150573
H4    H     H_    0.495255 0.708640 0.908922 0.147699
H5    H     H_    0.028986 0.209990 0.331533 0.149488
H6    H     H_    0.971670 0.778481 0.585493 0.152624
H7    H     H_    0.579077 0.915019 0.545005 0.154664
H8    H     H_    0.416975 0.083577 0.461610 0.153084
N1    N     N_R   0.199758 0.522325 0.437102 -0.342971
N2    N     N_R   0.799631 0.476873 0.469815 -0.343834
N3    N     N_3   0.499960 0.500030 0.863290 -0.143957
N4    N     N_3   0.500040 0.499970 0.136710 -0.144320
O1    O     O_R   0.500000 0.313960 0.616610 -0.659764
O2    O     O_R   0.500000 0.686040 0.383390 -0.655646
O3    O     O_R   0.500020 0.313950 0.383350 -0.609255
O4    O     O_R   0.499980 0.686050 0.616650 -0.611959
O5    O     O_R   0.428750 0.500030 0.616610 -0.636084
O6    O     O_R   0.571250 0.499970 0.383390 -0.626547
O7    O     O_R   0.428770 0.500020 0.383360 -0.635091
O8    O     O_R   0.571230 0.499980 0.616640 -0.629432
O9    O     O_2   0.198814 0.306490 0.475521 -0.587495
O10   O     O_2   0.803206 0.625403 0.646773 -0.587605
O11   O     O_2   0.792048 0.324065 0.297531 -0.533656
O12   O     O_2   0.201549 0.738528 0.395808 -0.540308
Zn1   Zn    Zn3+2 0.499990 0.500010 0.655740 0.907921
Zn2   Zn    Zn3+2 0.500010 0.499990 0.344260 0.909739
C55   C     C_3   0.349848 0.293115 0.362932 -0.433107
C56   C     C_3   0.325395 0.186874 0.440093 -0.844649
H9    H     H_    0.335842 0.192634 0.549785 0.258771
H10   H     H_    0.285288 0.191292 0.430841 0.305831
H11   H     H_    0.336787 0.094739 0.397218 0.244990
H12   H     H_    0.345389 0.274169 0.252542 0.217026
H13   H     H_    0.389319 0.288404 0.384792 0.211014
C57   C     C_3   0.650525 0.726809 0.437869 -0.417788
C58   C     C_3   0.669531 0.811694 0.554836 -0.864430
H14   H     H_    0.651677 0.786058 0.651442 0.262416
H15   H     H_    0.709401 0.803410 0.569487 0.279903
H16   H     H_    0.661854 0.911160 0.533047 0.240515
H17   H     H_    0.658475 0.769344 0.338248 0.218013
H18   H     H_    0.610398 0.723971 0.443055 0.198646
C59   C     C_3   0.535277 0.083831 0.760222 -0.415980
C60   C     C_3   0.541741 0.974459 0.856100 -0.890158
H19   H     H_    0.506049 0.931442 0.878948 0.257357
H20   H     H_    0.565528 0.903397 0.808018 0.266344
H21   H     H_    0.558930 0.008075 0.953122 0.254748
H22   H     H_    0.571358 0.126951 0.744050 0.204207
H23   H     H_    0.510525 0.153380 0.807618 0.225081
C61   C     C_3   0.460843 0.913078 0.244165 -0.404101
C62   C     C_3   0.453121 0.021111 0.147851 -0.907726
H24   H     H_    0.428328 0.091351 0.193968 0.274397
H25   H     H_    0.488308 0.066749 0.124636 0.260442
H26   H     H_    0.436638 0.984240 0.051323 0.249827
H27   H     H_    0.485995 0.844944 0.196228 0.222651
H28   H     H_    0.425293 0.867450 0.262121 0.205746
C63   C     C_3   0.584343 0.389255 0.894647 -0.373001
C64   C     C_3   0.611944 0.314295 0.001382 -0.916398
H29   H     H_    0.623952 0.376299 0.087611 0.275259
H30   H     H_    0.588780 0.237612 0.040491 0.255055
H31   H     H_    0.644401 0.271249 0.954581 0.257474
H32   H     H_    0.573223 0.326304 0.809574 0.213271
H33   H     H_    0.608597 0.462067 0.853181 0.231547
C65   C     C_3   0.415764 0.608487 0.108663 -0.348957
C66   C     C_3   0.388576 0.691181 0.008568 -0.958567
H34   H     H_    0.411928 0.770378 0.976725 0.261376
H35   H     H_    0.377034 0.635830 0.917305 0.258750
H36   H     H_    0.355787 0.730077 0.058033 0.269908
H37   H     H_    0.391512 0.532737 0.143142 0.222412
H38   H     H_    0.426571 0.665563 0.199017 0.228742
C67   C     C_3   0.420558 0.367172 0.881949 -0.347404
C68   C     C_3   0.399405 0.268961 0.974548 -0.989273
H39   H     H_    0.421861 0.183691 0.966869 0.274066
H40   H     H_    0.399156 0.303525 0.081638 0.264584
H41   H     H_    0.361822 0.244403 0.941032 0.273990
H42   H     H_    0.391905 0.434746 0.853723 0.220163
H43   H     H_    0.432617 0.318840 0.787558 0.243482
C69   C     C_3   0.578206 0.641748 0.111618 -0.372313
C70   C     C_3   0.609497 0.701224 0.002485 -0.950439
H44   H     H_    0.637817 0.634751 0.968167 0.267329
H45   H     H_    0.587356 0.727669 0.912838 0.272233
H46   H     H_    0.627965 0.786446 0.045176 0.261275
H47   H     H_    0.562693 0.717057 0.177045 0.214279
H48   H     H_    0.601928 0.582490 0.175127 0.232063
C71   C     C_3   0.258875 0.394724 0.230488 -0.371457
C72   C     C_3   0.284588 0.448453 0.107827 -0.919458
H49   H     H_    0.281762 0.552451 0.108614 0.281045
H50   H     H_    0.323173 0.421947 0.106301 0.263506
H51   H     H_    0.267277 0.409466 0.013522 0.267022
H52   H     H_    0.260779 0.290774 0.226887 0.225820
H53   H     H_    0.220301 0.420074 0.216126 0.209026
C73   C     C_3   0.748850 0.671598 0.325111 -0.399672
C74   C     C_3   0.734542 0.642418 0.177131 -0.843504
H54   H     H_    0.746460 0.546332 0.147818 0.286197
H55   H     H_    0.694711 0.648286 0.162565 0.256775
H56   H     H_    0.752216 0.710808 0.109215 0.264096
H57   H     H_    0.741016 0.771123 0.350525 0.220922
H58   H     H_    0.788844 0.664631 0.331744 0.209572
C75   C     C_3   0.122619 0.165366 0.353229 -0.336278
C76   C     C_3   0.148351 0.154330 0.217029 -0.816841
H59   H     H_    0.121851 0.165491 0.131843 0.250107
H60   H     H_    0.176998 0.226855 0.209465 0.258283
H61   H     H_    0.165313 0.060364 0.207291 0.271338
H62   H     H_    0.147127 0.143106 0.438838 0.286301
H63   H     H_    0.094738 0.090444 0.354724 0.209077
C77   C     C_3   0.880919 0.792062 0.663280 -0.349204
C78   C     C_3   0.848949 0.880960 0.581189 -0.773636
H64   H     H_    0.870996 0.928353 0.503002 0.258124
H65   H     H_    0.818500 0.830300 0.529131 0.270668
H66   H     H_    0.833640 0.953775 0.650337 0.245967
H67   H     H_    0.861541 0.753160 0.751392 0.251424
H68   H     H_    0.910373 0.850345 0.711098 0.181526
C79   C     C_3   0.642937 0.264056 0.564992 -0.424569
C80   C     C_3   0.644339 0.181511 0.436419 -0.870768
H69   H     H_    0.682224 0.161412 0.406224 0.278677
H70   H     H_    0.625898 0.091352 0.455227 0.240787
H71   H     H_    0.625353 0.228707 0.351024 0.266504
H72   H     H_    0.657308 0.212490 0.653772 0.212755
H73   H     H_    0.604414 0.281089 0.588509 0.202403
C81   C     C_3   0.351849 0.712588 0.629535 -0.428817
C82   C     C_3   0.346158 0.826777 0.538761 -0.869955
H74   H     H_    0.365714 0.811158 0.441757 0.252408
H75   H     H_    0.307327 0.844940 0.515309 0.291600
H76   H     H_    0.361550 0.911266 0.591501 0.245964
H77   H     H_    0.337005 0.734754 0.731300 0.219678
H78   H     H_    0.391137 0.698970 0.647139 0.226253
C83   C     C_3   0.750375 0.282204 0.619536 -0.386863
C84   C     C_3   0.749979 0.307844 0.773045 -0.839279
H79   H     H_    0.712289 0.313603 0.810710 0.251242
H80   H     H_    0.768959 0.231025 0.826643 0.263246
H81   H     H_    0.769036 0.397840 0.797546 0.288630
H82   H     H_    0.735431 0.187333 0.595961 0.216077
H83   H     H_    0.788854 0.277064 0.589014 0.220114
C85   C     C_3   0.246114 0.653494 0.674423 -0.328620
C86   C     C_3   0.253581 0.584458 0.807664 -0.923230
H84   H     H_    0.239489 0.486835 0.796036 0.277558
H85   H     H_    0.292497 0.581160 0.837483 0.261420
H86   H     H_    0.233372 0.632846 0.890245 0.270722
H87   H     H_    0.206583 0.651526 0.655158 0.230713
H88   H     H_    0.256037 0.754083 0.687619 0.231877
I1    I     I_    0.862931 0.132458 0.217279 -0.389700
I2    I     I_    0.131600 0.898131 0.557821 -0.415805
C87   C     C_3   0.967605 0.260271 0.129185 -0.412892
C88   C     C_3   0.943921 0.305863 0.997221 -0.795838
H89   H     H_    0.904577 0.283485 0.992812 0.282220
H90   H     H_    0.948819 0.409070 0.988995 0.255688
H91   H     H_    0.961362 0.259495 0.908399 0.245373
H92   H     H_    0.006698 0.282199 0.118721 0.218603
H93   H     H_    0.964272 0.156736 0.135828 0.223688
C89   C     C_3   0.024437 0.869264 0.380376 -0.419453
C90   C     C_3   0.039735 0.901747 0.235881 -0.844963
H94   H     H_    0.024275 0.993717 0.207391 0.238148
H95   H     H_    0.079855 0.906932 0.227962 0.277884
H96   H     H_    0.025933 0.828978 0.162386 0.267665
H97   H     H_    0.984360 0.861931 0.375949 0.228100
H98   H     H_    0.033531 0.947484 0.452515 0.219346

loop_
_geom_bond_atom_site_label_1
_geom_bond_atom_site_label_2
_ccdc_geom_bond_type
C81   H77   S    
O2    Zn2   S    
C90   H94   S    
C79   H73   S    
C79   C80   S    
N3    Zn1   S    
C42   N2    A    
C27   C29   S    
C66   H34   S    
C8    C26   A    
C14   C18   A    
C11   C47   A    
C59   C60   S    
C12   C48   A    
C70   H46   S    
C8    C77   S    
O5    Zn1   S    
C55   C56   S    
C43   N1    A    
C67   C68   S    
C82   H74   S    
C27   C33   S    
C43   O12   S    
C34   H2    S    
C90   H95   S    
C52   C73   S    
C65   H38   S    
C11   C49   A    
C75   H63   S    
C44   O11   S    
C35   C37   S    
C87   H92   S    
C37   C40   S    
C36   H4    S    
C66   H35   S    
C38   C39   S    
C9    C22   A    
C60   H21   S    
C16   C25   A    
O6    Zn2   S    
C39   C67   S    
C65   C66   S    
C3    C18   A    
C49   C55   S    
C85   H87   S    
C64   H29   S    
C86   H86   S    
C73   H58   S    
C27   C59   S    
C48   C79   S    
C69   H47   S    
C52   C54   A    
C49   C51   A    
C37   N3    S    
C50   C52   A    
C75   C76   S    
C78   H65   S    
C61   H28   S    
O4    Zn1   S    
C58   H15   S    
C37   C63   S    
C55   H12   S    
C30   C33   S    
C84   H81   S    
C50   C57   S    
C45   C47   A    
C71   H53   S    
C28   C34   S    
C40   N4    S    
C67   H43   S    
C80   H70   S    
C39   N3    S    
C23   O7    A    
C88   H91   S    
C74   H55   S    
C84   H80   S    
C74   H54   S    
C33   H1    S    
C46   C48   A    
C82   H75   S    
C10   C21   A    
C90   H96   S    
C29   H7    S    
C9    C43   A    
C71   H52   S    
C65   H37   S    
C13   C19   A    
C10   C44   A    
C14   C20   A    
C36   C40   S    
O1    Zn1   S    
C88   H90   S    
C89   C90   S    
C66   H36   S    
C5    C7    A    
C36   N3    S    
C88   H89   S    
C15   C26   A    
C6    C8    A    
C35   N4    S    
C70   H45   S    
C29   C34   S    
C1    C32   S    
C1    O3    A    
C83   C84   S    
C60   H20   S    
C2    C31   S    
C51   C53   A    
C32   C34   S    
C35   C39   S    
C40   C69   S    
C19   C87   S    
C3    C9    A    
C23   O5    A    
C41   O9    S    
C38   C65   S    
C78   H64   S    
C76   H61   S    
C60   H19   S    
C46   C54   A    
C31   C33   S    
C78   H66   S    
C61   H27   S    
C62   H25   S    
C75   H62   S    
C57   C58   S    
C58   H16   S    
C64   H31   S    
C55   H13   S    
C72   H50   S    
C77   H67   S    
C68   H41   S    
C7    C75   S    
C4    C17   A    
C63   H32   S    
C4    C6    A    
C20   C22   A    
C56   H9    S    
C56   H10   S    
O8    Zn1   S    
C30   H8    S    
C80   H69   S    
C47   C81   S    
C41   N1    A    
C4    C10   A    
C70   H44   S    
C44   N2    A    
C51   C71   S    
C74   H56   S    
C81   C82   S    
C24   O6    A    
C68   H40   S    
C83   H82   S    
C82   H76   S    
C81   H78   S    
C79   H72   S    
C15   C17   A    
C38   N4    S    
C57   H17   S    
C73   H57   S    
C19   C21   A    
C27   C32   S    
C59   H22   S    
C42   O10   S    
C46   C83   S    
C28   C31   S    
C69   H48   S    
C76   H60   S    
C73   C74   S    
C3    C5    A    
C72   H51   S    
C12   C50   A    
C87   H93   S    
C77   H68   S    
C56   H11   S    
N4    Zn2   S    
C71   C72   S    
C12   C24   S    
C2    O2    A    
C7    C25   A    
C13   C17   A    
C89   H97   S    
C28   C30   S    
C69   C70   S    
C58   H14   S    
C20   C89   S    
C86   H84   S    
C29   C31   S    
C63   C64   S    
C36   C38   S    
C30   C32   S    
C53   N1    S    
C24   O8    A    
C67   H42   S    
C77   C78   S    
C54   N2    S    
C11   C23   S    
C1    O1    A    
O7    Zn2   S    
C83   H83   S    
C62   H26   S    
C85   H88   S    
C61   C62   S    
C45   C85   S    
C64   H30   S    
C86   H85   S    
C72   H49   S    
C63   H33   S    
C45   C53   A    
C87   C88   S    
C28   C61   S    
C76   H59   S    
C80   H71   S    
C16   C18   A    
C35   H3    S    
C6    C42   A    
C13   C16   A    
C62   H24   S    
C5    C41   A    
C57   H18   S    
C14   C15   A    
C22   I2    S    
O3    Zn2   S    
C89   H98   S    
C25   H5    S    
C21   I1    S    
C85   C86   S    
C2    O4    A    
C26   H6    S    
C84   H79   S    
C59   H23   S    
C68   H39   S    
