data_mof_unit_2962.cif
_audit_creation_date              2012-12-10T20:55:09-0500
_audit_creation_method            fapswitch 2.2
_symmetry_space_group_name_H-M    P1
_symmetry_Int_Tables_number       1
_space_group_crystal_system       triclinic
_cell_length_a                    15.822547
_cell_length_b                    15.036302
_cell_length_c                    10.66044
_cell_angle_alpha                 90.113218
_cell_angle_beta                  90.156105
_cell_angle_gamma                 89.970346
_cell_volume                      2536.23824756

loop_
_atom_site_label
_atom_site_type_symbol
_atom_type_description
_atom_site_fract_x
_atom_site_fract_y
_atom_site_fract_z
_atom_type_partial_charge
C1    C     C_R   0.338899 0.500042 0.499601 0.916365
C2    C     C_R   0.576383 0.952323 0.506738 -0.247773
C3    C     C_R   0.500272 0.904680 0.500132 0.043580
C4    C     C_R   0.577085 0.046482 0.507691 0.178699
C5    C     C_R   0.423469 0.046477 0.492221 0.179853
C6    C     C_R   0.500240 0.094675 0.500020 -0.020391
C7    C     C_1   0.500165 0.807129 0.500057 0.051896
C8    C     C_1   0.500119 0.192788 0.499982 0.116316
C9    C     C_R   0.509582 0.500268 0.259761 0.911286
C10   C     C_R   0.490709 0.500497 0.740392 0.907400
C11   C     C_R   0.556929 0.663075 0.106734 0.185623
C12   C     C_R   0.661072 0.499988 0.499897 0.917947
C13   C     C_R   0.449154 0.665179 0.895414 0.189048
C14   C     C_R   0.533479 0.745230 0.052025 -0.098592
C15   C     C_R   0.475222 0.746348 0.950899 -0.100354
C16   C     C_R   0.483012 0.583792 0.941432 0.007442
C17   C     C_R   0.520769 0.583027 0.059517 0.006775
C18   C     C_R   0.518547 0.501365 0.125819 -0.095154
C19   C     C_R   0.482353 0.502079 0.874507 -0.095117
C20   C     C_R   0.506362 0.420812 0.063083 -0.226674
C21   C     C_R   0.492050 0.421105 0.936729 -0.227121
C22   C     C_R   0.955429 0.580580 0.454207 -0.075195
C23   C     C_R   0.956459 0.420836 0.504643 0.180712
C24   C     C_R   0.044063 0.579824 0.447928 -0.076316
C25   C     C_R   0.912962 0.501070 0.484378 -0.024595
C26   C     C_R   0.087279 0.499618 0.471776 -0.029621
C27   C     C_3   0.698035 0.617930 0.173021 -0.793978
C28   C     C_3   0.306014 0.625550 0.832043 -0.810879
C29   C     C_R   0.567827 0.830221 0.101816 0.124835
C30   C     C_R   0.514253 0.891579 0.161471 -0.121692
C31   C     C_R   0.545060 0.974736 0.198182 -0.112925
C32   C     C_R   0.630000 0.996157 0.179513 -0.124257
C33   C     C_R   0.683977 0.934959 0.121946 -0.168067
C34   C     C_R   0.044301 0.420108 0.498244 0.177838
C35   C     C_R   0.652970 0.852495 0.082272 -0.170624
C36   C     C_R   0.443390 0.832577 0.902079 0.123658
C37   C     C_R   0.498473 0.891708 0.841467 -0.122180
C38   C     C_R   0.470063 0.975799 0.804975 -0.115517
C39   C     C_R   0.386042 0.000446 0.825115 -0.119475
C40   C     C_R   0.330590 0.941540 0.883888 -0.152858
C41   C     C_R   0.359241 0.858150 0.923334 -0.173133
C42   C     C_R   0.091987 0.662910 0.421902 0.157086
C43   C     C_R   0.090286 0.733947 0.507635 -0.134502
C44   C     C_R   0.137502 0.810821 0.484763 -0.138720
C45   C     C_1   0.823831 0.500537 0.490082 -0.045800
C46   C     C_R   0.186696 0.817257 0.376432 -0.114815
C47   C     C_R   0.188642 0.746877 0.290634 -0.132593
C48   C     C_R   0.141473 0.669927 0.313106 -0.153520
C49   C     C_R   0.906880 0.663265 0.426932 0.150871
C50   C     C_R   0.907408 0.700034 0.305882 -0.149897
C51   C     C_R   0.859118 0.775688 0.279233 -0.141464
C52   C     C_R   0.810082 0.815058 0.373050 -0.112987
C53   C     C_R   0.809629 0.779192 0.493852 -0.137427
C54   C     C_R   0.857973 0.703732 0.520981 -0.147502
C55   C     C_3   0.895342 0.284769 0.425217 -0.753181
C56   C     C_1   0.176349 0.500168 0.481157 -0.038385
C57   C     C_3   0.103988 0.319660 0.651322 -0.754601
C58   C     C_3   0.322703 0.120652 0.359132 -0.802371
C59   C     C_3   0.678164 0.122401 0.638842 -0.800660
C60   C     C_1   0.250888 0.500207 0.490542 -0.188582
C61   C     C_1   0.749158 0.500095 0.495149 -0.194963
C62   C     C_R   0.424191 0.952366 0.493427 -0.244924
H1    H     H_    0.507315 0.357502 0.111477 0.171943
H2    H     H_    0.263326 0.625906 0.749157 0.243728
H3    H     H_    0.276015 0.664220 0.908789 0.226944
H4    H     H_    0.314359 0.555525 0.862385 0.240601
H5    H     H_    0.448345 0.875703 0.176986 0.127222
H6    H     H_    0.503039 0.022576 0.241173 0.140853
H7    H     H_    0.653864 0.060301 0.209184 0.129834
H8    H     H_    0.749659 0.951783 0.106844 0.126734
H9    H     H_    0.694829 0.806737 0.034538 0.128033
H10   H     H_    0.563704 0.873340 0.824947 0.126969
H11   H     H_    0.513224 0.021917 0.761165 0.141893
H12   H     H_    0.488872 0.357877 0.887973 0.171712
H13   H     H_    0.364054 0.065334 0.795708 0.128544
H14   H     H_    0.265684 0.960951 0.900380 0.127587
H15   H     H_    0.316383 0.814211 0.972187 0.125846
H16   H     H_    0.053075 0.729368 0.592496 0.121584
H17   H     H_    0.136234 0.865277 0.551280 0.125393
H18   H     H_    0.223342 0.876726 0.359028 0.117379
H19   H     H_    0.226850 0.751868 0.206853 0.120965
H20   H     H_    0.143659 0.615697 0.246170 0.123969
H21   H     H_    0.944264 0.669418 0.232015 0.126297
H22   H     H_    0.859181 0.803386 0.185601 0.123735
H23   H     H_    0.364958 0.916396 0.488084 0.140255
H24   H     H_    0.772448 0.873338 0.352277 0.128695
H25   H     H_    0.771651 0.809744 0.566428 0.121575
H26   H     H_    0.856921 0.676404 0.614887 0.123704
H27   H     H_    0.860779 0.348086 0.590452 0.226486
H28   H     H_    0.851487 0.319232 0.359750 0.233794
H29   H     H_    0.865453 0.221825 0.456510 0.232703
H30   H     H_    0.954905 0.268091 0.375467 0.249361
H31   H     H_    0.142009 0.330357 0.465814 0.227625
H32   H     H_    0.134659 0.253508 0.659938 0.232440
H33   H     H_    0.043483 0.318003 0.703870 0.250210
H34   H     H_    0.635625 0.916316 0.511924 0.134775
H35   H     H_    0.146352 0.370673 0.693297 0.230411
H36   H     H_    0.295799 0.059069 0.527453 0.220227
H37   H     H_    0.313696 0.061915 0.296988 0.229146
H38   H     H_    0.372729 0.164077 0.319625 0.247674
H39   H     H_    0.262840 0.159170 0.362134 0.241281
H40   H     H_    0.704721 0.058546 0.471690 0.218765
H41   H     H_    0.687337 0.064542 0.702228 0.230613
H42   H     H_    0.628243 0.166413 0.677680 0.247229
H43   H     H_    0.738006 0.160829 0.634656 0.241903
H44   H     H_    0.625903 0.717059 0.258006 0.244529
H45   H     H_    0.738998 0.614909 0.257575 0.256178
H46   H     H_    0.731046 0.656508 0.099248 0.227111
H47   H     H_    0.687586 0.548869 0.139553 0.237240
H48   H     H_    0.380645 0.721880 0.746046 0.241883
N1    N     N_1   0.500000 0.270550 0.500000 -0.094437
N2    N     N_1   0.500000 0.729450 0.500000 -0.099444
N3    N     N_2   0.618756 0.660188 0.204937 -0.271573
N4    N     N_2   0.386353 0.664699 0.798513 -0.268794
N5    N     N_2   0.912620 0.340451 0.533002 -0.289616
N6    N     N_2   0.088886 0.339079 0.520339 -0.288171
N7    N     N_2   0.344905 0.092213 0.484513 -0.306957
N8    N     N_2   0.655675 0.092224 0.514231 -0.307462
O1    O     O_R   0.378020 0.573650 0.500040 -0.600906
O2    O     O_R   0.621980 0.573650 0.499960 -0.605046
O3    O     O_R   0.378020 0.426320 0.500100 -0.612099
O4    O     O_R   0.621980 0.426320 0.499900 -0.610576
O5    O     O_R   0.500000 0.573680 0.316780 -0.599435
O6    O     O_R   0.500000 0.573680 0.683220 -0.600240
O7    O     O_R   0.500000 0.426350 0.316830 -0.630029
O8    O     O_R   0.500000 0.426350 0.683170 -0.629843
Zn1   Zn    Zn3+2 0.500000 0.598370 0.500000 0.976885
Zn2   Zn    Zn3+2 0.500000 0.401630 0.500000 0.966319

loop_
_geom_bond_atom_site_label_1
_geom_bond_atom_site_label_2
_ccdc_geom_bond_type
C46   H18   S    
H27   N5    S    
C24   C42   S    
C2    C4    A    
O2    Zn1   S    
C53   C54   A    
C43   H16   S    
C29   C30   A    
C59   H42   S    
C36   C37   A    
C19   C21   A    
C24   C26   A    
C55   H28   S    
C10   O6    A    
C41   H15   S    
C5    C6    A    
C11   C14   A    
C34   N6    S    
C49   C54   A    
C7    N2    T    
C1    O1    A    
C45   C61   T    
N2    Zn1   S    
C55   H29   S    
C9    O5    A    
C12   O2    A    
C59   H43   S    
C47   C48   A    
C44   C46   A    
C16   C17   A    
C22   C25   A    
O7    Zn2   S    
C39   H13   S    
H48   N4    S    
C13   N4    S    
H40   N8    S    
C23   C25   A    
C35   H9    S    
C4    N8    S    
C36   C41   A    
C37   H10   S    
C26   C34   A    
C50   H21   S    
C50   C51   A    
C57   N6    S    
C31   H6    S    
C62   H23   S    
H44   N3    S    
C51   C52   A    
C58   H38   S    
O3    Zn2   S    
C4    C6    A    
C1    C60   S    
C39   C40   A    
C6    C8    S    
C21   H12   S    
C58   N7    S    
C9    O7    A    
C40   H14   S    
C5    N7    S    
H31   N6    S    
C38   C39   A    
C28   H4    S    
C43   C44   A    
C37   C38   A    
O5    Zn1   S    
C31   C32   A    
C27   H45   S    
C10   C19   S    
C23   C34   A    
C57   H35   S    
C17   C18   A    
C53   H25   S    
C58   H39   S    
C42   C48   A    
C28   N4    S    
C33   H8    S    
C22   C49   S    
C28   H2    S    
C40   C41   A    
C55   H30   S    
C59   N8    S    
C57   H32   S    
C13   C15   A    
C22   C24   A    
C8    N1    T    
C42   C43   A    
C14   C29   S    
C25   C45   S    
C15   C36   S    
C52   C53   A    
H36   N7    S    
C3    C62   A    
C46   C47   A    
C11   C17   A    
O8    Zn2   S    
C44   H17   S    
C58   H37   S    
C30   H5    S    
C26   C56   S    
C32   H7    S    
C27   N3    S    
C29   C35   A    
C3    C7    S    
C59   H41   S    
C32   C33   A    
C20   H1    S    
C2    H34   S    
C2    C3    A    
C54   H26   S    
C12   C61   S    
C30   C31   A    
C55   N5    S    
C27   H46   S    
C16   C19   A    
C52   H24   S    
C33   C35   A    
C48   H20   S    
C5    C62   A    
C28   H3    S    
C18   C20   A    
C47   H19   S    
O4    Zn2   S    
C11   N3    S    
C1    O3    A    
C23   N5    S    
C56   C60   T    
C9    C18   S    
C12   O4    A    
C20   C21   A    
C27   H47   S    
C49   C50   A    
C57   H33   S    
C13   C16   A    
O6    Zn1   S    
N1    Zn2   S    
C14   C15   A    
C10   O8    A    
C51   H22   S    
C38   H11   S    
O1    Zn1   S    
