data_mof_unit_1811.cif
_audit_creation_date              2013-03-05T16:33:12-0500
_audit_creation_method            fapswitch 2.2
_symmetry_space_group_name_H-M    P1
_symmetry_Int_Tables_number       1
_space_group_crystal_system       triclinic
_cell_length_a                    27.820895
_cell_length_b                    10.816696
_cell_length_c                    9.525182
_cell_angle_alpha                 90.161966
_cell_angle_beta                  89.859291
_cell_angle_gamma                 90.13528
_cell_volume                      2866.38653873

loop_
_atom_site_label
_atom_site_type_symbol
_atom_site_description
_atom_site_fract_x
_atom_site_fract_y
_atom_site_fract_z
_atom_type_partial_charge
O1    O     O_R   0.500000 0.319640 0.618810 -0.584913
O2    O     O_R   0.500010 0.319680 0.381230 -0.543767
C1    C     C_R   0.501374 0.262261 0.499557 0.829298
O3    O     O_R   0.430260 0.500000 0.618780 -0.588349
O4    O     O_R   0.430270 0.500040 0.381190 -0.589916
C2    C     C_R   0.407447 0.499748 0.500198 0.807759
Cu1   Cu    Cu3+1 0.500000 0.499980 0.640670 0.951040
Cu2   Cu    Cu3+1 0.500000 0.500020 0.359330 0.972979
O5    O     O_R   0.499990 0.680320 0.618770 -0.583186
O6    O     O_R   0.500000 0.680360 0.381190 -0.585829
O7    O     O_R   0.569730 0.499960 0.618810 -0.583826
O8    O     O_R   0.569740 0.500000 0.381220 -0.552728
C3    C     C_R   0.501088 0.737612 0.500445 0.821247
C4    C     C_R   0.592561 0.497699 0.499644 0.825807
C5    C     C_R   0.178517 0.385350 0.489529 0.595263
O9    O     O_2   0.204601 0.281266 0.477067 -0.474365
N1    N     N_R   0.202178 0.495555 0.503349 -0.468835
C6    C     C_R   0.178145 0.604542 0.517248 0.576788
C7    C     C_R   0.278627 0.503174 0.376158 -0.121144
C8    C     C_R   0.328728 0.504158 0.374648 -0.203388
C9    C     C_R   0.329269 0.492361 0.628981 -0.236358
C10   C     C_R   0.279119 0.491139 0.630705 0.208608
C11   C     C_R   0.253680 0.496764 0.503723 0.308231
C12   C     C_R   0.102164 0.493773 0.506261 -0.073739
C13   C     C_R   0.127655 0.381138 0.489861 -0.080354
C14   C     C_R   0.101216 0.270016 0.473998 0.217251
C15   C     C_R   0.127869 0.605806 0.519465 -0.015557
C16   C     C_R   0.354511 0.498891 0.501142 -0.077251
H1    H     H_    0.348366 0.487763 0.727779 0.171811
C17   C     C_R   0.645556 0.496703 0.499965 -0.089678
C18   C     C_R   0.974244 0.382739 0.513616 0.059016
C19   C     C_R   0.975004 0.610787 0.515648 0.043974
C20   C     C_R   0.949368 0.497174 0.515759 0.071889
C21   C     C_R   0.947059 0.272322 0.524435 -0.198943
C22   C     C_R   0.897163 0.274244 0.528423 -0.139752
C23   C     C_R   0.872338 0.386129 0.522815 -0.024136
C24   C     C_R   0.898270 0.497950 0.517579 -0.046203
C25   C     C_R   0.872989 0.610501 0.513639 -0.022108
C26   C     C_R   0.822509 0.609062 0.512500 0.543053
N2    N     N_R   0.798078 0.499192 0.516551 -0.463393
C27   C     C_R   0.821902 0.388828 0.522970 0.545696
C28   C     C_R   0.722989 0.449020 0.394246 -0.118809
C29   C     C_R   0.672855 0.446573 0.387700 0.123508
C30   C     C_R   0.669670 0.546673 0.616831 -0.238855
C31   C     C_R   0.719697 0.548087 0.622124 -0.087711
C32   C     C_R   0.746528 0.499336 0.510847 0.308488
O10   O     O_2   0.796821 0.282024 0.529775 -0.521927
C33   C     C_R   0.025208 0.382216 0.501968 0.007241
C34   C     C_R   0.050993 0.495075 0.509538 0.073378
C35   C     C_R   0.026076 0.609471 0.520347 0.048725
C36   C     C_R   0.051236 0.272099 0.480133 -0.231805
H2    H     H_    0.743946 0.410546 0.308770 0.167491
H3    H     H_    0.878087 0.187034 0.535676 0.189698
H4    H     H_    0.963235 0.182331 0.533381 0.141140
H5    H     H_    0.033480 0.184905 0.462839 0.154694
O11   O     O_2   0.203008 0.711376 0.529379 -0.501005
C37   C     C_R   0.103073 0.716937 0.535978 -0.110458
H6    H     H_    0.347208 0.509186 0.274585 0.168337
H7    H     H_    0.259073 0.507372 0.278100 0.166143
H8    H     H_    0.122156 0.803570 0.549084 0.210062
C38   C     C_R   0.948441 0.722151 0.509537 -0.200169
C39   C     C_R   0.898502 0.721723 0.508671 -0.138856
O12   O     O_2   0.798037 0.716458 0.505645 -0.528641
C40   C     C_R   0.053277 0.719045 0.536518 -0.193581
H9    H     H_    0.965102 0.811822 0.501730 0.140254
H10   H     H_    0.649785 0.585583 0.704224 0.163948
H11   H     H_    0.879937 0.809538 0.503578 0.188728
H12   H     H_    0.737658 0.586603 0.713059 0.156426
H13   H     H_    0.037239 0.808402 0.553192 0.147231
C41   C     C_R   0.496012 0.064277 0.622503 0.088840
C42   C     C_R   0.506388 0.128966 0.499486 -0.136524
C43   C     C_R   0.524171 0.062660 0.381763 0.237992
C44   C     C_R   0.524613 0.933274 0.385699 -0.272615
H14   H     H_    0.537510 0.882823 0.295261 0.160570
C45   C     C_R   0.506276 0.870399 0.502694 -0.128992
C46   C     C_R   0.495813 0.937267 0.624112 0.112222
C47   C     C_3   0.452883 0.931928 0.718512 -0.441498
C48   C     C_3   0.453231 0.072316 0.717203 -0.451737
H15   H     H_    0.420861 0.890822 0.666333 0.207293
H16   H     H_    0.461504 0.892825 0.823216 0.192736
H17   H     H_    0.421336 0.113078 0.664660 0.201081
H18   H     H_    0.462372 0.113745 0.820786 0.198533
C49   C     C_R   0.536956 0.553318 0.073477 0.321647
N3    N     N_R   0.500300 0.500930 0.147930 -0.184302
C50   C     C_R   0.466063 0.436867 0.074527 -0.078319
H19   H     H_    0.438132 0.387605 0.130482 0.140602
C51   C     C_R   0.466078 0.436779 0.925492 -0.085568
H20   H     H_    0.438169 0.387420 0.869599 0.143463
N4    N     N_R   0.500310 0.500890 0.852020 -0.189927
C52   C     C_R   0.537178 0.552496 0.925963 0.277889
C53   C     C_3   0.553096 0.683898 0.919090 -0.505279
C54   C     C_3   0.551871 0.685653 0.078211 -0.522169
H21   H     H_    0.589967 0.693206 0.875180 0.200354
H22   H     H_    0.525890 0.745651 0.871347 0.217711
H23   H     H_    0.587851 0.698477 0.126671 0.213795
H24   H     H_    0.522963 0.746146 0.119779 0.207318
N5    N     N_2   0.540992 0.124226 0.259302 -0.383423
H25   H     H_    0.574591 0.094513 0.228240 0.270964
C55   C     C_3   0.507355 0.123088 0.143601 -0.630394
H26   H     H_    0.502487 0.027440 0.102935 0.201440
H27   H     H_    0.521424 0.182006 0.057428 0.231617
H28   H     H_    0.471979 0.160330 0.177460 0.230876
I1    I     I_    0.243219 0.479751 0.826735 -0.311065
I2    I     I_    0.130348 0.090171 0.436724 -0.253570
I3    I     I_    0.643075 0.357106 0.208533 -0.367228

loop_
_geom_bond_atom_site_label_1
_geom_bond_atom_site_label_2
_geom_bond_distance
_ccdc_geom_bond_type
C51   H20   1.081594 S    
C41   C48   1.494206 S    
C35   C40   1.412976 A    
C44   H14   1.079516 S    
C30   H10   1.083052 S    
C7    C8    1.393887 A    
C12   C15   1.411109 A    
N5    H25   1.031568 S    
Cu1   Cu2   2.679815 S    
C47   C48   1.518629 S    
Cu1   O7    1.950585 S    
C49   C54   1.490015 S    
N1    C11   1.432888 S    
C39   H11   1.083543 S    
C49   N3    1.363821 A    
C23   C24   1.407824 A    
C19   C38   1.416127 A    
C29   I3    2.128201 S    
O4    C2    1.297936 A    
O7    C4    1.299541 A    
C5    C13   1.415637 A    
C22   H3    1.083556 S    
C5    O9    1.345697 S    
Cu1   N4    2.013184 S    
C54   H24   1.109582 S    
Cu1   O5    1.962391 S    
C21   C22   1.388775 A    
C28   C32   1.398957 A    
O5    C3    1.288000 A    
C14   I2    2.137607 S    
C33   C36   1.410062 A    
C2    C16   1.472754 S    
C3    C45   1.443317 S    
C18   C20   1.419636 A    
C41   C42   1.395691 A    
C6    O11   1.350210 S    
C47   H15   1.112421 S    
O1    Cu1   1.961179 S    
C9    C10   1.395303 A    
C44   C45   1.401616 A    
C17   C30   1.407096 A    
C23   C27   1.403547 A    
C4    C17   1.474449 S    
O3    Cu1   1.951913 S    
N5    C55   1.447555 S    
C43   N5    1.422442 S    
C50   C51   1.419581 A    
C12   C13   1.419200 A    
O3    C2    1.296967 A    
C15   C37   1.395677 A    
C26   N2    1.368268 A    
C7    C11   1.399662 A    
C37   H8    1.083001 S    
C8    C16   1.405104 A    
C7    H7    1.083178 S    
C13   C14   1.415621 A    
C50   H19   1.081412 S    
C9    H1    1.083150 S    
C54   H23   1.111562 S    
C20   C24   1.421713 A    
C10   I1    2.119141 S    
O1    C1    1.293395 A    
C22   C23   1.396064 A    
C1    C42   1.448859 S    
C45   C46   1.392856 A    
C24   C25   1.408064 A    
C38   H9    1.076707 S    
C53   H21   1.111278 S    
C48   H18   1.112275 S    
C55   H26   1.111799 S    
Cu2   O8    1.951907 S    
C31   H12   1.082874 S    
N1    C6    1.362605 A    
C27   O10   1.349862 S    
C18   C21   1.416029 A    
C40   H13   1.076737 S    
N3    C50   1.368836 A    
C19   C35   1.421767 A    
N2    C27   1.368401 A    
C55   H27   1.110534 S    
C9    C16   1.406053 A    
O8    C4    1.296101 A    
C21   H4    1.077055 S    
C18   C33   1.421961 A    
C51   N4    1.368945 A    
C41   C46   1.373956 A    
C17   C29   1.417397 A    
C28   C29   1.396498 A    
N2    C32   1.435342 S    
C8    H6    1.083273 S    
C53   C54   1.516020 S    
C30   C31   1.392876 A    
C37   C40   1.385580 A    
C47   H16   1.111354 S    
C12   C34   1.424004 A    
C5    N1    1.366559 A    
C49   C52   1.405097 A    
C33   C34   1.416211 A    
Cu2   N3    2.013673 S    
O2    Cu2   1.962393 S    
C6    C15   1.398954 A    
C43   C44   1.400228 A    
O6    C3    1.292619 A    
O4    Cu2   1.950588 S    
C26   O12   1.349686 S    
C19   C20   1.419432 A    
O2    C1    1.289107 A    
C42   C43   1.418087 A    
C14   C36   1.391797 A    
C53   H22   1.109817 S    
C46   C47   1.494320 S    
C48   H17   1.112445 S    
C52   C53   1.489301 S    
C25   C26   1.404514 A    
C36   H5    1.076117 S    
C38   C39   1.389386 A    
C31   C32   1.397685 A    
C55   H28   1.111078 S    
Cu2   O6    1.961178 S    
C34   C35   1.423120 A    
C10   C11   1.404404 A    
N4    C52   1.363218 A    
C28   H2    1.083011 S    
C25   C39   1.396244 A    
