data_mof_unit_4492.cif
_audit_creation_date              2012-12-11T14:03:18-0500
_audit_creation_method            fapswitch 2.2
_symmetry_space_group_name_H-M    P1
_symmetry_Int_Tables_number       1
_space_group_crystal_system       triclinic
_cell_length_a                    6.974233
_cell_length_b                    11.411647
_cell_length_c                    18.877299
_cell_angle_alpha                 89.954646
_cell_angle_beta                  93.135815
_cell_angle_gamma                 89.711085
_cell_volume                      1500.12724145

loop_
_atom_site_label
_atom_site_type_symbol
_atom_type_description
_atom_site_fract_x
_atom_site_fract_y
_atom_site_fract_z
_atom_type_partial_charge
O1    O     O_R   0.330540 0.606360 0.598870 -0.527501
O2    O     O_R   0.669460 0.106360 0.401130 -0.516555
O3    O     O_R   0.026770 0.620470 0.750430 -0.554262
O4    O     O_R   0.973230 0.120470 0.249570 -0.562898
O5    O     O_R   0.856460 0.393640 0.750930 -0.562999
O6    O     O_R   0.143540 0.893640 0.249070 -0.562237
C1    C     C_R   0.198547 0.647571 0.774327 0.693098
C2    C     C_R   0.799723 0.149588 0.226604 0.676836
O7    O     O_R   0.000920 0.620350 0.599420 -0.527455
O8    O     O_R   0.999080 0.120350 0.400580 -0.545264
O9    O     O_R   0.830430 0.393520 0.598850 -0.527829
O10   O     O_R   0.169570 0.893520 0.401150 -0.525229
C3    C     C_R   0.166267 0.645078 0.573250 0.715231
C4    C     C_R   0.833613 0.145521 0.426336 0.712670
O11   O     O_R   0.356570 0.606480 0.750960 -0.546735
O12   O     O_R   0.643430 0.106480 0.249040 -0.540707
O13   O     O_3   0.176990 0.425580 0.674890 -0.377314
O14   O     O_3   0.823010 0.925580 0.325110 -0.368456
V1    V     V_3+5 0.902170 0.513810 0.674910 1.443389
V2    V     V_3+5 0.097830 0.013810 0.325090 1.418392
O15   O     O_R   0.500800 0.379530 0.599380 -0.534608
O16   O     O_R   0.499200 0.879530 0.400620 -0.521573
C5    C     C_R   0.666557 0.352958 0.574247 0.691766
C6    C     C_R   0.333854 0.852262 0.425361 0.727994
O17   O     O_R   0.526650 0.379650 0.750390 -0.544697
O18   O     O_R   0.473350 0.879650 0.249610 -0.539776
C7    C     C_R   0.699736 0.354405 0.775334 0.757904
C8    C     C_R   0.302786 0.852242 0.225585 0.792878
V3    V     V_3+5 0.402160 0.486190 0.674900 1.451505
V4    V     V_3+5 0.597840 0.986190 0.325100 1.493676
O19   O     O_3   0.677210 0.574420 0.674910 -0.369131
O20   O     O_3   0.322790 0.074420 0.325090 -0.385083
C9    C     C_R   0.791143 0.090050 0.887345 -0.230536
C10   C     C_R   0.325478 0.585220 0.113035 -0.254119
C11   C     C_R   0.725210 0.282012 0.839180 -0.258013
C12   C     C_R   0.294032 0.777535 0.162123 -0.254239
C13   C     C_R   0.767768 0.354102 0.189395 -0.246807
C14   C     C_R   0.202249 0.851022 0.810478 -0.211299
C15   C     C_R   0.773682 0.441101 0.138713 -0.246584
C16   C     C_R   0.245134 0.938166 0.858781 -0.230605
C17   C     C_R   0.794929 0.414166 0.066047 0.524580
C18   C     C_R   0.295119 0.913713 0.931051 0.502667
C19   C     C_R   0.771080 0.294696 0.043123 0.000755
C20   C     C_R   0.286413 0.794003 0.956531 -0.005717
C21   C     C_R   0.765271 0.206642 0.097352 -0.042698
C22   C     C_R   0.255556 0.705066 0.902876 -0.051726
C23   C     C_R   0.762557 0.256429 0.969515 -0.013957
C24   C     C_R   0.303720 0.755050 0.030930 -0.027888
C25   C     C_R   0.783149 0.133792 0.956047 -0.022915
C26   C     C_R   0.311659 0.631263 0.044324 -0.033342
C27   C     C_R   0.780495 0.052298 0.010705 -0.056695
C28   C     C_R   0.299328 0.550369 0.989524 0.005135
C29   C     C_R   0.754824 0.088019 0.079029 -0.126605
C30   C     C_R   0.264982 0.586065 0.920785 -0.134530
C31   C     C_R   0.721158 0.331128 0.909107 0.349050
C32   C     C_R   0.301238 0.828563 0.093104 0.351154
C33   C     C_R   0.769103 0.163363 0.829353 0.388303
C34   C     C_R   0.307888 0.656453 0.171838 0.390817
C35   C     C_R   0.776841 0.237494 0.169835 -0.072168
C36   C     C_R   0.216211 0.735204 0.830889 -0.081704
H1    H     H_    0.775012 0.529571 0.158833 0.133340
H2    H     H_    0.252403 0.025254 0.837051 0.130066
C37   C     C_2   0.833782 0.225609 0.488699 0.146274
C38   C     C_2   0.167762 0.720972 0.508917 0.169709
C39   C     C_2   0.667087 0.270705 0.512959 0.169812
C40   C     C_2   0.334155 0.767251 0.485158 0.142118
O21   O     O_3   0.767733 0.114305 0.762365 -0.552776
C41   C     C_3   0.947386 0.131767 0.732947 -0.224882
H3    H     H_    0.064488 0.162338 0.771080 0.108133
H4    H     H_    0.929741 0.196704 0.689421 0.165061
H5    H     H_    0.994541 0.047994 0.709680 0.142546
O22   O     O_3   0.330328 0.610242 0.239793 -0.559190
C42   C     C_3   0.175767 0.534974 0.252184 -0.300732
H6    H     H_    0.171088 0.458050 0.216141 0.158667
H7    H     H_    0.036868 0.583552 0.248146 0.134369
H8    H     H_    0.195822 0.499576 0.306818 0.140805
O23   O     O_3   0.491349 0.232710 0.483782 -0.553116
C43   C     C_3   0.405212 0.322322 0.441257 -0.175910
H9    H     H_    0.510227 0.371539 0.410265 0.061852
H10   H     H_    0.322580 0.382521 0.474306 0.154749
H11   H     H_    0.300863 0.281841 0.402331 0.179041
O24   O     O_3   0.511171 0.733468 0.515245 -0.536474
C44   C     C_3   0.569700 0.632478 0.478936 -0.077518
H12   H     H_    0.592203 0.652077 0.422436 0.108793
H13   H     H_    0.463349 0.561045 0.481088 0.048971
H14   H     H_    0.704769 0.599029 0.505120 0.177860
H15   H     H_    0.786941 0.958989 0.999974 0.123535
H16   H     H_    0.305544 0.456916 0.000238 0.127795
H17   H     H_    0.809989 0.996919 0.878246 0.158215
H18   H     H_    0.344937 0.491715 0.120972 0.147666
O25   O     O_3   0.632893 0.439116 0.919664 -0.556029
C45   C     C_3   0.716543 0.532118 0.882474 -0.095642
H19   H     H_    0.640731 0.547226 0.830538 0.130684
H20   H     H_    0.873783 0.520770 0.877489 0.124737
H21   H     H_    0.691548 0.614956 0.910828 0.145881
O26   O     O_3   0.336927 0.947252 0.088938 -0.527827
C46   C     C_3   0.185888 0.015653 0.113959 -0.148170
H22   H     H_    0.238564 0.063050 0.162373 0.154477
H23   H     H_    0.055394 0.964528 0.124613 0.086203
H24   H     H_    0.144550 0.083778 0.074600 0.144674
H25   H     H_    0.766038 0.378306 0.244899 0.125741
H26   H     H_    0.172174 0.874006 0.755242 0.127896
O27   O     O_3   0.871146 0.495463 0.020129 -0.545607
C47   C     C_3   0.850321 0.613788 0.041355 -0.247273
H27   H     H_    0.900502 0.671934 0.999221 0.149404
H28   H     H_    0.942060 0.634197 0.089433 0.129803
H29   H     H_    0.698208 0.636135 0.049194 0.152811
O28   O     O_3   0.390127 0.999394 0.971372 -0.519703
C48   C     C_3   0.323461 0.115009 0.956713 -0.184344
H30   H     H_    0.165042 0.119765 0.949242 0.108200
H31   H     H_    0.391613 0.151999 0.909992 0.129929
H32   H     H_    0.366880 0.171954 0.002328 0.167807
H33   H     H_    0.738463 0.020411 0.118457 0.127936
H34   H     H_    0.246258 0.517754 0.881280 0.114173
O29   O     O_3   0.009531 0.257560 0.520945 -0.560920
C49   C     C_3   0.097472 0.158902 0.554710 -0.154961
H35   H     H_    0.182002 0.108299 0.517025 0.179461
H36   H     H_    0.992875 0.099733 0.579144 0.077005
H37   H     H_    0.199290 0.190082 0.597740 0.166776
O30   O     O_3   0.995832 0.735426 0.469508 -0.534936
C50   C     C_3   0.993949 0.655490 0.412108 -0.236283
H38   H     H_    0.127058 0.658917 0.382387 0.115714
H39   H     H_    0.875251 0.679231 0.373298 0.165772
H40   H     H_    0.971811 0.564425 0.430921 0.092483

loop_
_geom_bond_atom_site_label_1
_geom_bond_atom_site_label_2
_ccdc_geom_bond_type
C14   C16   A    
C37   C39   D    
C42   H7    S    
C42   H6    S    
O4    C2    A    
V1    O19   S    
C47   H28   S    
C46   H22   S    
C23   C25   A    
O23   C43   S    
O28   C48   S    
O9    V1    S    
O3    C1    A    
C48   H31   S    
C2    C35   S    
C43   H10   S    
C9    C25   A    
O29   C49   S    
C16   H2    S    
C49   H35   S    
C32   O26   S    
O7    C3    A    
C50   H40   S    
C31   O25   S    
O5    C7    A    
O7    V1    S    
O6    C8    A    
C28   C30   A    
C41   H3    S    
C25   C27   A    
C26   C28   A    
O3    V1    S    
O14   V4    S    
V4    O20   S    
C19   C23   A    
C6    C40   S    
C14   H26   S    
C37   O29   S    
C16   C18   A    
C21   C29   A    
C2    O12   A    
C17   C19   A    
O10   V2    S    
C18   C20   A    
C33   O21   S    
O1    V3    S    
C47   H27   S    
C46   H23   S    
C29   H33   S    
O11   V3    S    
O17   V3    S    
C15   H1    S    
C10   C26   A    
C39   O23   S    
C18   O28   S    
C11   C31   A    
O21   C41   S    
C28   H16   S    
C15   C17   A    
O8    C4    A    
C48   H32   S    
C27   H15   S    
O25   C45   S    
C43   H9    S    
C1    O11   A    
C20   C22   A    
C7    C11   S    
O15   V3    S    
C45   H21   S    
C17   O27   S    
C27   C29   A    
C38   C40   D    
C10   H18   S    
C12   C32   A    
C9    H17   S    
C40   O24   S    
C44   H12   S    
O26   C46   S    
C22   C30   A    
C45   H20   S    
C24   C26   A    
C19   C21   A    
C50   H38   S    
C13   C35   A    
C14   C36   A    
C44   H13   S    
O18   V4    S    
O15   C5    A    
C42   H8    S    
O16   C6    A    
O1    C3    A    
C1    C36   S    
C46   H24   S    
O30   C50   S    
C23   C31   A    
V2    O20   S    
C24   C32   A    
C21   C35   A    
C9    C33   A    
O16   V4    S    
C22   C36   A    
O18   C8    A    
O22   C42   S    
O5    V1    S    
O17   C7    A    
O6    V2    S    
O10   C6    A    
C12   C34   A    
C38   O30   S    
C49   H37   S    
O2    V4    S    
C11   C33   A    
C5    C39   S    
V3    O19   S    
O13   V3    S    
C13   H25   S    
C43   H11   S    
C34   O22   S    
C3    C38   S    
O8    V2    S    
C41   H5    S    
C4    C37   S    
C30   H34   S    
O9    C5    A    
C45   H19   S    
O13   V1    S    
C49   H36   S    
O14   V2    S    
O2    C4    A    
C50   H39   S    
O4    V2    S    
C13   C15   A    
C44   H14   S    
C8    C12   S    
C41   H4    S    
O24   C44   S    
O27   C47   S    
C10   C34   A    
C48   H30   S    
O12   V4    S    
C47   H29   S    
C20   C24   A    
