data_mof_unit_4830.cif
_audit_creation_date              2012-12-10T20:48:17-0500
_audit_creation_method            fapswitch 2.2
_symmetry_space_group_name_H-M    P1
_symmetry_Int_Tables_number       1
_space_group_crystal_system       triclinic
_cell_length_a                    10.673504
_cell_length_b                    8.924274
_cell_length_c                    8.109131
_cell_angle_alpha                 89.993292
_cell_angle_beta                  90.084858
_cell_angle_gamma                 89.993614
_cell_volume                      772.420421695

loop_
_atom_site_label
_atom_site_type_symbol
_atom_type_description
_atom_site_fract_x
_atom_site_fract_y
_atom_site_fract_z
_atom_type_partial_charge
C1    C     C_R   0.500035 0.218008 0.500007 0.931500
C2    C     C_R   0.257567 0.492106 0.499958 1.040804
C3    C     C_R   0.742577 0.493811 0.500278 0.982910
C4    C     C_R   0.500029 0.781955 0.499994 0.975171
C5    C     C_1   0.500041 0.065200 0.500011 -0.133621
C6    C     C_3   0.071247 0.430082 0.670246 0.285241
C7    C     C_3   0.072664 0.388788 0.355089 0.114754
C8    C     C_3   0.927458 0.414650 0.664184 0.197748
C9    C     C_3   0.928701 0.403423 0.346372 0.274664
C10   C     C_1   0.500041 0.934769 0.499994 -0.127251
C11   C     C_3   0.074249 0.656765 0.476544 0.650945
C12   C     C_3   0.927813 0.659974 0.500405 0.543202
C13   C     C_3   0.121588 0.490086 0.499913 -0.339390
C14   C     C_3   0.878531 0.491697 0.501413 -0.375364
H1    H     H_    0.092234 0.517045 0.764840 0.177401
H2    H     H_    0.110575 0.428748 0.234684 0.136012
H3    H     H_    0.890597 0.474659 0.774954 0.147656
H4    H     H_    0.908245 0.469787 0.234062 0.088962
N1    N     N_1   0.500000 0.500030 0.073640 -0.016685
N2    N     N_1   0.500000 0.500030 0.926360 -0.017354
O1    O     O_R   0.500000 0.285340 0.636850 -0.617807
O2    O     O_R   0.500000 0.285340 0.363150 -0.615575
O3    O     O_R   0.314790 0.499970 0.636880 -0.574453
O4    O     O_R   0.314790 0.499970 0.363120 -0.633949
O5    O     O_R   0.685210 0.499970 0.636880 -0.662350
O6    O     O_R   0.685210 0.499970 0.363120 -0.604229
O7    O     O_R   0.500000 0.714650 0.636900 -0.619099
O8    O     O_R   0.500000 0.714650 0.363100 -0.602091
Zn1   Zn    Zn3+2 0.500000 0.499990 0.682780 1.035780
Zn2   Zn    Zn3+2 0.500000 0.499990 0.317220 1.043577
O9    O     O_3   0.132579 0.299574 0.727063 -0.694026
H5    H     H_    0.107594 0.213023 0.658654 0.427237
O10   O     O_3   0.110140 0.238514 0.373315 -0.707819
H6    H     H_    0.198558 0.231182 0.336405 0.350339
O11   O     O_3   0.889973 0.263813 0.675764 -0.719195
H7    H     H_    0.804503 0.261884 0.723677 0.358300
O12   O     O_3   0.866465 0.265896 0.318992 -0.661431
H8    H     H_    0.894166 0.191106 0.401055 0.438938
O13   O     O_3   0.131663 0.747782 0.597455 -0.710601
H9    H     H_    0.111550 0.853667 0.570261 0.407030
O14   O     O_3   0.111167 0.713516 0.320770 -0.715242
H10   H     H_    0.060772 0.666375 0.232547 0.306483
O15   O     O_3   0.901403 0.725827 0.655048 -0.727423
H11   H     H_    0.811319 0.753506 0.656984 0.367524
O16   O     O_3   0.870704 0.751914 0.378953 -0.722820
H12   H     H_    0.853989 0.694006 0.277640 0.315597

loop_
_geom_bond_atom_site_label_1
_geom_bond_atom_site_label_2
_ccdc_geom_bond_type
C8    H3    S    
C11   O13   S    
O15   H11   S    
C1    O1    A    
O12   H8    S    
O7    Zn1   S    
C11   C13   S    
O14   H10   S    
O9    H5    S    
C3    O5    A    
C9    C14   S    
C9    O12   S    
C6    O9    S    
C1    O2    A    
O16   H12   S    
C6    C13   S    
O5    Zn1   S    
C7    O10   S    
C3    C14   S    
O1    Zn1   S    
C1    C5    S    
O3    Zn1   S    
O8    Zn2   S    
C7    H2    S    
C4    O8    A    
C12   C14   S    
O6    Zn2   S    
C12   O15   S    
N2    Zn1   S    
C2    O4    A    
O4    Zn2   S    
C5    C10   T    
O13   H9    S    
C9    H4    S    
C7    C13   S    
C4    O7    A    
O10   H6    S    
C6    C8    S    
C11   O14   S    
C2    O3    A    
C7    C9    S    
C2    C13   S    
C8    C14   S    
O2    Zn2   S    
C6    H1    S    
N1    Zn2   S    
C4    C10   S    
C8    O11   S    
C3    O6    A    
N1    N2    T    
C11   C12   S    
C12   O16   S    
O11   H7    S    
