data_mof_unit_1358.cif
_audit_creation_date              2012-12-10T19:16:28-0500
_audit_creation_method            fapswitch 2.2
_symmetry_space_group_name_H-M    P1
_symmetry_Int_Tables_number       1
_space_group_crystal_system       triclinic
_cell_length_a                    10.798509
_cell_length_b                    9.93489
_cell_length_c                    27.667462
_cell_angle_alpha                 89.206604
_cell_angle_beta                  89.93203
_cell_angle_gamma                 90.488591
_cell_volume                      2967.82562274

loop_
_atom_site_label
_atom_site_type_symbol
_atom_type_description
_atom_site_fract_x
_atom_site_fract_y
_atom_site_fract_z
_atom_type_partial_charge
C1    C     C_R   0.258441 0.500303 0.501128 0.831086
C2    C     C_R   0.374844 0.519740 0.974018 0.047025
C3    C     C_R   0.600005 0.556342 0.974474 0.002217
C4    C     C_R   0.500047 0.500910 0.406274 0.906572
C5    C     C_R   0.488541 0.537138 0.948834 0.076177
C6    C     C_R   0.267308 0.487624 0.947487 -0.201830
C7    C     C_R   0.270876 0.478178 0.897646 -0.103669
C8    C     C_R   0.381392 0.501436 0.872465 -0.025453
C9    C     C_R   0.490847 0.533517 0.897731 -0.049902
C10   C     C_R   0.602202 0.560332 0.871991 -0.106802
C11   C     C_R   0.600729 0.545721 0.821262 0.490452
C12   C     C_R   0.504820 0.630626 0.278308 -0.112299
C13   C     C_R   0.384884 0.491129 0.822318 0.511160
C14   C     C_R   0.420058 0.595455 0.719490 -0.109757
C15   C     C_R   0.421454 0.591076 0.669459 -0.273708
C16   C     C_R   0.741484 0.500665 0.502771 0.844692
C17   C     C_R   0.570900 0.410463 0.672691 -0.212285
C18   C     C_R   0.567520 0.412483 0.722899 -0.090645
C19   C     C_R   0.492884 0.506018 0.746403 0.308569
C20   C     C_R   0.372671 0.531678 0.024945 0.017511
C21   C     C_R   0.485353 0.535152 0.050630 0.075876
C22   C     C_R   0.599877 0.542446 0.025412 0.065680
C23   C     C_R   0.490154 0.511069 0.252981 0.323754
C24   C     C_R   0.260999 0.542520 0.050750 -0.240679
C25   C     C_R   0.709475 0.522648 0.101772 -0.156225
C26   C     C_R   0.707922 0.591887 0.948547 -0.205459
C27   C     C_R   0.710017 0.597960 0.898082 0.006720
C28   C     C_R   0.500279 0.499318 0.593505 0.837577
C29   C     C_R   0.710967 0.532307 0.051890 -0.223888
C30   C     C_3   0.072322 0.641289 0.523930 -0.074840
C31   C     C_3   0.072093 0.383824 0.537070 -0.111596
C32   C     C_3   0.928771 0.646026 0.518702 -0.138030
C33   C     C_3   0.929790 0.398453 0.542687 -0.158561
C34   C     C_R   0.483930 0.530386 0.101780 -0.079935
C35   C     C_3   0.067444 0.484807 0.449473 -0.093324
C36   C     C_3   0.121338 0.502188 0.503445 -0.074849
C37   C     C_3   0.878317 0.502751 0.504057 -0.113932
C38   C     C_3   0.924448 0.466175 0.453257 -0.458251
C39   C     C_3   0.372685 0.076717 0.494464 -0.087629
C40   C     C_3   0.374182 0.917625 0.489814 -0.129956
C41   C     C_3   0.576055 0.082382 0.458707 -0.240718
C42   C     C_3   0.585049 0.922610 0.461610 -0.263709
C43   C     C_3   0.558143 0.076502 0.543674 -0.122041
C44   C     C_3   0.547213 0.917033 0.545679 -0.117739
C45   C     C_R   0.370023 0.531498 0.127631 -0.059734
C46   C     C_R   0.375654 0.520591 0.178670 0.496501
C47   C     C_R   0.596763 0.517060 0.177247 0.501143
C48   C     C_R   0.479983 0.387648 0.277505 -0.089244
C49   C     C_R   0.484138 0.383772 0.327699 -0.189890
C50   C     C_R   0.508910 0.627176 0.328410 -0.143093
C51   C     C_2   0.824572 0.651815 0.874763 0.476659
C52   C     C_3   0.125989 0.689701 0.573870 -0.349138
C53   C     C_3   0.035569 0.709223 0.616498 -0.382831
C54   C     C_3   0.104010 0.736495 0.663607 -0.829306
C55   C     C_3   0.136664 0.369169 0.587673 -0.430431
C56   C     C_R   0.257135 0.544229 0.101280 0.123364
C57   C     C_3   0.124923 0.227753 0.610508 -0.333166
C58   C     C_3   0.177853 0.224824 0.661756 -0.714674
C59   C     C_2   0.893398 0.761725 0.485154 0.348263
C60   C     C_2   0.871584 0.259890 0.542614 0.387203
C61   C     C_2   0.096707 0.607293 0.417226 0.330274
C62   C     C_2   0.123373 0.368454 0.421995 0.447079
C63   C     C_2   0.294258 0.139331 0.455673 0.434640
C64   C     C_2   0.313511 0.866211 0.443872 0.582007
C65   C     C_2   0.521809 0.135795 0.591410 0.516101
C66   C     C_2   0.480517 0.866139 0.590954 0.467299
C67   C     C_R   0.597415 0.523756 0.127004 -0.002811
C68   C     C_3   0.130496 0.565268 0.124160 -0.351514
C69   C     C_3   0.118772 0.708544 0.143765 -0.328349
C70   C     C_3   0.993644 0.728665 0.168186 -0.777489
C71   C     C_R   0.498098 0.503731 0.353497 -0.047967
C72   C     C_R   0.496902 0.498981 0.645909 -0.028767
H1    H     H_    0.520975 0.720964 0.347345 0.190580
H2    H     H_    0.881848 0.668982 0.553005 0.143153
H3    H     H_    0.908364 0.440802 0.578696 0.159254
H4    H     H_    0.513245 0.725922 0.259052 0.137737
H5    H     H_    0.875443 0.525358 0.424798 0.144728
H6    H     H_    0.894341 0.360781 0.446933 0.226670
H7    H     H_    0.320588 0.098478 0.527865 0.142112
H8    H     H_    0.311003 0.876966 0.517683 0.120839
H9    H     H_    0.541163 0.113386 0.422785 0.223704
H10   H     H_    0.572048 0.877608 0.425682 0.205253
H11   H     H_    0.658532 0.098148 0.541601 0.143666
H12   H     H_    0.469139 0.295187 0.257617 0.143477
H13   H     H_    0.642961 0.878003 0.550845 0.096850
H14   H     H_    0.671025 0.126594 0.459793 0.147511
H15   H     H_    0.681908 0.896330 0.470291 0.168388
H16   H     H_    0.364078 0.659720 0.649078 0.188581
H17   H     H_    0.362947 0.668724 0.737409 0.157084
H18   H     H_    0.186178 0.451827 0.878921 0.213382
H19   H     H_    0.179820 0.463375 0.964491 0.156888
H20   H     H_    0.174831 0.556679 0.031744 0.144442
H21   H     H_    0.476082 0.287329 0.346152 0.202178
H22   H     H_    0.819593 0.714291 0.842417 0.116578
H23   H     H_    0.797092 0.513530 0.120508 0.182512
H24   H     H_    0.154312 0.645035 0.675596 0.261520
H25   H     H_    0.170072 0.822004 0.658983 0.288930
H26   H     H_    0.036246 0.762274 0.692169 0.261848
H27   H     H_    0.975612 0.797297 0.608603 0.244227
H28   H     H_    0.975706 0.619612 0.622568 0.212006
H29   H     H_    0.204562 0.626300 0.585423 0.203249
H30   H     H_    0.167684 0.790725 0.567727 0.236375
H31   H     H_    0.272975 0.267964 0.662536 0.292596
H32   H     H_    0.118397 0.284354 0.686157 0.249511
H33   H     H_    0.180507 0.119331 0.675497 0.252904
H34   H     H_    0.790501 0.624053 0.967240 0.172944
H35   H     H_    0.027099 0.195745 0.613223 0.263213
H36   H     H_    0.173981 0.153914 0.587873 0.251530
H37   H     H_    0.236954 0.392281 0.585129 0.229119
H38   H     H_    0.097401 0.440604 0.613624 0.222191
H39   H     H_    0.849128 0.743905 0.450672 0.079210
H40   H     H_    0.876246 0.197411 0.510810 0.110527
H41   H     H_    0.027968 0.683458 0.409938 0.085907
H42   H     H_    0.221430 0.372241 0.413933 0.152129
H43   H     H_    0.196744 0.149932 0.463361 0.052730
H44   H     H_    0.215465 0.843653 0.444730 0.040576
H45   H     H_    0.634211 0.343686 0.654925 0.161009
H46   H     H_    0.592844 0.151076 0.618375 0.055055
H47   H     H_    0.535146 0.822515 0.620045 0.057902
H48   H     H_    0.917556 0.716748 0.141599 0.248636
H49   H     H_    0.980658 0.654715 0.198289 0.296563
H50   H     H_    0.989370 0.831748 0.183064 0.250005
H51   H     H_    0.193257 0.730360 0.170192 0.258041
H52   H     H_    0.128321 0.782340 0.113376 0.212157
H53   H     H_    0.055679 0.551447 0.097004 0.164461
H54   H     H_    0.109866 0.486913 0.151965 0.253495
H55   H     H_    0.624660 0.343591 0.743541 0.157496
H56   H     H_    0.800615 0.526221 0.034818 0.143985
H57   H     H_    0.110367 0.718601 0.498684 0.145987
H58   H     H_    0.092114 0.289486 0.517429 0.149561
N1    N     N_R   0.487360 0.515399 0.201600 -0.353582
N2    N     N_R   0.493129 0.513311 0.797948 -0.345394
N3    N     N_3   0.499750 0.138610 0.498940 -0.080324
N4    N     N_3   0.499750 0.861390 0.498940 -0.085466
O1    O     O_R   0.314910 0.616040 0.499990 -0.628032
O2    O     O_2   0.281155 0.457264 0.797934 -0.564451
O3    O     O_2   0.704601 0.511933 0.201875 -0.566022
O4    O     O_2   0.705503 0.560972 0.795165 -0.589716
O5    O     O_2   0.926198 0.630168 0.892450 -0.588734
O6    O     O_2   0.915494 0.877643 0.496773 -0.617657
O7    O     O_2   0.820367 0.216591 0.579039 -0.650486
O8    O     O_2   0.198888 0.622707 0.398801 -0.560551
O9    O     O_2   0.061318 0.276992 0.405124 -0.571080
O10   O     O_2   0.332641 0.160831 0.414801 -0.559417
O11   O     O_2   0.366308 0.864894 0.404925 -0.538226
O12   O     O_R   0.314910 0.383960 0.499990 -0.647470
O13   O     O_2   0.413996 0.154275 0.602307 -0.576503
O14   O     O_2   0.370207 0.882946 0.597690 -0.620406
O15   O     O_R   0.500140 0.616020 0.428740 -0.592155
O16   O     O_R   0.500140 0.383980 0.428740 -0.610098
O17   O     O_R   0.685320 0.616040 0.499970 -0.651019
O18   O     O_R   0.685320 0.383960 0.499970 -0.624969
O19   O     O_R   0.500090 0.616050 0.571230 -0.645651
O20   O     O_R   0.500090 0.383950 0.571230 -0.591570
O21   O     O_2   0.271997 0.513602 0.205717 -0.557113
Zn1   Zn    Zn3+2 0.500150 0.654960 0.499980 0.950707
Zn2   Zn    Zn3+2 0.500150 0.345040 0.499980 0.972745

loop_
_geom_bond_atom_site_label_1
_geom_bond_atom_site_label_2
_ccdc_geom_bond_type
C10   C27   A    
C8    C13   A    
C64   H44   S    
O16   Zn2   S    
C64   O11   D    
C43   H11   S    
C41   C42   S    
C44   C66   S    
C35   C36   S    
C25   C67   A    
C62   O9    D    
C43   C44   S    
C11   N2    A    
C26   H34   S    
C41   N3    S    
C7    C8    A    
O12   Zn2   S    
C2    C6    A    
C53   C54   S    
C53   H27   S    
C4    O15   A    
C12   C23   A    
C52   H30   S    
C26   C27   A    
C22   C29   A    
C11   O4    S    
C35   C62   S    
C62   H42   S    
C31   H58   S    
C32   H2    S    
C60   O7    D    
C69   H51   S    
C6    H19   S    
C25   C29   A    
C18   C19   A    
C43   N3    S    
C33   H3    S    
N4    Zn1   S    
C20   C24   A    
C45   C56   A    
C70   H48   S    
C68   C69   S    
C42   H10   S    
C59   H39   S    
C65   H46   S    
C40   H8    S    
C54   H25   S    
C65   O13   D    
C9    C10   A    
C54   H24   S    
C17   H45   S    
C16   C37   S    
C63   H43   S    
C21   C22   A    
C55   H37   S    
C28   O20   A    
C46   O21   S    
C1    O12   A    
C28   C72   S    
C24   H20   S    
C47   C67   A    
C27   C51   S    
C53   H28   S    
C44   N4    S    
C52   H29   S    
C2    C20   A    
C35   C38   S    
O20   Zn2   S    
C35   C61   S    
C50   H1    S    
C46   N1    A    
C8    C9    A    
C21   C34   A    
C38   H6    S    
C69   H52   S    
C45   C46   A    
C7    H18   S    
C40   N4    S    
C33   C37   S    
O1    Zn1   S    
C48   H12   S    
C47   N1    A    
C39   H7    S    
C50   C71   A    
C14   H17   S    
C5    C9    A    
C37   C38   S    
C60   H40   S    
C18   H55   S    
C70   H50   S    
C43   C65   S    
C41   H9    S    
C47   O3    S    
C31   C33   S    
C17   C18   A    
C23   N1    S    
C16   O18   A    
C34   C45   A    
C32   C37   S    
O19   Zn1   S    
C48   C49   A    
C57   H35   S    
C25   H23   S    
C33   C60   S    
C66   H47   S    
C12   H4    S    
C55   H38   S    
C61   H41   S    
C28   O19   A    
C13   O2    S    
C2    C5    A    
C58   H32   S    
C63   O10   D    
C44   H13   S    
C68   H54   S    
C39   C40   S    
C4    O16   A    
C52   C53   S    
C39   N3    S    
C19   N2    S    
C30   C52   S    
O18   Zn2   S    
C23   C48   A    
C31   C36   S    
C66   O14   D    
C14   C19   A    
O15   Zn1   S    
C3    C26   A    
C3    C5    A    
C34   C67   A    
C12   C50   A    
C6    C7    A    
C58   H31   S    
C38   H5    S    
C24   C56   A    
C30   H57   S    
C39   C63   S    
C40   C64   S    
C30   C36   S    
C42   N4    S    
C58   H33   S    
C49   H21   S    
C55   C57   S    
C56   C68   S    
C30   C32   S    
C70   H49   S    
C57   C58   S    
C59   O6    D    
C13   N2    A    
C15   C72   A    
C16   O17   A    
N3    Zn2   S    
C69   C70   S    
C41   H14   S    
C10   C11   A    
C51   H22   S    
O17   Zn1   S    
C61   O8    D    
C57   H36   S    
C20   C21   A    
C17   C72   A    
C49   C71   A    
C29   H56   S    
C14   C15   A    
C54   H26   S    
C3    C22   A    
C42   H15   S    
C32   C59   S    
C31   C55   S    
C1    O1    A    
C68   H53   S    
C4    C71   S    
C1    C36   S    
C15   H16   S    
C51   O5    D    
