data_mof_unit_3004.cif
_audit_creation_date              2013-03-05T16:19:42-0500
_audit_creation_method            fapswitch 2.2
_symmetry_space_group_name_H-M    P1
_symmetry_Int_Tables_number       1
_space_group_crystal_system       triclinic
_cell_length_a                    10.670285
_cell_length_b                    9.675674
_cell_length_c                    27.544599
_cell_angle_alpha                 90.219363
_cell_angle_beta                  88.449799
_cell_angle_gamma                 90.270658
_cell_volume                      2842.67297469

loop_
_atom_site_label
_atom_site_type_symbol
_atom_site_description
_atom_site_fract_x
_atom_site_fract_y
_atom_site_fract_z
_atom_type_partial_charge
O1    O     O_R   0.314910 0.616040 0.499990 -0.637952
O2    O     O_R   0.314910 0.383960 0.499990 -0.638697
C1    C     C_R   0.257750 0.500022 0.499612 0.867525
O3    O     O_R   0.500140 0.616020 0.428740 -0.631593
O4    O     O_R   0.500140 0.383980 0.428740 -0.626398
C2    C     C_R   0.503623 0.499642 0.405625 0.859799
Zn1   Zn    Zn3+2 0.500150 0.654960 0.499980 0.920224
Zn2   Zn    Zn3+2 0.500150 0.345040 0.499980 0.922100
O5    O     O_R   0.685320 0.616040 0.499970 -0.618140
O6    O     O_R   0.685320 0.383960 0.499970 -0.623027
O7    O     O_R   0.500090 0.616050 0.571230 -0.631315
O8    O     O_R   0.500090 0.383950 0.571230 -0.613920
C3    C     C_R   0.742774 0.500452 0.499615 0.862470
C4    C     C_R   0.495965 0.500357 0.594162 0.921111
C5    C     C_R   0.325835 0.469878 0.181767 0.486147
O9    O     O_2   0.225436 0.461399 0.212280 -0.594444
N1    N     N_R   0.442469 0.474341 0.201077 -0.340996
C6    C     C_R   0.548806 0.476964 0.172534 0.509481
C7    C     C_R   0.517027 0.596875 0.272421 -0.143278
C8    C     C_R   0.546516 0.600641 0.321593 0.074821
C9    C     C_R   0.430061 0.384173 0.332230 -0.267802
C10   C     C_R   0.412401 0.376305 0.282591 -0.103640
C11   C     C_R   0.454857 0.483368 0.252621 0.288715
C12   C     C_R   0.422572 0.484298 0.101083 -0.082999
C13   C     C_R   0.311821 0.474112 0.130698 -0.047345
C14   C     C_R   0.193305 0.471627 0.107859 0.118578
C15   C     C_R   0.540958 0.486732 0.122322 -0.037933
C16   C     C_R   0.495642 0.496087 0.352533 -0.075747
H1    H     H_    0.391551 0.302199 0.354881 0.157195
H2    H     H_    0.365130 0.287386 0.267467 0.153563
C17   C     C_R   0.472265 0.502058 0.646611 -0.094624
C18   C     C_R   0.296885 0.461547 0.976445 0.029168
C19   C     C_R   0.507790 0.560544 0.972333 0.045595
C20   C     C_R   0.399033 0.514011 0.948910 0.081554
C21   C     C_R   0.195313 0.403464 0.952017 -0.273798
C22   C     C_R   0.190410 0.401823 0.901126 0.124551
C23   C     C_R   0.291745 0.460640 0.873051 -0.053703
C24   C     C_R   0.393304 0.521243 0.897829 -0.083651
C25   C     C_R   0.491139 0.588711 0.871712 -0.007884
C26   C     C_R   0.493115 0.585111 0.821352 0.503610
N2    N     N_R   0.400825 0.517443 0.797584 -0.359502
C27   C     C_R   0.299497 0.459798 0.821470 0.474165
C28   C     C_R   0.392149 0.621971 0.717876 -0.064860
C29   C     C_R   0.421783 0.620979 0.668614 -0.218582
C30   C     C_R   0.491482 0.383286 0.674369 -0.154428
C31   C     C_R   0.464120 0.383979 0.724438 0.012874
C32   C     C_R   0.414092 0.505175 0.746012 0.226046
O10   O     O_2   0.209641 0.400599 0.794931 -0.577622
C33   C     C_R   0.299834 0.469953 0.027771 0.039837
C34   C     C_R   0.415702 0.493268 0.050105 0.044993
C35   C     C_R   0.524782 0.525579 0.021523 0.001030
C36   C     C_R   0.190229 0.461451 0.057122 -0.254264
H3    H     H_    0.404115 0.713105 0.647688 0.159257
H4    H     H_    0.355447 0.715243 0.734714 0.151568
H5    H     H_    0.120302 0.352859 0.972370 0.140654
H6    H     H_    0.099667 0.457807 0.040635 0.144693
O11   O     O_2   0.662209 0.470838 0.193033 -0.601475
C37   C     C_R   0.649879 0.497759 0.093290 -0.195085
H7    H     H_    0.548452 0.679379 0.248457 0.139965
H8    H     H_    0.740929 0.490250 0.109479 0.179688
C38   C     C_R   0.591744 0.646365 0.946340 -0.251784
C39   C     C_R   0.585488 0.657955 0.896450 -0.147632
O12   O     O_2   0.588503 0.645651 0.796007 -0.545128
C40   C     C_R   0.644610 0.517886 0.043302 0.095996
H9    H     H_    0.662625 0.705322 0.964248 0.176923
H10   H     H_    0.529667 0.291289 0.657087 0.205316
H11   H     H_    0.656431 0.718840 0.877332 0.190302
C41   C     C_3   0.074346 0.650798 0.492871 -0.451537
C42   C     C_3   0.070519 0.444460 0.548719 -0.463200
H12   H     H_    0.118369 0.696199 0.459318 0.170648
H13   H     H_    0.104043 0.336567 0.553579 0.169735
H14   H     H_    0.103792 0.716892 0.523821 0.169271
H15   H     H_    0.108057 0.506627 0.579238 0.164546
C43   C     C_3   0.931569 0.651852 0.490965 -0.122710
C44   C     C_3   0.925991 0.451710 0.550293 -0.157719
H16   H     H_    0.896333 0.719469 0.521231 0.157776
H17   H     H_    0.897374 0.530870 0.577915 0.159602
H18   H     H_    0.109019 0.452395 0.421950 0.165133
H19   H     H_    0.112255 0.302465 0.460136 0.178639
H20   H     H_    0.894985 0.432230 0.422935 0.153176
H21   H     H_    0.900414 0.295325 0.465545 0.183535
C45   C     C_3   0.075131 0.409421 0.457403 -0.406853
C46   C     C_3   0.121870 0.500914 0.499617 0.143143
C47   C     C_3   0.879498 0.501255 0.499614 -0.001668
C48   C     C_3   0.931505 0.403625 0.458923 -0.426871
C49   C     C_3   0.379214 0.080925 0.518436 -0.240082
C50   C     C_3   0.378646 0.918189 0.517875 -0.236360
H22   H     H_    0.300396 0.118805 0.496563 0.149264
H23   H     H_    0.300860 0.881099 0.495052 0.151299
H24   H     H_    0.361489 0.119209 0.556127 0.152680
H25   H     H_    0.358495 0.878485 0.555144 0.146574
H26   H     H_    0.443769 0.117690 0.425424 0.143751
H27   H     H_    0.446966 0.879095 0.424908 0.145859
C51   C     C_3   0.519292 0.081161 0.449233 -0.229317
C52   C     C_3   0.520491 0.918579 0.449320 -0.232365
C53   C     C_3   0.600717 0.082135 0.529178 -0.206792
C54   C     C_3   0.599172 0.919585 0.529929 -0.229094
N3    N     N_3   0.499750 0.138610 0.498940 -0.046573
N4    N     N_3   0.499750 0.861390 0.498940 -0.040735
H28   H     H_    0.693527 0.118467 0.514932 0.156871
H29   H     H_    0.692242 0.880420 0.517548 0.196650
H30   H     H_    0.590555 0.122655 0.566906 0.180062
H31   H     H_    0.584873 0.883020 0.567922 0.155907
H32   H     H_    0.609113 0.120982 0.433142 0.161133
H33   H     H_    0.611473 0.881876 0.433984 0.196704
C55   C     C_2   0.491378 0.260472 0.754103 0.435741
H34   H     H_    0.475023 0.261854 0.793125 0.057451
O13   O     O_2   0.532843 0.155083 0.735303 -0.560882
C56   C     C_3   0.769457 0.512090 0.015356 -0.432675
C57   C     C_3   0.848268 0.643402 0.023969 -0.366831
C58   C     C_3   0.942449 0.669423 0.982292 -0.877299
H35   H     H_    0.000722 0.576724 0.975541 0.265363
H36   H     H_    0.892896 0.694789 0.948553 0.259636
H37   H     H_    0.004566 0.757463 0.991593 0.254809
H38   H     H_    0.787597 0.735889 0.028369 0.226069
H39   H     H_    0.899638 0.632337 0.058182 0.218651
H40   H     H_    0.823214 0.421319 0.027944 0.180234
H41   H     H_    0.757565 0.490886 0.976213 0.221224
C59   C     C_2   0.892518 0.716197 0.443766 0.383590
H42   H     H_    0.910947 0.664352 0.409393 0.072352
O14   O     O_2   0.843996 0.830080 0.443912 -0.641909
C60   C     C_2   0.871493 0.314552 0.566907 0.434215
H43   H     H_    0.893821 0.220365 0.547074 0.053227
O15   O     O_2   0.802818 0.308401 0.603023 -0.575508
C61   C     C_3   0.067995 0.489292 0.134801 -0.338530
C62   C     C_3   0.052688 0.639177 0.152857 -0.330336
C63   C     C_3   0.932821 0.657548 0.183523 -0.819117
H44   H     H_    0.849672 0.640516 0.160985 0.269568
H45   H     H_    0.930559 0.584155 0.214449 0.289962
H46   H     H_    0.928836 0.764562 0.198167 0.239551
H47   H     H_    0.133373 0.671386 0.174894 0.253470
H48   H     H_    0.050066 0.709684 0.121130 0.202023
H49   H     H_    0.989011 0.465982 0.110546 0.158629
H50   H     H_    0.056108 0.412718 0.164385 0.249842
C64   C     C_3   0.074445 0.336465 0.879776 -0.349803
C65   C     C_3   0.098534 0.185282 0.865389 -0.317441
C66   C     C_3   0.985334 0.122308 0.840684 -0.806229
H51   H     H_    0.901419 0.126072 0.865415 0.249737
H52   H     H_    0.965741 0.179387 0.806825 0.287621
H53   H     H_    0.004885 0.012710 0.831218 0.250177
H54   H     H_    0.181716 0.176941 0.840466 0.257083
H55   H     H_    0.117937 0.124484 0.898508 0.205871
H56   H     H_    0.995475 0.338000 0.907023 0.166838
H57   H     H_    0.039275 0.398639 0.849347 0.250418
C67   C     C_3   0.635829 0.713592 0.337705 -0.442492
C68   C     C_3   0.764141 0.703660 0.310781 -0.333893
C69   C     C_3   0.837946 0.838690 0.314139 -0.878295
H58   H     H_    0.788436 0.922391 0.295016 0.261666
H59   H     H_    0.849560 0.869627 0.352494 0.298911
H60   H     H_    0.932210 0.825341 0.296711 0.251699
H61   H     H_    0.819162 0.618515 0.326668 0.215319
H62   H     H_    0.753730 0.679920 0.271662 0.250747
H63   H     H_    0.591820 0.815277 0.330657 0.204344
H64   H     H_    0.654938 0.708388 0.376806 0.224861

loop_
_geom_bond_atom_site_label_1
_geom_bond_atom_site_label_2
_geom_bond_distance
_ccdc_geom_bond_type
C61   H50   1.107802 S    
C62   C63   1.524317 S    
C53   H30   1.112031 S    
C44   C60   1.513855 S    
N2    C27   1.368057 A    
C21   C22   1.404201 A    
C12   C15   1.406454 A    
C4    C17   1.459954 S    
C67   C68   1.542569 S    
C56   H40   1.112865 S    
C64   C65   1.535092 S    
C30   C31   1.401958 A    
Zn1   O7    1.999737 S    
C43   C59   1.513082 S    
C66   H52   1.110902 S    
C3    C47   1.458866 S    
C65   H54   1.110332 S    
C26   O12   1.351113 S    
Zn1   N4    1.997692 S    
C39   H11   1.083484 S    
C22   C23   1.429460 A    
C69   H59   1.106988 S    
C23   C24   1.419490 A    
C50   H25   1.112615 S    
O4    C2    1.289550 A    
O7    C4    1.287415 A    
C49   H22   1.112038 S    
C44   C47   1.571418 S    
C5    C13   1.419379 A    
C55   H34   1.084283 S    
C51   N3    1.485561 S    
C41   C43   1.525881 S    
C5    O9    1.346025 S    
C53   H28   1.111305 S    
C5    N1    1.367016 A    
C23   C27   1.420929 A    
C42   H13   1.114846 S    
O5    C3    1.277806 A    
C57   C58   1.525957 S    
C65   H55   1.112026 S    
C52   H33   1.107669 S    
C69   H58   1.111198 S    
C29   H3    1.083391 S    
C2    C16   1.467447 S    
C58   H35   1.106083 S    
C53   N3    1.486798 S    
C42   H15   1.113983 S    
C28   C32   1.396969 A    
C41   H14   1.114851 S    
C67   H63   1.112194 S    
C64   H56   1.113261 S    
C51   H32   1.112786 S    
H27   C52   1.112357 S    
O1    Zn1   2.010361 S    
C9    C10   1.386994 A    
C37   C40   1.394042 A    
C38   C39   1.382637 A    
O3    Zn1   1.996707 S    
C54   N4    1.486860 S    
C56   H41   1.107304 S    
N1    C6    1.363017 A    
C50   N4    1.487251 S    
C59   O14   1.219631 D    
C12   C34   1.411084 A    
C66   H53   1.110429 S    
C17   C29   1.401525 A    
C6    C15   1.391468 A    
C21   H5    1.081094 S    
C18   C21   1.405001 A    
C69   H60   1.110610 S    
C12   C13   1.420926 A    
O3    C2    1.291641 A    
C49   H24   1.112619 S    
C25   C26   1.387029 A    
C49   C50   1.574579 S    
C27   O10   1.345841 S    
C8    C16   1.421513 A    
C7    H7    1.083949 S    
C13   C14   1.427645 A    
C9    H1    1.083536 S    
C15   C37   1.396701 A    
O1    C1    1.275155 A    
C14   C61   1.521592 S    
C18   C20   1.404957 A    
C7    C11   1.397064 A    
C28   C29   1.384926 A    
C63   H45   1.110788 S    
H20   C48   1.111365 S    
C42   C46   1.546142 S    
C14   C36   1.401891 A    
H19   C45   1.113389 S    
H18   C45   1.113475 S    
C6    O11   1.350720 S    
C62   H48   1.111748 S    
Zn2   O8    1.996907 S    
C33   C36   1.405900 A    
C53   C54   1.572997 S    
H26   C51   1.112414 S    
C34   C35   1.421659 A    
N2    C32   1.428293 S    
C58   H36   1.110401 S    
N1    C11   1.431760 S    
C47   C48   1.555531 S    
C28   H4    1.083157 S    
Zn2   N3    1.997432 S    
C44   H17   1.115329 S    
C54   H31   1.112358 S    
C43   H16   1.116062 S    
C68   H62   1.109252 S    
C67   H64   1.102941 S    
Zn2   O6    2.009628 S    
C26   N2    1.361090 A    
C9    C16   1.408672 A    
O8    C4    1.289582 A    
C33   C34   1.412560 A    
C50   H23   1.112017 S    
C1    C46   1.449943 S    
C61   C62   1.539326 S    
C60   O15   1.220947 D    
C63   H44   1.107869 S    
C22   C64   1.518545 S    
C57   H39   1.108732 S    
C68   C69   1.526106 S    
C61   H49   1.111300 S    
Zn1   O5    2.013122 S    
C25   C39   1.397825 A    
C31   C32   1.413010 A    
C64   H57   1.108262 S    
C10   H2    1.082908 S    
C20   C24   1.411987 A    
C41   C46   1.552080 S    
O2    Zn2   2.013856 S    
C35   C40   1.429325 A    
C43   C47   1.573695 S    
C65   C66   1.525654 S    
O6    C3    1.280473 A    
O4    Zn2   1.999540 S    
C59   H42   1.083474 S    
C19   C35   1.414385 A    
C45   C48   1.532738 S    
C66   H51   1.110953 S    
C8    C67   1.519495 S    
C7    C8    1.399061 A    
O2    C1    1.280656 A    
C63   H46   1.110371 S    
C56   C57   1.541452 S    
C40   C56   1.521575 S    
C24   C25   1.410667 A    
C55   O13   1.221280 D    
C62   H47   1.109529 S    
C31   C55   1.484560 S    
C19   C20   1.413864 A    
C42   C44   1.543512 S    
C58   H37   1.110305 S    
C52   N4    1.487093 S    
C51   C52   1.573209 S    
C49   N3    1.487362 S    
C54   H29   1.109214 S    
C18   C33   1.416968 A    
C68   H61   1.111802 S    
C38   H9    1.074578 S    
C19   C38   1.402652 A    
C45   C46   1.550414 S    
C17   C30   1.401677 A    
C30   H10   1.083815 S    
C41   H12   1.115985 S    
C10   C11   1.393438 A    
C60   H43   1.084858 S    
C37   H8    1.082744 S    
C57   H38   1.111307 S    
H21   C48   1.111879 S    
C36   H6    1.079137 S    
