data_mof_unit_1940.cif
_audit_creation_date              2012-12-10T18:37:11-0500
_audit_creation_method            fapswitch 2.2
_symmetry_space_group_name_H-M    P1
_symmetry_Int_Tables_number       1
_space_group_crystal_system       triclinic
_cell_length_a                    14.921297
_cell_length_b                    15.397684
_cell_length_c                    23.416419
_cell_angle_alpha                 90.926426
_cell_angle_beta                  103.532891
_cell_angle_gamma                 80.667608
_cell_volume                      5160.06891311

loop_
_atom_site_label
_atom_site_type_symbol
_atom_type_description
_atom_site_fract_x
_atom_site_fract_y
_atom_site_fract_z
_atom_type_partial_charge
C1    C     C_R   0.441141 0.662684 0.491787 0.863093
C2    C     C_R   0.444117 0.442317 0.290522 -0.214052
C3    C     C_R   0.575947 0.524580 0.773736 -0.103872
C4    C     C_R   0.443110 0.439743 0.231059 -0.105981
C5    C     C_R   0.499802 0.501282 0.791580 0.337760
C6    C     C_R   0.495725 0.491795 0.208454 0.343989
C7    C     C_R   0.405953 0.756905 0.493634 -0.059399
C8    C     C_R   0.595068 0.243975 0.522734 -0.065824
C9    C     C_R   0.283062 0.879646 0.495079 -0.209444
C10   C     C_R   0.719326 0.122659 0.559329 -0.210686
C11   C     C_R   0.311277 0.790518 0.486285 -0.201177
C12   C     C_R   0.558992 0.337430 0.509386 0.869262
C13   C     C_R   0.690091 0.211733 0.543895 -0.180253
C14   C     C_R   0.471449 0.813266 0.508042 -0.246225
C15   C     C_R   0.530251 0.187316 0.518402 -0.247032
C16   C     C_R   0.500274 0.500234 0.610462 0.869950
C17   C     C_R   0.499642 0.499267 0.389674 0.864791
C18   C     C_R   0.446207 0.901075 0.521192 0.084511
C19   C     C_R   0.556724 0.099992 0.538089 0.085177
C20   C     C_R   0.349712 0.936592 0.512330 0.120513
C21   C     C_R   0.653481 0.064881 0.555626 0.119213
C22   C     C_R   0.515569 0.954901 0.539095 0.027107
C23   C     C_R   0.424114 0.477644 0.750401 -0.111321
C24   C     C_R   0.488015 0.046091 0.536114 0.026504
C25   C     C_R   0.392684 0.081064 0.531240 -0.235603
C26   C     C_R   0.611518 0.920020 0.559408 -0.236401
C27   C     C_R   0.322739 0.027642 0.520204 0.080707
C28   C     C_R   0.681405 0.973464 0.568095 0.080847
C29   C     C_R   0.854952 0.554206 0.619052 -0.333585
C30   C     C_R   0.160703 0.369833 0.402078 -0.328544
C31   C     C_R   0.760772 0.568162 0.591639 -0.020733
C32   C     C_R   0.249226 0.392857 0.420549 -0.015870
C33   C     C_R   0.793917 0.533821 0.498650 0.183745
C34   C     C_R   0.549284 0.546416 0.244938 -0.107326
C35   C     C_R   0.203734 0.476914 0.498610 0.160963
C36   C     C_R   0.889495 0.504389 0.526082 -0.020268
C37   C     C_R   0.118370 0.442521 0.487064 -0.010396
C38   C     C_R   0.919570 0.518950 0.587065 0.158073
C39   C     C_R   0.093571 0.397475 0.434116 0.153981
C40   C     C_R   0.553184 0.426073 0.127648 0.487872
C41   C     C_R   0.440056 0.564789 0.872273 0.486736
C42   C     C_R   0.956654 0.463292 0.495683 0.054664
C43   C     C_R   0.052539 0.459180 0.522359 0.063801
C44   C     C_R   0.079534 0.467252 0.583568 -0.222583
C45   C     C_R   0.424323 0.477273 0.691223 -0.225279
C46   C     C_R   0.932429 0.420024 0.442069 -0.253834
C47   C     C_R   0.013721 0.496999 0.615606 -0.206294
C48   C     C_R   0.001171 0.383588 0.413148 -0.197987
C49   C     C_R   0.435191 0.553754 0.111569 0.505048
C50   C     C_R   0.556183 0.435693 0.887926 0.504397
C51   C     C_R   0.434439 0.556169 0.051999 -0.044153
C52   C     C_R   0.555594 0.432216 0.947279 -0.043286
C53   C     C_R   0.495044 0.492054 0.029680 -0.036573
C54   C     C_R   0.494891 0.496210 0.969597 -0.036560
C55   C     C_R   0.555762 0.424391 0.067489 -0.056794
C56   C     C_R   0.550493 0.548810 0.304353 -0.243896
C57   C     C_R   0.434502 0.564109 0.931867 -0.056571
C58   C     C_R   0.374063 0.621991 0.015110 -0.170051
C59   C     C_R   0.614433 0.365196 0.983896 -0.169882
C60   C     C_R   0.371730 0.627557 0.955066 0.083983
C61   C     C_R   0.616141 0.359102 0.043837 0.083853
C62   C     C_3   0.217955 0.555574 0.538202 -0.387307
C63   C     C_3   0.141874 0.636510 0.518187 -0.375284
C64   C     C_3   0.153335 0.710475 0.562234 -0.882369
C65   C     C_3   0.766391 0.570361 0.435994 -0.432034
C66   C     C_3   0.714786 0.666044 0.432742 -0.313944
C67   C     C_R   0.500513 0.500589 0.672830 -0.033581
C68   C     C_3   0.723266 0.716693 0.379164 -0.910042
C69   C     C_3   0.302514 0.699902 0.916368 -0.335674
C70   C     C_3   0.235057 0.761054 0.945791 -0.426158
C71   C     C_3   0.168641 0.827538 0.901452 -0.844082
C72   C     C_3   0.681553 0.283764 0.081837 -0.335310
C73   C     C_3   0.741048 0.216226 0.050922 -0.427167
C74   C     C_3   0.801162 0.144642 0.094072 -0.841461
C75   C     C_3   0.219826 0.066390 0.514468 -0.426040
C76   C     C_3   0.197932 0.165274 0.526377 -0.354613
C77   C     C_3   0.093484 0.194728 0.520988 -0.852896
C78   C     C_R   0.498355 0.496625 0.327425 -0.030162
C79   C     C_3   0.785102 0.934151 0.587435 -0.421021
C80   C     C_3   0.808495 0.833514 0.596925 -0.349154
C81   C     C_3   0.913926 0.802302 0.613291 -0.872096
C82   C     C_R   0.576438 0.524223 0.714482 -0.221415
H1    H     H_    0.373219 0.150137 0.538008 0.145413
H2    H     H_    0.403437 0.401433 0.307734 0.147455
H3    H     H_    0.741652 0.254977 0.548216 0.160861
H4    H     H_    0.259297 0.748154 0.473643 0.165985
H5    H     H_    0.328571 0.669395 0.034154 0.188284
H6    H     H_    0.659456 0.317449 0.964756 0.188349
H7    H     H_    0.208893 0.902834 0.488178 0.135256
H8    H     H_    0.793611 0.100176 0.574158 0.133674
H9    H     H_    0.138760 0.690687 0.604146 0.273301
H10   H     H_    0.225353 0.726003 0.571278 0.269002
H11   H     H_    0.103308 0.770592 0.544268 0.245464
H12   H     H_    0.631768 0.851035 0.570522 0.140950
H13   H     H_    0.146137 0.660099 0.474488 0.216089
H14   H     H_    0.070718 0.620805 0.513424 0.241512
H15   H     H_    0.225883 0.538918 0.584895 0.181060
H16   H     H_    0.283848 0.576788 0.537610 0.261661
H17   H     H_    0.796770 0.726446 0.383828 0.265181
H18   H     H_    0.701327 0.680780 0.338152 0.261456
H19   H     H_    0.678454 0.782322 0.375736 0.257750
H20   H     H_    0.639811 0.666482 0.431148 0.248762
H21   H     H_    0.744517 0.701826 0.472488 0.212067
H22   H     H_    0.829707 0.571618 0.419087 0.209072
H23   H     H_    0.036681 0.503907 0.662675 0.146070
H24   H     H_    0.723855 0.527624 0.406720 0.210835
H25   H     H_    0.876542 0.566047 0.665629 0.150785
H26   H     H_    0.144613 0.331684 0.362791 0.152601
H27   H     H_    0.150907 0.446174 0.607328 0.140476
H28   H     H_    0.861115 0.411059 0.423496 0.155571
H29   H     H_    0.208651 0.869086 0.881985 0.265041
H30   H     H_    0.125726 0.793009 0.865843 0.261317
H31   H     H_    0.121144 0.870893 0.923878 0.253608
H32   H     H_    0.192531 0.721570 0.964798 0.235496
H33   H     H_    0.275295 0.798179 0.981150 0.235133
H34   H     H_    0.981112 0.348993 0.372676 0.149933
H35   H     H_    0.343106 0.742462 0.898203 0.245367
H36   H     H_    0.258533 0.667606 0.879928 0.239627
H37   H     H_    0.849356 0.174051 0.129806 0.262738
H38   H     H_    0.756340 0.108546 0.113491 0.264239
H39   H     H_    0.843390 0.097078 0.070656 0.253524
H40   H     H_    0.694830 0.184196 0.015495 0.236436
H41   H     H_    0.788291 0.249638 0.031753 0.234454
H42   H     H_    0.730946 0.312983 0.117018 0.242813
H43   H     H_    0.638219 0.246470 0.101767 0.242867
H44   H     H_    0.365104 0.458361 0.660085 0.151783
H45   H     H_    0.302013 0.370303 0.396534 0.143806
H46   H     H_    0.590260 0.592521 0.332039 0.162337
H47   H     H_    0.634452 0.542939 0.805821 0.135988
H48   H     H_    0.401565 0.397681 0.202520 0.131330
H49   H     H_    0.053694 0.185567 0.475485 0.261887
H50   H     H_    0.068452 0.156494 0.552212 0.255551
H51   H     H_    0.080156 0.265480 0.531496 0.262769
H52   H     H_    0.235761 0.179065 0.571580 0.225786
H53   H     H_    0.219909 0.204390 0.494093 0.228754
H54   H     H_    0.180622 0.054924 0.469150 0.201630
H55   H     H_    0.193119 0.029989 0.545880 0.203530
H56   H     H_    0.710549 0.587858 0.617766 0.148761
H57   H     H_    0.945912 0.819870 0.577636 0.259899
H58   H     H_    0.946203 0.832799 0.654726 0.261759
H59   H     H_    0.928561 0.729632 0.619719 0.258788
H60   H     H_    0.778580 0.813435 0.632954 0.222558
H61   H     H_    0.778892 0.800547 0.555891 0.217619
H62   H     H_    0.820160 0.951627 0.553221 0.201782
H63   H     H_    0.815435 0.965207 0.629162 0.203324
H64   H     H_    0.458205 0.211721 0.497657 0.159304
H65   H     H_    0.542961 0.787948 0.507482 0.154060
H66   H     H_    0.365401 0.459326 0.764438 0.131596
H67   H     H_    0.589355 0.587154 0.227084 0.130470
H68   H     H_    0.635921 0.542536 0.701402 0.151254
N1    N     N_R   0.494142 0.490049 0.147502 -0.350095
N2    N     N_R   0.499250 0.500995 0.852310 -0.348513
N3    N     N_R   0.731690 0.552740 0.533440 -0.108995
N4    N     N_R   0.268310 0.447260 0.466560 -0.115656
O1    O     O_R   0.383120 0.605620 0.483150 -0.627648
O2    O     O_2   0.388195 0.628277 0.834024 -0.597048
O3    O     O_2   0.377692 0.614821 0.133876 -0.568652
O4    O     O_2   0.612769 0.373879 0.865502 -0.571364
O5    O     O_R   0.616880 0.394380 0.516850 -0.602709
O6    O     O_R   0.531890 0.639510 0.504600 -0.629619
O7    O     O_R   0.468110 0.360490 0.495400 -0.620545
O8    O     O_R   0.425590 0.483070 0.573110 -0.639920
O9    O     O_R   0.574410 0.516930 0.426890 -0.627790
O10   O     O_R   0.574360 0.516970 0.594570 -0.627567
O11   O     O_R   0.425640 0.483030 0.405430 -0.616359
O12   O     O_2   0.608972 0.365718 0.166754 -0.596522
Zn1   Zn    Zn3+2 0.400660 0.477370 0.485670 0.925134
Zn2   Zn    Zn3+2 0.599340 0.522630 0.514330 0.929013

loop_
_geom_bond_atom_site_label_1
_geom_bond_atom_site_label_2
_ccdc_geom_bond_type
C26   H12   S    
C81   H58   S    
C66   C68   S    
C34   C56   A    
C8    C13   A    
C23   C45   A    
C73   C74   S    
C14   C18   A    
C36   C42   A    
C35   N4    A    
C75   C76   S    
C58   H5    S    
C33   C65   S    
C79   H63   S    
C41   N2    A    
C53   C54   A    
C16   O10   A    
O6    Zn2   S    
C15   C19   A    
C74   H37   S    
C5    N2    S    
C32   H45   S    
C35   C37   A    
C64   H11   S    
C42   C46   A    
C33   N3    A    
C11   H4    S    
C58   C60   A    
C63   H13   S    
C69   H36   S    
C33   C36   A    
C56   C78   A    
O5    Zn2   S    
C71   H31   S    
C77   H49   S    
C55   C61   A    
C69   H35   S    
C1    O1    A    
C28   C79   S    
C66   H20   S    
C59   H6    S    
C17   O9    A    
C12   O7    A    
C62   H16   S    
C2    H2    S    
C34   H67   S    
C7    C14   A    
O1    Zn1   S    
C49   C51   A    
C71   H29   S    
C29   C38   A    
C45   C67   A    
C50   C52   A    
C70   C71   S    
C40   O12   S    
C44   C47   A    
C48   H34   S    
C41   O2    S    
C44   H27   S    
C80   H61   S    
C81   H59   S    
O11   Zn1   S    
C3    H47   S    
C72   H42   S    
C49   O3    S    
C77   H51   S    
C27   C75   S    
C31   N3    A    
C76   H53   S    
C52   C54   A    
C53   C55   A    
C10   C21   A    
C46   C48   A    
C59   C61   A    
C49   N1    A    
O10   Zn2   S    
C24   C25   A    
C4    C6    A    
C75   H55   S    
C9    H7    S    
C51   C58   A    
C76   H52   S    
C75   H54   S    
C72   C73   S    
C57   C60   A    
C4    H48   S    
C16   O8    A    
C63   C64   S    
C63   H14   S    
C10   C13   A    
C70   H32   S    
O8    Zn1   S    
C40   N1    A    
C51   C53   A    
C77   H50   S    
C37   C43   A    
C7    C11   A    
C43   C44   A    
C68   H18   S    
C62   C63   S    
C2    C78   A    
C52   C59   A    
C50   N2    A    
C62   H15   S    
C9    C20   A    
C79   H62   S    
C5    C23   A    
C45   H44   S    
C8    C12   S    
C40   C55   A    
C71   H30   S    
C3    C82   A    
C16   C67   S    
O7    Zn1   S    
C76   C77   S    
C31   H56   S    
C9    C11   A    
C38   C47   A    
C82   H68   S    
C32   N4    A    
C6    N1    S    
C61   C72   S    
C21   C28   A    
C73   H40   S    
C8    C15   A    
C80   H60   S    
C46   H28   S    
N3    Zn2   S    
C22   C24   A    
N4    Zn1   S    
C42   C43   A    
C64   H10   S    
C65   H24   S    
C81   H57   S    
C30   H26   S    
C1    C7    S    
C66   H21   S    
C1    O6    A    
C80   C81   S    
C3    C5    A    
C50   O4    S    
C15   H64   S    
C20   C27   A    
C70   H33   S    
C25   C27   A    
C74   H38   S    
C23   H66   S    
C26   C28   A    
C68   H19   S    
C65   H22   S    
C72   H43   S    
C18   C22   A    
O9    Zn2   S    
C68   H17   S    
C41   C57   A    
C37   C39   A    
C17   O11   A    
C30   C32   A    
C60   C69   S    
C2    C4    A    
C14   H65   S    
C36   C38   A    
C17   C78   S    
C30   C39   A    
C19   C24   A    
C35   C62   S    
C18   C20   A    
C56   H46   S    
C12   O5    A    
C69   C70   S    
C79   C80   S    
C6    C34   A    
C74   H39   S    
C10   H8    S    
C67   C82   A    
C29   C31   A    
C65   C66   S    
C22   C26   A    
C13   H3    S    
C25   H1    S    
C29   H25   S    
C64   H9    S    
C47   H23   S    
C39   C48   A    
C19   C21   A    
C54   C57   A    
C73   H41   S    
