data_mof_unit_4694.cif
_audit_creation_date              2012-12-11T14:44:08-0500
_audit_creation_method            fapswitch 2.2
_symmetry_space_group_name_H-M    P1
_symmetry_Int_Tables_number       1
_space_group_crystal_system       triclinic
_cell_length_a                    18.94281
_cell_length_b                    10.896009
_cell_length_c                    18.868919
_cell_angle_alpha                 89.796032
_cell_angle_beta                  90.251249
_cell_angle_gamma                 89.773476
_cell_volume                      3894.47148206

loop_
_atom_site_label
_atom_site_type_symbol
_atom_type_description
_atom_site_fract_x
_atom_site_fract_y
_atom_site_fract_z
_atom_type_partial_charge
Br1   Br    Br    0.607104 0.861224 0.590289 -0.431033
Br2   Br    Br    0.379301 0.788541 0.919386 -0.543044
Br3   Br    Br    0.110357 0.302548 0.077639 -0.574377
Br4   Br    Br    0.879301 0.288541 0.919386 -0.543044
Br5   Br    Br    0.521055 0.413014 0.590905 -0.365168
Br6   Br    Br    0.520334 0.439197 0.419222 -0.401481
Br7   Br    Br    0.021055 0.913014 0.590905 -0.365168
Br8   Br    Br    0.020334 0.939197 0.419222 -0.401481
Br9   Br    Br    0.373285 0.746703 0.427202 -0.456225
Br10  Br    Br    0.107104 0.361224 0.590289 -0.431033
Br11  Br    Br    0.873284 0.246702 0.427202 -0.456225
Br12  Br    Br    0.574231 0.387150 0.837132 -0.394713
Br13  Br    Br    0.439569 0.414631 0.160019 -0.474980
Br14  Br    Br    0.074231 0.887150 0.837132 -0.394713
Br15  Br    Br    0.939569 0.914631 0.160019 -0.474980
Br16  Br    Br    0.610357 0.802548 0.077639 -0.574377
C1    C     C_R   0.730460 0.378623 0.146515 0.540556
C2    C     C_R   0.998812 0.002644 0.031989 -0.122871
C3    C     C_R   0.996525 0.779095 0.037271 0.007046
C4    C     C_R   0.491373 0.056109 0.038965 -0.133318
C5    C     C_R   0.493158 0.053847 0.966220 -0.137647
C6    C     C_R   0.991373 0.556109 0.038965 -0.133318
C7    C     C_R   0.993158 0.553847 0.966220 -0.137647
C8    C     C_R   0.522860 0.497544 0.962591 -0.111935
C9    C     C_R   0.498812 0.502644 0.031989 -0.122871
C10   C     C_R   0.690860 0.877989 0.033988 0.131244
C11   C     C_R   0.312395 0.891737 0.967745 0.143745
C12   C     C_R   0.190860 0.377989 0.033988 0.131244
C13   C     C_R   0.812395 0.391737 0.967745 0.143745
C14   C     C_R   0.694724 0.869316 0.960525 -0.116502
C15   C     C_R   0.304504 0.867156 0.039560 -0.107641
C16   C     C_R   0.194724 0.369316 0.960525 -0.116502
C17   C     C_R   0.269908 0.377776 0.853771 0.548769
C18   C     C_R   0.804504 0.367156 0.039560 -0.107641
C19   C     C_R   0.752640 0.917962 0.924661 0.005771
C20   C     C_R   0.252425 0.927589 0.078543 -0.004224
C21   C     C_R   0.252640 0.417962 0.924661 0.005771
C22   C     C_R   0.752425 0.427588 0.078543 -0.004224
C23   C     C_R   0.804037 0.983785 0.961599 -0.116787
C24   C     C_R   0.211619 0.019737 0.046908 -0.120452
C25   C     C_R   0.304037 0.483785 0.961599 -0.116787
C26   C     C_R   0.711619 0.519737 0.046908 -0.120452
C27   C     C_R   0.801101 0.992486 0.033693 -0.144594
C28   C     C_R   0.230460 0.878623 0.146515 0.540556
C29   C     C_R   0.219296 0.046074 0.975954 -0.150618
C30   C     C_R   0.301101 0.492486 0.033693 -0.144594
C31   C     C_R   0.719296 0.546074 0.975954 -0.150618
C32   C     C_R   0.745519 0.938963 0.071433 0.049423
C33   C     C_R   0.268085 0.981296 0.935024 0.042132
C34   C     C_R   0.245519 0.438963 0.071433 0.049423
C35   C     C_R   0.768085 0.481296 0.935024 0.042132
C36   C     C_R   0.466483 0.065634 0.451049 -0.153985
C37   C     C_R   0.449775 0.063266 0.521939 -0.148051
C38   C     C_R   0.966483 0.565634 0.451049 -0.153985
C39   C     C_R   0.769908 0.877776 0.853771 0.548769
C40   C     C_R   0.949776 0.563266 0.521939 -0.148051
C41   C     C_R   0.462731 0.165170 0.564701 0.002981
C42   C     C_R   0.494525 0.171617 0.420497 -0.004942
C43   C     C_R   0.962731 0.665170 0.564701 0.002981
C44   C     C_R   0.994525 0.671617 0.420497 -0.004942
C45   C     C_R   0.530124 0.156145 0.147037 0.573238
C46   C     C_R   0.468933 0.155069 0.853675 0.580078
C47   C     C_R   0.030124 0.656145 0.147037 0.573238
C48   C     C_R   0.968933 0.655069 0.853675 0.580078
C49   C     C_R   0.489621 0.274699 0.534458 0.152858
C50   C     C_R   0.527198 0.385444 0.927302 0.167245
C51   C     C_R   0.500199 0.280462 0.461117 0.151977
C52   C     C_R   0.989621 0.774699 0.534458 0.152858
C53   C     C_R   0.000199 0.780462 0.461117 0.151977
C54   C     C_R   0.814799 0.932131 0.457987 -0.116320
C55   C     C_R   0.207002 0.016844 0.527868 -0.100365
C56   C     C_R   0.314799 0.432131 0.457987 -0.116320
C57   C     C_R   0.707002 0.516844 0.527868 -0.100365
C58   C     C_R   0.819503 0.924269 0.530410 -0.146584
C59   C     C_R   0.207339 0.005586 0.455383 -0.135057
C60   C     C_R   0.319503 0.424269 0.530410 -0.146584
C61   C     C_R   0.485556 0.394976 0.069858 0.157481
C62   C     C_R   0.707339 0.505586 0.455383 -0.135057
C63   C     C_R   0.759173 0.902318 0.571757 0.029220
C64   C     C_R   0.251013 0.918645 0.423120 0.024889
C65   C     C_R   0.259173 0.402318 0.571757 0.029220
C66   C     C_R   0.751013 0.418645 0.423120 0.024889
C67   C     C_R   0.693146 0.886576 0.538774 0.133560
C68   C     C_R   0.301093 0.852544 0.464659 0.132589
C69   C     C_R   0.193146 0.386576 0.538774 0.133560
C70   C     C_R   0.801093 0.352544 0.464659 0.132589
C71   C     C_R   0.688693 0.896516 0.465496 -0.107159
C72   C     C_R   0.027198 0.885444 0.927302 0.167245
C73   C     C_R   0.300143 0.864533 0.537907 -0.118573
C74   C     C_R   0.188693 0.396516 0.465496 -0.107159
C75   C     C_R   0.800143 0.364533 0.537907 -0.118573
C76   C     C_R   0.749252 0.923009 0.425356 -0.012025
C77   C     C_R   0.252400 0.944723 0.569767 -0.002569
C78   C     C_R   0.249252 0.423009 0.425356 -0.012025
C79   C     C_R   0.752400 0.444723 0.569767 -0.002569
C80   C     C_R   0.740038 0.972857 0.145811 0.584284
C81   C     C_R   0.271856 0.014856 0.860208 0.569150
C82   C     C_R   0.240038 0.472857 0.145811 0.584284
C83   C     C_R   0.985556 0.894976 0.069858 0.157481
C84   C     C_R   0.771856 0.514856 0.860208 0.569150
C85   C     C_R   0.730659 0.379071 0.352286 0.559867
C86   C     C_R   0.271246 0.376221 0.646263 0.564499
C87   C     C_R   0.230659 0.879071 0.352286 0.559867
C88   C     C_R   0.771246 0.876221 0.646263 0.564499
C89   C     C_R   0.530551 0.158325 0.352599 0.567221
C90   C     C_R   0.441163 0.154660 0.638543 0.554849
C91   C     C_R   0.030551 0.658325 0.352599 0.567221
C92   C     C_R   0.941163 0.654660 0.638543 0.554849
C93   C     C_R   0.741310 0.970314 0.354180 0.559099
C94   C     C_R   0.022860 0.997544 0.962591 -0.111935
C95   C     C_R   0.259277 0.975112 0.644074 0.564820
C96   C     C_R   0.241310 0.470314 0.354180 0.559099
C97   C     C_R   0.759277 0.475112 0.644074 0.564820
C98   C     C_R   0.497695 0.162272 0.926512 0.012713
C99   C     C_R   0.497759 0.166444 0.075823 0.015393
C100  C     C_R   0.997695 0.662272 0.926512 0.012713
C101  C     C_R   0.997759 0.666444 0.075823 0.015393
C102  C     C_R   0.507098 0.275638 0.962450 0.001317
C103  C     C_R   0.496525 0.279095 0.037271 0.007046
C104  C     C_R   0.007098 0.775638 0.962450 0.001317
Cr1   Cr    Cr6+3 0.772000 0.169640 0.250110 1.113836
Cr2   Cr    Cr6+3 0.383330 0.010620 0.749160 1.107905
Cr3   Cr    Cr6+3 0.116670 0.510620 0.250840 1.096645
Cr4   Cr    Cr6+3 0.883330 0.510620 0.749160 1.107905
Cr5   Cr    Cr6+3 0.228000 0.169640 0.749890 1.106714
Cr6   Cr    Cr6+3 0.272000 0.669640 0.250110 1.113836
Cr7   Cr    Cr6+3 0.728000 0.669640 0.749890 1.106714
Cr8   Cr    Cr6+3 0.614960 0.323350 0.249260 1.132738
Cr9   Cr    Cr6+3 0.385040 0.323350 0.750740 1.118523
Cr10  Cr    Cr6+3 0.114960 0.823350 0.249260 1.132738
Cr11  Cr    Cr6+3 0.885040 0.823350 0.750740 1.118523
Cr12  Cr    Cr6+3 0.616670 0.010620 0.250840 1.096645
H1    H     H_    0.488578 0.969040 0.066577 0.197387
H2    H     H_    0.170302 0.060675 0.424886 0.185151
H3    H     H_    0.371265 0.434232 0.553818 0.196855
H4    H     H_    0.670303 0.560675 0.424886 0.185151
H5    H     H_    0.637105 0.891356 0.440688 0.178938
H6    H     H_    0.337973 0.813633 0.569825 0.172148
H7    H     H_    0.137105 0.391356 0.440688 0.178938
H8    H     H_    0.837973 0.313633 0.569825 0.172148
H9    H     H_    0.037499 0.081663 0.935797 0.176084
H10   H     H_    0.991033 0.091106 0.056756 0.188422
H11   H     H_    0.537499 0.581663 0.935797 0.176084
H12   H     H_    0.488542 0.965394 0.940964 0.202653
H13   H     H_    0.491033 0.591106 0.056756 0.188422
H14   H     H_    0.654155 0.820013 0.931882 0.153193
H15   H     H_    0.335736 0.794433 0.063552 0.158474
H16   H     H_    0.154155 0.320013 0.931882 0.153193
H17   H     H_    0.835736 0.294433 0.063552 0.158474
H18   H     H_    0.849534 0.022840 0.935493 0.197462
H19   H     H_    0.170471 0.065899 0.076046 0.199323
H20   H     H_    0.349534 0.522840 0.935493 0.197462
H21   H     H_    0.670471 0.565899 0.076046 0.199323
H22   H     H_    0.842407 0.044617 0.059331 0.177279
H23   H     H_    0.988578 0.469040 0.066577 0.197387
H24   H     H_    0.184939 0.114402 0.952375 0.148771
H25   H     H_    0.342407 0.544617 0.059331 0.177279
H26   H     H_    0.684939 0.614402 0.952375 0.148771
H27   H     H_    0.460172 0.982265 0.420665 0.196266
H28   H     H_    0.428840 0.979362 0.544112 0.174360
H29   H     H_    0.960172 0.482265 0.420665 0.196266
H30   H     H_    0.928840 0.479362 0.544112 0.174360
H31   H     H_    0.988541 0.465394 0.940964 0.202653
H32   H     H_    0.861837 0.952387 0.427838 0.212454
H33   H     H_    0.171850 0.084446 0.550769 0.205189
H34   H     H_    0.361837 0.452387 0.427838 0.212454
H35   H     H_    0.671850 0.584446 0.550769 0.205189
H36   H     H_    0.871265 0.934233 0.553818 0.196855
O1    O     O_R   0.787540 0.042690 0.170470 -0.496367
O2    O     O_R   0.454130 0.051100 0.669160 -0.468906
O3    O     O_R   0.045870 0.551100 0.330840 -0.519733
O4    O     O_R   0.954130 0.551100 0.669160 -0.468906
O5    O     O_R   0.681340 0.959300 0.325510 -0.511147
O6    O     O_R   0.318660 0.959300 0.674490 -0.520008
O7    O     O_R   0.181340 0.459300 0.325510 -0.511147
O8    O     O_R   0.818660 0.459300 0.674490 -0.520008
O9    O     O_3   0.667880 0.167870 0.250070 -0.289030
O10   O     O_3   0.332120 0.167870 0.749930 -0.336484
O11   O     O_3   0.167880 0.667870 0.250070 -0.289030
O12   O     O_R   0.212460 0.042690 0.829530 -0.466736
O13   O     O_3   0.832120 0.667870 0.749930 -0.336484
O14   O     O_R   0.765660 0.292160 0.175050 -0.512168
O15   O     O_R   0.234340 0.292160 0.824950 -0.523186
O16   O     O_R   0.265660 0.792160 0.175050 -0.512168
O17   O     O_R   0.734340 0.792160 0.824950 -0.523186
O18   O     O_R   0.670190 0.408980 0.168550 -0.500700
O19   O     O_R   0.329810 0.408980 0.831450 -0.499132
O20   O     O_R   0.170190 0.908980 0.168550 -0.500700
O21   O     O_R   0.829810 0.908980 0.831450 -0.499132
O22   O     O_R   0.556580 0.251450 0.175160 -0.460507
O23   O     O_R   0.287540 0.542690 0.170470 -0.496367
O24   O     O_R   0.443420 0.251450 0.824840 -0.463487
O25   O     O_R   0.056580 0.751450 0.175160 -0.460507
O26   O     O_R   0.943420 0.751450 0.824840 -0.463487
O27   O     O_R   0.545920 0.049510 0.170320 -0.491887
O28   O     O_R   0.454080 0.049510 0.829680 -0.497115
O29   O     O_R   0.045920 0.549510 0.170320 -0.491887
O30   O     O_R   0.954080 0.549510 0.829680 -0.497115
O31   O     O_R   0.681390 0.957840 0.176710 -0.454451
O32   O     O_R   0.318610 0.957840 0.823290 -0.437264
O33   O     O_R   0.181390 0.457840 0.176710 -0.454451
O34   O     O_R   0.712460 0.542690 0.829530 -0.466736
O35   O     O_R   0.818610 0.457840 0.823290 -0.437264
O36   O     O_R   0.787500 0.044280 0.330990 -0.454804
O37   O     O_R   0.212500 0.044280 0.669010 -0.465292
O38   O     O_R   0.287500 0.544280 0.330990 -0.454804
O39   O     O_R   0.712500 0.544280 0.669010 -0.465292
O40   O     O_R   0.765610 0.293630 0.323860 -0.458469
O41   O     O_R   0.234390 0.293630 0.676140 -0.466645
O42   O     O_R   0.265610 0.793630 0.323860 -0.458469
O43   O     O_R   0.734390 0.793630 0.676140 -0.466645
O44   O     O_R   0.670140 0.410570 0.329080 -0.488192
O45   O     O_R   0.556540 0.252920 0.323970 -0.441665
O46   O     O_R   0.329860 0.410570 0.670920 -0.508729
O47   O     O_R   0.170140 0.910570 0.329080 -0.488192
O48   O     O_R   0.829860 0.910570 0.670920 -0.508729
O49   O     O_R   0.443460 0.252920 0.676030 -0.439437
O50   O     O_R   0.056540 0.752920 0.323970 -0.441665
O51   O     O_R   0.943460 0.752920 0.676030 -0.439437
O52   O     O_R   0.545870 0.051100 0.330840 -0.519733

loop_
_geom_bond_atom_site_label_1
_geom_bond_atom_site_label_2
_ccdc_geom_bond_type
C59   C64   A    
C80   O31   A    
Cr1   O1    S    
C37   H28   S    
Br10  C69   S    
C48   C100  S    
C48   O30   A    
Cr5   O15   S    
C95   O6    A    
C82   O33   A    
C67   C71   A    
Cr6   O11   S    
C46   O28   A    
C80   O1    A    
C57   H35   S    
Cr10  O25   S    
C58   H36   S    
C74   H7    S    
C59   H2    S    
C25   H20   S    
C91   O3    A    
C12   C16   A    
C23   H18   S    
Br8   C53   S    
C14   C19   A    
Cr8   O18   S    
C97   O39   A    
C68   C73   A    
Br3   C12   S    
Cr6   O38   S    
C22   C26   A    
C70   C75   A    
C47   C101  S    
C84   O35   A    
Cr10  O20   S    
C76   C93   S    
C18   H17   S    
C8    H11   S    
Cr9   O24   S    
Cr4   O30   S    
C95   O37   A    
Cr11  O51   S    
C87   O47   A    
C78   C96   S    
Cr9   O46   S    
Cr10  O50   S    
Cr7   O39   S    
C102  C103  A    
Cr9   O49   S    
C5    H12   S    
Br7   C52   S    
C92   O51   A    
C12   C34   A    
C1    O14   A    
C86   O46   A    
C52   C53   A    
C49   C51   A    
C48   O26   A    
C45   C99   S    
Cr12  O27   S    
C25   C30   A    
C47   O25   A    
C40   H30   S    
C14   H14   S    
Br2   C11   S    
C4    H1    S    
C72   C104  A    
C27   H22   S    
C27   C32   A    
C28   O16   A    
Br4   C13   S    
C86   O41   A    
C10   C32   A    
Cr12  O9    S    
Cr12  O5    S    
C56   C78   A    
C36   H27   S    
C41   C90   S    
C7    C100  A    
Cr1   O9    S    
C71   C76   A    
C73   C77   A    
C90   O2    A    
C81   O32   A    
C84   O34   A    
C71   H5    S    
C87   O42   A    
C6    C7    A    
C60   H3    S    
C30   C34   A    
C74   C78   A    
C7    H31   S    
C65   C86   S    
Cr11  O21   S    
C85   O44   A    
Br16  C10   S    
C24   C29   A    
Br13  C61   S    
C34   C82   S    
C89   O45   A    
Cr3   O33   S    
C64   C87   S    
C11   C15   A    
C64   C68   A    
C20   C24   A    
C26   H21   S    
C8    C9    A    
C88   O48   A    
Br5   C49   S    
Cr6   O42   S    
C41   C49   A    
C3    C83   A    
C82   O23   A    
C81   O12   A    
C46   O24   A    
Cr4   O35   S    
Cr2   O2    S    
Cr2   O6    S    
C30   H25   S    
C19   C39   S    
C13   C18   A    
Cr12  O31   S    
C17   C21   S    
C100  C104  A    
C24   H19   S    
Cr12  O52   S    
C94   H9    S    
C19   C23   A    
C54   C58   A    
C85   O40   A    
C43   C52   A    
C91   O50   A    
C62   C66   A    
Cr3   O7    S    
Cr4   O4    S    
C29   C33   A    
C1    O18   A    
C57   C62   A    
C89   O52   A    
C6    H23   S    
C96   O7    A    
Cr5   O12   S    
Cr10  O47   S    
C17   O19   A    
C29   H24   S    
C16   C21   A    
C4    C5    A    
C3    C101  A    
C98   C102  A    
C44   C91   S    
C36   C42   A    
C28   O20   A    
C97   O8    A    
C55   C77   A    
Cr3   O11   S    
Br6   C51   S    
C77   C95   S    
C3    C104  A    
C10   C14   A    
C99   C103  A    
C58   C63   A    
Cr9   O19   S    
C55   H33   S    
C45   O22   A    
Cr7   O13   S    
C9    C61   A    
C63   C88   S    
C20   C28   S    
Cr11  O26   S    
C2    C83   A    
C57   C79   A    
C39   O21   A    
C15   H15   S    
C36   C37   A    
C13   C35   A    
Cr7   O43   S    
C35   C84   S    
Cr2   O10   S    
C45   O27   A    
C2    H10   S    
Cr5   O41   S    
C32   C80   S    
Cr11  O48   S    
C18   C22   A    
C56   H34   S    
Cr3   O29   S    
C93   O36   A    
C54   C76   A    
C2    C94   A    
Cr1   O36   S    
Cr2   O28   S    
C5    C98   A    
C61   C103  A    
C54   H32   S    
C60   C65   A    
C4    C99   A    
C31   C35   A    
C69   C74   A    
C38   C40   A    
C46   C98   S    
C72   C94   A    
C16   H16   S    
C8    C50   A    
Br1   C67   S    
Cr9   O10   S    
Cr8   O45   S    
C43   C92   S    
Cr1   O40   S    
C40   C43   A    
C38   C44   A    
C42   C89   S    
C92   O4    A    
C96   O38   A    
Cr4   O13   S    
C66   C70   A    
Cr8   O44   S    
C55   C59   A    
Cr11  O13   S    
Cr6   O16   S    
Br15  C83   S    
Br12  C50   S    
C44   C53   A    
C79   C97   S    
C56   C60   A    
Cr5   O37   S    
Cr7   O17   S    
C66   C85   S    
C37   C41   A    
C17   O15   A    
Cr8   O22   S    
C26   C31   A    
C39   O17   A    
C38   H29   S    
C21   C25   A    
Cr6   O23   S    
Cr7   O34   S    
Cr3   O3    S    
C33   C81   S    
Cr10  O11   S    
Br9   C68   S    
Br14  C72   S    
C75   H8    S    
C63   C67   A    
C47   O29   A    
C42   C51   A    
C90   O49   A    
C1    C22   S    
C23   C27   A    
C75   C79   A    
C73   H6    S    
C50   C102  A    
Cr5   O10   S    
C15   C20   A    
C9    H13   S    
Cr8   O9    S    
Br11  C70   S    
C88   O43   A    
Cr2   O32   S    
Cr4   O8    S    
C6    C101  A    
C62   H4    S    
C93   O5    A    
C65   C69   A    
C11   C33   A    
Cr1   O14   S    
C31   H26   S    
