data_mof_unit_2487.cif
_audit_creation_date              2012-12-10T17:22:55-0500
_audit_creation_method            fapswitch 2.2
_symmetry_space_group_name_H-M    P1
_symmetry_Int_Tables_number       1
_space_group_crystal_system       triclinic
_cell_length_a                    10.329722
_cell_length_b                    10.474491
_cell_length_c                    10.744277
_cell_angle_alpha                 92.607717
_cell_angle_beta                  95.624757
_cell_angle_gamma                 81.557005
_cell_volume                      1143.8084925

loop_
_atom_site_label
_atom_site_type_symbol
_atom_type_description
_atom_site_fract_x
_atom_site_fract_y
_atom_site_fract_z
_atom_type_partial_charge
C1    C     C_R   0.444552 0.503478 0.267570 0.934041
C2    C     C_3   0.502282 0.122173 0.501673 0.035143
C3    C     C_3   0.550999 0.945561 0.397191 -0.169886
C4    C     C_3   0.452158 0.053756 0.605877 -0.181974
C5    C     C_2   0.413432 0.490938 0.134286 -0.385755
C6    C     C_2   0.585736 0.464344 0.863741 -0.386656
C7    C     C_2   0.510433 0.445302 0.064153 -0.155368
C8    C     C_2   0.487523 0.449529 0.930980 -0.153591
C9    C     C_2   0.072427 0.483733 0.492576 0.108877
C10   C     C_2   0.929866 0.505719 0.517761 0.101251
C11   C     C_3   0.890465 0.594459 0.627855 -0.346046
C12   C     C_R   0.555319 0.487165 0.732090 0.934300
C13   C     C_3   0.940395 0.531830 0.753496 -0.365021
C14   C     C_3   0.905549 0.623953 0.863276 -0.917569
C15   C     C_3   0.113907 0.379199 0.395572 -0.345753
C16   C     C_3   0.100834 0.243284 0.438066 -0.375326
C17   C     C_3   0.075562 0.151921 0.326309 -0.922024
C18   C     C_R   0.500454 0.257855 0.500613 0.847255
C19   C     C_R   0.500160 0.742005 0.500575 0.856523
C20   C     C_3   0.427735 0.048084 0.399833 -0.187820
C21   C     C_3   0.575601 0.951040 0.603080 -0.190794
C22   C     C_3   0.377021 0.977216 0.503925 -0.143650
C23   C     C_3   0.626063 0.022219 0.498994 -0.134926
C24   C     C_3   0.500427 0.877283 0.501203 0.038280
H1    H     H_    0.275655 0.954526 0.506197 0.145790
H2    H     H_    0.313607 0.520677 0.093357 0.150929
H3    H     H_    0.868100 0.391958 0.371831 0.170574
H4    H     H_    0.127983 0.624368 0.614256 0.159354
H5    H     H_    0.954868 0.711075 0.861000 0.262097
H6    H     H_    0.797571 0.653986 0.859370 0.260957
H7    H     H_    0.939013 0.574953 0.952668 0.250616
H8    H     H_    0.895613 0.442626 0.760968 0.238611
H9    H     H_    0.048677 0.503731 0.760501 0.213286
H10   H     H_    0.925562 0.688898 0.621629 0.148414
H11   H     H_    0.784892 0.622431 0.625903 0.266372
H12   H     H_    0.727672 0.044477 0.497046 0.143258
H13   H     H_    0.976243 0.181716 0.278257 0.257637
H14   H     H_    0.149458 0.152868 0.258240 0.259842
H15   H     H_    0.080442 0.052103 0.358843 0.253208
H16   H     H_    0.192105 0.203730 0.494710 0.243793
H17   H     H_    0.019740 0.245425 0.499086 0.219783
H18   H     H_    0.054782 0.402040 0.305252 0.157951
H19   H     H_    0.213993 0.377619 0.371685 0.255650
H20   H     H_    0.370546 0.092480 0.316151 0.135670
H21   H     H_    0.635770 0.906340 0.685452 0.127214
H22   H     H_    0.591027 0.896705 0.312364 0.138013
H23   H     H_    0.411946 0.102721 0.690575 0.134261
H24   H     H_    0.386738 0.452382 0.889497 0.187994
H25   H     H_    0.610597 0.415637 0.104439 0.186509
H26   H     H_    0.686110 0.461367 0.906019 0.157088
N1    N     N_2   0.157310 0.552180 0.551120 -0.225825
N2    N     N_2   0.842690 0.447820 0.448880 -0.225529
O1    O     O_R   0.568940 0.489500 0.307530 -0.606681
O2    O     O_R   0.431060 0.510500 0.692470 -0.607491
O3    O     O_R   0.348880 0.522990 0.340350 -0.634209
O4    O     O_R   0.651120 0.477010 0.659650 -0.627223
O5    O     O_R   0.610000 0.297210 0.483560 -0.617163
O6    O     O_R   0.390000 0.702790 0.516440 -0.614393
O7    O     O_R   0.389940 0.330700 0.516390 -0.639032
O8    O     O_R   0.610060 0.669300 0.483610 -0.639312
Zn1   Zn    Zn3+2 0.646930 0.477640 0.478080 0.909363
Zn2   Zn    Zn3+2 0.353070 0.522360 0.521920 0.909111

loop_
_geom_bond_atom_site_label_1
_geom_bond_atom_site_label_2
_ccdc_geom_bond_type
O6    Zn2   S    
C2    C4    S    
C8    H24   S    
C13   H9    S    
C19   O8    A    
C2    C18   S    
C4    C22   S    
C9    C10   S    
C3    H22   S    
C3    C23   S    
C9    N1    D    
C14   H7    S    
C17   H14   S    
C10   N2    D    
C11   H11   S    
C19   C24   S    
C1    O3    A    
C15   H19   S    
C3    C20   S    
C17   H13   S    
C13   C14   S    
C6    H26   S    
O5    Zn1   S    
C4    C21   S    
C11   C13   S    
C3    C24   S    
C12   O4    A    
N1    Zn2   S    
C16   H16   S    
C18   O5    A    
C1    C5    S    
C20   H20   S    
C14   H6    S    
C21   H21   S    
N2    Zn1   S    
C21   C23   S    
C19   O6    A    
C6    C12   S    
H4    N1    S    
C22   C24   S    
C10   C11   S    
C14   H5    S    
C2    C20   S    
C5    H2    S    
O3    Zn2   S    
C18   O7    A    
C7    C8    S    
H3    N2    S    
C7    H25   S    
C23   H12   S    
C17   H15   S    
C21   C24   S    
C2    C23   S    
C5    C7    D    
C1    O1    A    
O4    Zn1   S    
C16   C17   S    
O7    Zn2   S    
C6    C8    D    
O2    Zn2   S    
C9    C15   S    
C13   H8    S    
O1    Zn1   S    
C16   H17   S    
C4    H23   S    
C11   H10   S    
C12   O2    A    
C15   C16   S    
C15   H18   S    
C20   C22   S    
O8    Zn1   S    
C22   H1    S    
