data_mof_unit_3666.cif
_audit_creation_date              2012-12-11T14:29:24-0500
_audit_creation_method            fapswitch 2.2
_symmetry_space_group_name_H-M    P1
_symmetry_Int_Tables_number       1
_space_group_crystal_system       triclinic
_cell_length_a                    7.022459
_cell_length_b                    14.786222
_cell_length_c                    16.249591
_cell_angle_alpha                 90.897893
_cell_angle_beta                  89.103658
_cell_angle_gamma                 90.759521
_cell_volume                      1686.73016987

loop_
_atom_site_label
_atom_site_type_symbol
_atom_type_description
_atom_site_fract_x
_atom_site_fract_y
_atom_site_fract_z
_atom_type_partial_charge
O1    O     O_R   0.494400 0.416610 0.413880 -0.543662
O2    O     O_R   0.823920 0.406790 0.585520 -0.542484
O3    O     O_R   0.994250 0.583390 0.586120 -0.534748
C1    C     C_R   0.651668 0.388600 0.614887 0.749048
O4    O     O_R   0.824110 0.405730 0.414490 -0.545263
O5    O     O_R   0.994440 0.582310 0.413870 -0.536918
C2    C     C_R   0.655048 0.382325 0.388108 0.695324
O6    O     O_R   0.494210 0.417690 0.586130 -0.546726
O7    O     O_3   0.660810 0.557940 0.500000 -0.369186
V1    V     V_3+5 0.935650 0.489250 0.500000 1.398691
O8    O     O_R   0.324160 0.593210 0.414480 -0.544745
C3    C     C_R   0.157299 0.613890 0.385811 0.744107
O9    O     O_R   0.323970 0.594270 0.585510 -0.537735
C4    C     C_R   0.155077 0.614485 0.614936 0.696246
V2    V     V_3+5 0.435660 0.510750 0.500000 1.401351
O10   O     O_3   0.160630 0.442060 0.500000 -0.378972
C5    C     C_R   0.182400 0.565839 0.785353 -0.190779
C6    C     C_R   0.198379 0.538269 0.867020 0.148182
C7    C     C_R   0.188570 0.603994 0.929978 -0.138823
C8    C     C_R   0.164635 0.694749 0.911593 -0.184079
C9    C     C_R   0.147563 0.723785 0.829437 0.078416
C10   C     C_R   0.158096 0.657839 0.765238 0.047040
C11   C     C_R   0.120037 0.816728 0.811488 -0.158007
C12   C     C_R   0.105587 0.845116 0.727131 0.024742
C13   C     C_R   0.118105 0.776535 0.663632 0.034005
C14   C     C_R   0.144112 0.684117 0.682461 -0.152020
C15   C     C_R   0.081113 0.938296 0.701998 0.019009
C16   C     C_R   0.064338 0.956651 0.617427 -0.148616
C17   C     C_R   0.082431 0.889362 0.557307 0.104478
C18   C     C_R   0.107761 0.800809 0.580461 -0.161772
H1    H     H_    0.189744 0.514021 0.737589 0.093960
H2    H     H_    0.199399 0.586461 0.994027 0.109029
H3    H     H_    0.160516 0.741816 0.963145 0.098787
H4    H     H_    0.041428 0.024392 0.596262 0.115161
H5    H     H_    0.121903 0.750728 0.531601 0.099671
C19   C     C_2   0.996284 0.691219 0.272506 -0.158030
C20   C     C_2   0.154216 0.679642 0.317443 -0.353172
H6    H     H_    0.872385 0.649962 0.288401 0.142121
H7    H     H_    0.284899 0.716564 0.304038 0.127923
C21   C     C_2   0.972230 0.755464 0.202354 0.099455
C22   C     C_2   0.117665 0.809713 0.173834 -0.349299
H8    H     H_    0.257551 0.803507 0.200017 0.123248
C23   C     C_2   0.716349 0.241106 0.804096 -0.146541
C24   C     C_2   0.630076 0.158429 0.801883 -0.062832
H9    H     H_    0.775311 0.265566 0.861843 0.104902
C25   C     C_2   0.758297 0.297580 0.731093 -0.146607
C26   C     C_2   0.620077 0.329540 0.685651 -0.325987
H10   H     H_    0.902309 0.320912 0.718825 0.137807
H11   H     H_    0.473100 0.317414 0.704716 0.133379
C27   C     C_2   0.771247 0.218705 0.206998 -0.140730
C28   C     C_2   0.615179 0.193555 0.165207 -0.297975
H12   H     H_    0.905354 0.184789 0.195163 0.138515
H13   H     H_    0.486830 0.233039 0.171444 0.123992
C29   C     C_2   0.770375 0.294596 0.268153 -0.170112
C30   C     C_2   0.640324 0.304541 0.330302 -0.054360
H14   H     H_    0.888999 0.342319 0.264089 0.115449
O11   O     O_R   0.770210 0.079270 0.910680 -0.545933
O12   O     O_R   0.440150 0.091160 0.082270 -0.542230
O13   O     O_R   0.269970 0.914530 0.082860 -0.542191
C31   C     C_R   0.609182 0.116131 0.107153 0.746496
O14   O     O_R   0.440480 0.090100 0.911240 -0.550036
O15   O     O_R   0.270310 0.913460 0.910610 -0.539680
C32   C     C_R   0.611497 0.106597 0.879911 0.679720
O16   O     O_R   0.769870 0.080340 0.082930 -0.534916
O17   O     O_3   0.603660 0.938980 0.996790 -0.370464
V3    V     V_3+5 0.328750 0.007610 0.996740 1.369289
O18   O     O_R   0.940600 0.902510 0.911180 -0.540912
C33   C     C_R   0.109363 0.881465 0.882412 0.673254
O19   O     O_R   0.940270 0.903570 0.082200 -0.538261
C34   C     C_R   0.107254 0.879737 0.108562 0.734013
V4    V     V_3+5 0.828770 0.986010 0.996670 1.389223
O20   O     O_3   0.103730 0.054750 0.996710 -0.373136
C35   C     C_3   0.093691 0.912927 0.467493 -0.370514
C36   C     C_3   0.904372 0.946702 0.435061 -0.306242
C37   C     C_3   0.912817 0.955940 0.341657 -0.784750
H15   H     H_    0.011904 0.011508 0.323702 0.224657
H16   H     H_    0.961161 0.892035 0.312698 0.248493
H17   H     H_    0.769643 0.970362 0.317855 0.219921
H18   H     H_    0.788100 0.898173 0.451492 0.203365
H19   H     H_    0.873187 0.014011 0.462909 0.186494
H20   H     H_    0.204367 0.965818 0.460547 0.177305
H21   H     H_    0.140563 0.853593 0.429782 0.179120
C38   C     C_3   0.773546 0.755363 0.165866 -0.316373
C39   C     C_3   0.770189 0.706332 0.081897 -0.282753
C40   C     C_3   0.568304 0.698684 0.048935 -0.760915
H22   H     H_    0.475798 0.658842 0.091418 0.212459
H23   H     H_    0.506997 0.766829 0.041745 0.249464
H24   H     H_    0.571689 0.663942 0.987868 0.223471
H25   H     H_    0.860286 0.742972 0.036483 0.202790
H26   H     H_    0.827882 0.637116 0.087994 0.181608
H27   H     H_    0.671026 0.719728 0.207363 0.145153
H28   H     H_    0.716741 0.824788 0.162715 0.188717
C41   C     C_3   0.531833 0.119676 0.725533 -0.355821
C42   C     C_3   0.646318 0.080055 0.653245 -0.353258
C43   C     C_3   0.515365 0.033016 0.591397 -0.794732
H29   H     H_    0.446899 0.972953 0.619857 0.250363
H30   H     H_    0.405462 0.080046 0.569777 0.228597
H31   H     H_    0.598724 0.009028 0.537413 0.215626
H32   H     H_    0.725201 0.134395 0.620140 0.199699
H33   H     H_    0.741177 0.027730 0.676401 0.220044
H34   H     H_    0.441752 0.063069 0.746479 0.194751
H35   H     H_    0.445007 0.173093 0.700105 0.202264
C44   C     C_3   0.483485 0.235322 0.348095 -0.316080
C45   C     C_3   0.564485 0.144644 0.374733 -0.294047
C46   C     C_3   0.422008 0.068444 0.358518 -0.815830
H36   H     H_    0.282105 0.086572 0.386321 0.231963
H37   H     H_    0.405187 0.057351 0.291224 0.233158
H38   H     H_    0.473372 0.005062 0.385683 0.219847
H39   H     H_    0.699321 0.128490 0.341761 0.218783
H40   H     H_    0.596337 0.148372 0.441494 0.182691
H41   H     H_    0.388647 0.259277 0.399113 0.160045
H42   H     H_    0.387413 0.227415 0.295231 0.176109
C47   C     C_3   0.224631 0.438193 0.882794 -0.376762
C48   C     C_3   0.261660 0.413940 0.972768 -0.332520
C49   C     C_3   0.293361 0.312681 0.981730 -0.719664
H43   H     H_    0.325531 0.297892 0.046758 0.203777
H44   H     H_    0.163033 0.274100 0.964429 0.225652
H45   H     H_    0.415033 0.290350 0.942294 0.219723
H46   H     H_    0.390501 0.450964 0.994743 0.197368
H47   H     H_    0.137267 0.433161 0.012106 0.190803
H48   H     H_    0.095016 0.401121 0.861752 0.169528
H49   H     H_    0.347129 0.414359 0.844376 0.178363
C50   C     C_3   0.069716 0.018020 0.763288 -0.355062
C51   C     C_3   0.080562 0.115958 0.731723 -0.375004
C52   C     C_3   0.130947 0.184380 0.800212 -0.734832
H50   H     H_    0.035925 0.176429 0.854326 0.247639
H51   H     H_    0.272889 0.176385 0.823108 0.238405
H52   H     H_    0.130088 0.254199 0.777423 0.189722
H53   H     H_    0.176454 0.122420 0.678195 0.186544
H54   H     H_    0.945499 0.137137 0.708936 0.223001
H55   H     H_    0.934806 0.010286 0.797920 0.199979
H56   H     H_    0.190305 0.013863 0.804800 0.199605

loop_
_geom_bond_atom_site_label_1
_geom_bond_atom_site_label_2
_ccdc_geom_bond_type
C41   C42   S    
C50   H56   S    
C35   C36   S    
C7    C8    A    
C12   C15   A    
C2    C30   S    
C1    O6    A    
C48   C49   S    
C43   H31   S    
C50   C51   S    
C26   H11   S    
C40   H22   S    
C38   H28   S    
C46   H37   S    
C27   C29   S    
C18   H5    S    
C19   C20   D    
O13   V3    S    
O5    C3    A    
C45   H39   S    
C17   C35   S    
O12   C31   A    
V2    O10   S    
C30   C44   S    
C44   H41   S    
C6    C7    A    
C22   H8    S    
O16   V4    S    
C3    C20   S    
O19   V4    S    
C24   C41   S    
C29   C30   D    
O8    V2    S    
C39   C40   S    
O12   V3    S    
V3    O20   S    
C47   H49   S    
C43   H29   S    
C49   H44   S    
C5    C6    A    
C52   H52   S    
C27   H12   S    
C11   C12   A    
O1    V2    S    
O7    V1    S    
C48   H46   S    
C16   H4    S    
C36   H19   S    
O9    C4    A    
C21   C38   S    
O19   C34   A    
C39   H26   S    
C7    H2    S    
O14   V3    S    
C6    C47   S    
C35   H20   S    
C45   C46   S    
C23   C25   S    
O11   C32   A    
C25   H10   S    
C40   H23   S    
C24   C32   S    
C46   H38   S    
C29   H14   S    
C36   C37   S    
O15   V3    S    
O18   C33   A    
C19   C21   S    
C12   C13   A    
C41   H34   S    
O4    C2    A    
C15   C50   S    
C13   C14   A    
O17   V4    S    
C4    C14   S    
C44   H42   S    
C28   H13   S    
C11   C33   S    
O2    C1    A    
C37   H15   S    
C17   C18   A    
C37   H16   S    
C38   C39   S    
C42   H33   S    
C49   H45   S    
O14   C32   A    
C27   C28   D    
C51   H54   S    
O11   V4    S    
C23   H9    S    
O3    C4    A    
C8    H3    S    
C21   C22   D    
O6    V2    S    
C36   H18   S    
C9    C11   A    
C23   C24   D    
C52   H50   S    
C5    H1    S    
C39   H25   S    
O2    V1    S    
C35   H21   S    
C15   C16   A    
C47   C48   S    
C40   H24   S    
C13   C18   A    
C25   C26   D    
C16   C17   A    
C50   H55   S    
O1    C2    A    
C41   H35   S    
O5    V1    S    
O8    C3    A    
C43   H30   S    
C38   H27   S    
C46   H36   S    
C5    C10   A    
O15   C33   A    
C31   O16   A    
O9    V2    S    
O7    V2    S    
V4    O20   S    
C20   H7    S    
O3    V1    S    
V1    O10   S    
C45   H40   S    
C42   H32   S    
C19   H6    S    
C51   H53   S    
O18   V4    S    
C42   C43   S    
C37   H17   S    
O13   C34   A    
O4    V1    S    
C47   H48   S    
C8    C9    A    
O17   V3    S    
C10   C14   A    
C44   C45   S    
C52   H51   S    
C22   C34   S    
C28   C31   S    
C9    C10   A    
C48   H47   S    
C49   H43   S    
C51   C52   S    
C1    C26   S    
