data_mof_unit_2767.cif
_audit_creation_date              2012-12-10T18:09:29-0500
_audit_creation_method            fapswitch 2.2
_symmetry_space_group_name_H-M    P1
_symmetry_Int_Tables_number       1
_space_group_crystal_system       triclinic
_cell_length_a                    15.11656
_cell_length_b                    15.238689
_cell_length_c                    9.412452
_cell_angle_alpha                 89.999862
_cell_angle_beta                  90.001698
_cell_angle_gamma                 89.999936
_cell_volume                      2168.22003083

loop_
_atom_site_label
_atom_site_type_symbol
_atom_type_description
_atom_site_fract_x
_atom_site_fract_y
_atom_site_fract_z
_atom_type_partial_charge
C1    C     C_R   0.121094 0.380752 0.499841 0.888529
C2    C     C_R   0.121117 0.619226 0.500159 0.888920
C3    C     C_R   0.621117 0.880773 0.500159 0.888930
C4    C     C_R   0.621093 0.119249 0.499841 0.888508
C5    C     C_3   0.092439 0.504134 0.083849 -0.171144
C6    C     C_3   0.092420 0.504499 0.916155 -0.165763
C7    C     C_3   0.592414 0.995360 0.083849 -0.171462
C8    C     C_3   0.592393 0.994999 0.916155 -0.165444
C9    C     C_R   0.880493 0.379397 0.499826 0.802781
C10   C     C_R   0.880516 0.620623 0.500172 0.802836
C11   C     C_R   0.380516 0.879376 0.500172 0.802837
C12   C     C_R   0.380493 0.120603 0.499826 0.802772
C13   C     C_3   0.841875 0.231791 0.593577 -0.440409
C14   C     C_3   0.796690 0.275361 0.345867 -0.413000
C15   C     C_3   0.796992 0.724919 0.654049 -0.412204
C16   C     C_3   0.841767 0.768099 0.405987 -0.440373
C17   C     C_3   0.297001 0.775071 0.654047 -0.412210
C18   C     C_3   0.341762 0.731906 0.405972 -0.440359
C19   C     C_3   0.341880 0.268212 0.593566 -0.440403
C20   C     C_3   0.296685 0.224635 0.345865 -0.413014
C21   C     C_3   0.227010 0.702327 0.654107 0.513670
C22   C     C_3   0.268634 0.661240 0.401181 0.570951
C23   C     C_3   0.268738 0.338864 0.598431 0.570906
C24   C     C_3   0.226741 0.297420 0.345805 0.514138
C25   C     C_3   0.768735 0.161138 0.598434 0.570868
C26   C     C_3   0.726742 0.202579 0.345805 0.514203
C27   C     C_3   0.727002 0.797664 0.654110 0.513660
C28   C     C_3   0.768639 0.838765 0.401196 0.570961
C29   C     C_3   0.723766 0.346936 0.557162 -0.402120
C30   C     C_3   0.723717 0.653013 0.443335 -0.402253
C31   C     C_3   0.223715 0.846990 0.443354 -0.402252
C32   C     C_3   0.223769 0.153067 0.557174 -0.402123
C33   C     C_3   0.812179 0.309880 0.499201 0.012145
C34   C     C_3   0.812220 0.690155 0.500794 0.012016
C35   C     C_3   0.312221 0.809844 0.500795 0.012016
C36   C     C_3   0.312180 0.190121 0.499201 0.012153
C37   C     C_3   0.190876 0.687515 0.500828 -0.066676
C38   C     C_3   0.190837 0.312451 0.499167 -0.066898
C39   C     C_3   0.690836 0.187550 0.499166 -0.066917
C40   C     C_3   0.690876 0.812485 0.500828 -0.066670
C41   C     C_3   0.151502 0.775340 0.446548 -0.621438
C42   C     C_3   0.151539 0.224702 0.553914 -0.621585
C43   C     C_3   0.651537 0.275300 0.553909 -0.621584
C44   C     C_3   0.651504 0.724663 0.446530 -0.621435
C45   C     C_3   0.952188 0.576154 0.083653 -0.190549
C46   C     C_3   0.951927 0.575979 0.916345 -0.195648
C47   C     C_3   0.959595 0.419596 0.083673 -0.194866
C48   C     C_3   0.959865 0.419449 0.916322 -0.191668
C49   C     C_3   0.460056 0.080639 0.083674 -0.194812
C50   C     C_3   0.460324 0.080784 0.916319 -0.191739
C51   C     C_3   0.451752 0.924126 0.083653 -0.190481
C52   C     C_3   0.451495 0.924300 0.916347 -0.195686
Cu1   Cu    Cu3+1 0.000100 0.500000 0.642410 0.920976
Cu2   Cu    Cu3+1 0.000100 0.500000 0.357590 0.921317
Cu3   Cu    Cu3+1 0.500100 0.000000 0.642410 0.920967
Cu4   Cu    Cu3+1 0.500100 1.000000 0.357590 0.921332
H1    H     H_    0.855905 0.254578 0.703667 0.132832
H2    H     H_    0.773803 0.329792 0.275978 0.125205
H3    H     H_    0.774269 0.670601 0.724302 0.125105
H4    H     H_    0.855583 0.745146 0.295919 0.132878
H5    H     H_    0.274284 0.829385 0.724313 0.125112
H6    H     H_    0.355571 0.754865 0.295905 0.132877
H7    H     H_    0.355919 0.245430 0.703655 0.132817
H8    H     H_    0.273791 0.170201 0.275987 0.125224
H9    H     H_    0.904271 0.203282 0.550925 0.199860
H10   H     H_    0.859789 0.249994 0.300639 0.202643
H11   H     H_    0.860162 0.750393 0.698863 0.202495
H12   H     H_    0.904251 0.796652 0.448237 0.199827
H13   H     H_    0.360174 0.749594 0.698846 0.202492
H14   H     H_    0.404249 0.703350 0.448208 0.199827
H15   H     H_    0.404272 0.296723 0.550900 0.199865
H16   H     H_    0.359783 0.249995 0.300625 0.202636
H17   H     H_    0.172024 0.722324 0.725921 0.050756
H18   H     H_    0.244109 0.655376 0.290058 0.059987
H19   H     H_    0.244373 0.344856 0.709629 0.060643
H20   H     H_    0.171639 0.277380 0.274244 0.051732
H21   H     H_    0.744368 0.155142 0.709631 0.060689
H22   H     H_    0.671640 0.222623 0.274245 0.051770
H23   H     H_    0.672011 0.777662 0.725912 0.050693
H24   H     H_    0.744121 0.844636 0.290070 0.059977
H25   H     H_    0.732721 0.370548 0.668157 0.184352
H26   H     H_    0.702228 0.404055 0.492034 0.178202
H27   H     H_    0.702269 0.596012 0.508808 0.178197
H28   H     H_    0.732504 0.629203 0.332416 0.184080
H29   H     H_    0.202270 0.903987 0.508839 0.178192
H30   H     H_    0.232495 0.870807 0.332437 0.184069
H31   H     H_    0.232728 0.129461 0.668173 0.184366
H32   H     H_    0.202230 0.095943 0.492057 0.178204
H33   H     H_    0.096349 0.796569 0.517006 0.195467
H34   H     H_    0.123613 0.766866 0.337937 0.197745
H35   H     H_    0.123779 0.233331 0.662575 0.197724
H36   H     H_    0.096306 0.203361 0.483703 0.195370
H37   H     H_    0.623778 0.266672 0.662571 0.197716
H38   H     H_    0.596303 0.296638 0.483698 0.195361
H39   H     H_    0.596348 0.703430 0.516976 0.195475
H40   H     H_    0.623622 0.733144 0.337916 0.197749
H41   H     H_    0.981738 0.638441 0.123107 0.139393
H42   H     H_    0.980941 0.638369 0.876308 0.139061
H43   H     H_    0.994430 0.360274 0.123932 0.139042
H44   H     H_    0.995218 0.360275 0.876653 0.138962
H45   H     H_    0.495228 0.139764 0.123937 0.139059
H46   H     H_    0.496008 0.139759 0.876641 0.138946
H47   H     H_    0.480956 0.861674 0.123093 0.139430
H48   H     H_    0.480166 0.861750 0.876332 0.139081
H49   H     H_    0.882469 0.575018 0.121362 0.142810
H50   H     H_    0.882114 0.574275 0.879225 0.143565
H51   H     H_    0.889896 0.414610 0.120407 0.144180
H52   H     H_    0.890308 0.413912 0.878988 0.143944
H53   H     H_    0.390387 0.086022 0.120396 0.144206
H54   H     H_    0.390798 0.086710 0.879004 0.144003
H55   H     H_    0.382045 0.925651 0.121388 0.142740
H56   H     H_    0.381697 0.926390 0.879195 0.143527
H57   H     H_    0.126757 0.564047 0.122465 0.154773
H58   H     H_    0.126163 0.564915 0.878413 0.189371
H59   H     H_    0.131948 0.447390 0.122199 0.196161
H60   H     H_    0.132440 0.448306 0.876929 0.161598
H61   H     H_    0.632249 0.051871 0.122237 0.196475
H62   H     H_    0.632731 0.050962 0.876898 0.162011
H63   H     H_    0.626384 0.935244 0.122425 0.154394
H64   H     H_    0.625789 0.934388 0.878445 0.188948
N1    N     N_3   0.001260 0.500000 0.143650 -0.130158
N2    N     N_3   0.001260 0.500000 0.856350 -0.131042
N3    N     N_3   0.501260 0.000000 0.143650 -0.130097
N4    N     N_3   0.501260 0.000000 0.856350 -0.131089
O1    O     O_R   0.091250 0.408820 0.620260 -0.601302
O2    O     O_R   0.091250 0.408820 0.379740 -0.569880
O3    O     O_R   0.091250 0.591180 0.620260 -0.570754
O4    O     O_R   0.091250 0.591180 0.379740 -0.601355
O5    O     O_R   0.591250 0.908820 0.620260 -0.570774
O6    O     O_R   0.591250 0.908820 0.379740 -0.601367
O7    O     O_R   0.591250 0.091180 0.620260 -0.601299
O8    O     O_R   0.591250 0.091180 0.379740 -0.569835
O9    O     O_R   0.908940 0.408800 0.620260 -0.601071
O10   O     O_R   0.908940 0.408800 0.379740 -0.605472
O11   O     O_R   0.908940 0.591200 0.620260 -0.605576
O12   O     O_R   0.908940 0.591200 0.379740 -0.601252
O13   O     O_R   0.408940 0.908800 0.620260 -0.605584
O14   O     O_R   0.408940 0.908800 0.379740 -0.601261
O15   O     O_R   0.408940 0.091200 0.620260 -0.601059
O16   O     O_R   0.408940 0.091200 0.379740 -0.605467
F1    F     F_    0.263426 0.625613 0.707918 -0.609392
F2    F     F_    0.303416 0.580604 0.439593 -0.536844
F3    F     F_    0.303439 0.419464 0.559634 -0.536779
F4    F     F_    0.263137 0.374037 0.291612 -0.609680
F5    F     F_    0.803440 0.080540 0.559635 -0.536791
F6    F     F_    0.763132 0.125960 0.291609 -0.609682
F7    F     F_    0.763414 0.874374 0.707938 -0.609389
F8    F     F_    0.803419 0.919399 0.439624 -0.536843

loop_
_geom_bond_atom_site_label_1
_geom_bond_atom_site_label_2
_ccdc_geom_bond_type
C16   C28   S    
C41   H33   S    
Cu3   Cu4   S    
C17   H13   S    
C31   H29   S    
C29   C33   S    
C3    O6    A    
C51   N3    S    
C7    H61   S    
C19   H15   S    
Cu1   O11   S    
C52   H56   S    
C23   F3    S    
C14   C33   S    
C8    H62   S    
C7    C8    S    
C4    O8    A    
C13   H9    S    
C45   C46   S    
C29   H25   S    
Cu2   O2    S    
C26   H22   S    
Cu3   O15   S    
C37   C41   S    
C25   H21   S    
C32   C36   S    
C11   O14   A    
C1    O1    A    
C38   C42   S    
C27   H23   S    
C19   C36   S    
C49   H45   S    
C5    C6    S    
Cu4   O16   S    
C26   C39   S    
C47   N1    S    
C13   H1    S    
C28   C40   S    
C51   H47   S    
Cu2   O10   S    
C21   H17   S    
C50   H54   S    
C43   H38   S    
C47   H43   S    
C42   H35   S    
C16   H4    S    
C30   H27   S    
C26   F6    S    
C6    H58   S    
Cu1   O3    S    
C17   H5    S    
C20   H16   S    
C20   C24   S    
C19   H7    S    
Cu3   O5    S    
C24   C38   S    
C12   O16   A    
C16   H12   S    
C12   C36   S    
C18   C35   S    
C15   C34   S    
C16   C34   S    
C2    O3    A    
C22   C37   S    
C41   H34   S    
C46   H42   S    
Cu2   O12   S    
C31   H30   S    
C18   C22   S    
C5    H59   S    
C9    C33   S    
C30   C44   S    
C14   H2    S    
C45   H49   S    
C4    O7    A    
C48   H44   S    
C28   F8    S    
C30   C34   S    
C51   C52   S    
Cu4   N3    S    
C7    H63   S    
C22   H18   S    
Cu1   O9    S    
C1    O2    A    
C23   H19   S    
C24   H20   S    
C39   C43   S    
C45   N1    S    
Cu1   Cu2   S    
C32   H31   S    
Cu2   O4    S    
C17   C21   S    
C20   H8    S    
C19   C23   S    
C13   C33   S    
C44   H40   S    
Cu4   O14   S    
C15   C27   S    
C47   C48   S    
C4    C39   S    
C27   C40   S    
C10   O12   A    
C15   H11   S    
C22   F2    S    
C14   H10   S    
C12   O15   A    
C50   N4    S    
C10   C34   S    
C14   C26   S    
C6    H60   S    
Cu4   O8    S    
Cu1   O1    S    
C1    C38   S    
C29   C43   S    
Cu2   N1    S    
C3    C40   S    
C50   H46   S    
Cu3   O7    S    
C31   C35   S    
C6    N2    S    
C8    H64   S    
C49   H53   S    
C9    O9    A    
Cu3   N4    S    
C52   H48   S    
C5    N1    S    
C51   H55   S    
C31   C41   S    
C5    H57   S    
C3    O5    A    
C15   H3    S    
C8    N4    S    
C7    N3    S    
C13   C25   S    
C25   F5    S    
C23   C38   S    
C47   H51   S    
C18   H14   S    
Cu3   O13   S    
Cu1   N2    S    
C11   C35   S    
C11   O13   A    
C21   F1    S    
C10   O11   A    
C44   H39   S    
C45   H41   S    
C9    O10   A    
C48   N2    S    
C52   N4    S    
C2    C37   S    
C48   H52   S    
C24   F4    S    
C46   H50   S    
C43   H37   S    
C42   H36   S    
C30   H28   S    
C28   H24   S    
Cu4   O6    S    
C20   C36   S    
C40   C44   S    
C21   C37   S    
C29   H26   S    
C49   N3    S    
C27   F7    S    
C49   C50   S    
C32   C42   S    
C46   N2    S    
C18   H6    S    
C17   C35   S    
C25   C39   S    
C2    O4    A    
C32   H32   S    
