data_mof_unit_1638.cif
_audit_creation_date              2012-12-11T20:55:29-0500
_audit_creation_method            fapswitch 2.2
_symmetry_space_group_name_H-M    P1
_symmetry_Int_Tables_number       1
_space_group_crystal_system       triclinic
_cell_length_a                    8.266517
_cell_length_b                    19.122831
_cell_length_c                    22.782269
_cell_angle_alpha                 99.880308
_cell_angle_beta                  90.052308
_cell_angle_gamma                 91.912309
_cell_volume                      3545.93172289

loop_
_atom_site_label
_atom_site_type_symbol
_atom_type_description
_atom_site_fract_x
_atom_site_fract_y
_atom_site_fract_z
_atom_type_partial_charge
Ba1   Ba    Ba6+2 0.157290 0.533910 0.474710 1.652524
Ba2   Ba    Ba6+2 0.652900 0.466090 0.525240 1.645055
C1    C     C_3   0.357579 0.741198 0.265284 -0.335372
C2    C     C_3   0.420814 0.719102 0.321838 0.328078
C3    C     C_3   0.484133 0.684056 0.618925 0.307752
C4    C     C_3   0.492314 0.764451 0.636583 -0.379098
C5    C     C_3   0.885810 0.284048 0.650031 0.362179
C6    C     C_3   0.878520 0.212134 0.670124 -0.361171
C7    C     C_3   0.389706 0.295481 0.679897 0.308035
C8    C     C_3   0.454265 0.281505 0.739118 -0.357410
C9    C     C_R   0.954634 0.197564 0.470145 -0.149919
C10   C     C_R   0.989279 0.271847 0.479407 0.054459
C11   C     C_R   0.138623 0.187795 0.550339 -0.155851
C12   C     C_3   0.919489 0.721791 0.346625 0.398415
C13   C     C_R   0.205838 0.254422 0.544792 0.000300
C14   C     C_R   0.674608 0.810938 0.448152 -0.163432
C15   C     C_R   0.606732 0.744401 0.453835 -0.008624
C16   C     C_R   0.857815 0.801633 0.528626 -0.148597
C17   C     C_R   0.821506 0.727587 0.520129 0.056180
C18   C     C_R   0.020278 0.153619 0.509127 0.001682
C19   C     C_R   0.120602 0.298621 0.514895 -0.245248
C20   C     C_R   0.793035 0.845215 0.489295 0.002780
C21   C     C_R   0.689207 0.700879 0.485267 -0.241511
C22   C     C_R   0.229348 0.034293 0.539405 -0.077228
C23   C     C_3   0.938670 0.792464 0.324739 -0.367550
C24   C     C_R   0.322689 0.982136 0.556604 -0.081265
C25   C     C_R   0.276627 0.911812 0.538822 -0.067468
C26   C     C_R   0.131362 0.894979 0.508352 -0.077628
C27   C     C_R   0.014221 0.946267 0.506662 0.012879
C28   C     C_R   0.068208 0.019771 0.518034 0.038813
C29   C     C_R   0.850589 0.924083 0.491055 -0.016314
C30   C     C_R   0.745286 0.978998 0.480466 0.039321
C31   C     C_R   0.799434 0.052457 0.491746 0.013321
C32   C     C_R   0.963034 0.074657 0.507253 -0.017326
C33   C     C_R   0.583643 0.964589 0.459602 -0.078324
C34   C     C_3   0.820749 0.374991 0.342172 0.300017
C35   C     C_R   0.490000 0.016823 0.442656 -0.081782
C36   C     C_R   0.536402 0.087118 0.460438 -0.066164
C37   C     C_R   0.682310 0.103768 0.490419 -0.077464
C38   C     C_R   0.643920 0.524062 0.335397 -0.301631
C39   C     C_R   0.365953 0.563121 0.948419 -0.024740
C40   C     C_R   0.317073 0.559570 0.888628 0.585540
C41   C     C_R   0.247008 0.435303 0.880907 0.582678
C42   C     C_R   0.297998 0.436702 0.940272 -0.022653
C43   C     C_R   0.357630 0.501104 0.974147 -0.052412
C44   C     C_R   0.423482 0.627218 0.983008 -0.076171
C45   C     C_3   0.814831 0.355906 0.274556 -0.360754
C46   C     C_R   0.472057 0.629774 0.042041 -0.078150
C47   C     C_R   0.465907 0.568183 0.068164 -0.019696
C48   C     C_R   0.409070 0.503545 0.034027 -0.053505
C49   C     C_R   0.292063 0.375131 0.966410 -0.077100
C50   C     C_R   0.345187 0.377315 0.024953 -0.073789
C51   C     C_R   0.403932 0.441331 0.059449 -0.023864
C52   C     C_R   0.457934 0.444502 0.118717 0.586757
C53   C     C_R   0.514402 0.570002 0.127782 0.585777
C54   C     C_2   0.063737 0.476922 0.773257 -0.069896
C55   C     C_3   0.019891 0.482922 0.709592 -0.058269
C56   C     C_3   0.997968 0.632377 0.660102 0.298871
C57   C     C_1   0.302705 0.511585 0.694159 0.015802
C58   C     C_2   0.343652 0.511127 0.750256 -0.091809
C59   C     C_2   0.217626 0.493186 0.793232 0.217398
C60   C     C_R   0.707750 0.544265 0.235869 -0.098847
C61   C     C_R   0.749962 0.550122 0.296113 -0.040791
C62   C     C_R   0.500813 0.487612 0.314573 0.037596
C63   C     C_R   0.455832 0.482888 0.254591 -0.083765
C64   C     C_R   0.557853 0.512071 0.214635 0.212155
C65   C     C_2   0.169232 0.478353 0.671059 -0.281782
C66   C     C_3   0.036034 0.662088 0.725223 -0.360255
C67   C     C_3   0.320405 0.317269 0.393745 0.317464
C68   C     C_3   0.317883 0.236805 0.376433 -0.378816
H1    H     H_    0.434667 0.660515 0.313721 0.028568
H2    H     H_    0.730265 0.309623 0.260767 0.139370
H3    H     H_    0.772583 0.401209 0.254927 0.069619
H4    H     H_    0.937450 0.342460 0.257158 0.129728
H5    H     H_    0.111088 0.614105 0.637521 0.021263
H6    H     H_    0.908601 0.587347 0.657237 0.035960
H7    H     H_    0.117971 0.709837 0.728334 0.147074
H8    H     H_    0.096811 0.622528 0.746935 0.083146
H9    H     H_    0.922461 0.677062 0.749483 0.119706
H10   H     H_    0.196586 0.334464 0.404962 -0.000287
H11   H     H_    0.401178 0.332656 0.433103 0.082119
H12   H     H_    0.245633 0.710040 0.249520 0.160064
H13   H     H_    0.234080 0.219528 0.338181 0.126038
H14   H     H_    0.276540 0.211794 0.414465 0.057190
H15   H     H_    0.540321 0.746601 0.331651 -0.037353
H16   H     H_    0.450166 0.731829 0.229912 0.133394
H17   H     H_    0.607659 0.665735 0.607202 0.016891
H18   H     H_    0.403504 0.670411 0.579319 0.075466
H19   H     H_    0.574804 0.780292 0.675434 0.131230
H20   H     H_    0.538668 0.788874 0.598799 0.056468
H21   H     H_    0.369691 0.784264 0.648330 0.124838
H22   H     H_    0.332209 0.798700 0.273656 0.097960
H23   H     H_    0.877107 0.834663 0.355160 0.066712
H24   H     H_    0.790659 0.283813 0.615507 0.099044
H25   H     H_    0.762535 0.204889 0.693201 0.141346
H26   H     H_    0.885972 0.168938 0.631040 0.070181
H27   H     H_    0.980659 0.208447 0.701025 0.118990
H28   H     H_    0.390535 0.353957 0.681285 0.043848
H29   H     H_    0.373648 0.304774 0.775591 0.137448
H30   H     H_    0.577385 0.306075 0.747687 0.157787
H31   H     H_    0.973337 0.727752 0.392049 0.064620
H32   H     H_    0.459119 0.223433 0.738607 0.111963
H33   H     H_    0.870728 0.175707 0.434807 0.075367
H34   H     H_    0.178088 0.164939 0.587802 0.063106
H35   H     H_    0.633891 0.834274 0.411206 0.058922
H36   H     H_    0.941987 0.823580 0.563844 0.076376
H37   H     H_    0.162738 0.353068 0.516378 0.061328
H38   H     H_    0.644637 0.647038 0.485281 0.066121
H39   H     H_    0.294580 0.083212 0.539681 0.075402
H40   H     H_    0.441513 0.995786 0.576152 0.079584
H41   H     H_    0.359247 0.870991 0.544945 0.099125
H42   H     H_    0.788457 0.707858 0.348299 -0.098577
H43   H     H_    0.108930 0.841483 0.486251 0.127361
H44   H     H_    0.518297 0.915762 0.459700 0.074850
H45   H     H_    0.370759 0.003264 0.423455 0.078352
H46   H     H_    0.453734 0.128111 0.454871 0.096828
H47   H     H_    0.705148 0.157111 0.512630 0.127311
H48   H     H_    0.339333 0.328611 0.043234 0.123887
H49   H     H_    0.247319 0.324809 0.941494 0.121459
H50   H     H_    0.515133 0.680273 0.067142 0.119661
H51   H     H_    0.791560 0.564066 0.205596 0.107987
H52   H     H_    0.430985 0.675781 0.964544 0.123759
H53   H     H_    0.068539 0.808393 0.323296 0.141174
H54   H     H_    0.467189 0.524251 0.765422 0.103317
H55   H     H_    0.969221 0.466228 0.803894 0.095579
H56   H     H_    0.342346 0.456209 0.239022 0.117564
H57   H     H_    0.678385 0.527781 0.381684 0.079520
H58   H     H_    0.168013 0.447837 0.626195 0.064403
H59   H     H_    0.885157 0.787844 0.279450 0.120691
H60   H     H_    0.697609 0.387312 0.358710 0.011571
H61   H     H_    0.903575 0.422115 0.354792 0.062705
N1    N     N_R   0.259812 0.496023 0.855466 -0.428505
N2    N     N_R   0.509922 0.508650 0.152686 -0.424392
O1    O     O_2   0.108070 0.674980 0.540650 -0.458410
O2    O     O_3   0.375436 0.347340 0.345355 -0.627956
O3    O     O_3   0.999652 0.669884 0.307345 -0.583661
O4    O     O_2   0.702240 0.324970 0.459330 -0.460563
O5    O     O_3   0.948380 0.413820 0.464520 -0.492370
O6    O     O_3   0.443920 0.371740 0.566130 -0.462201
O7    O     O_3   0.876204 0.316741 0.364984 -0.631581
O8    O     O_3   0.358830 0.538360 0.571050 -0.480122
O9    O     O_3   0.852160 0.408490 0.597560 -0.488061
O10   O     O_2   0.687454 0.445201 0.697648 -0.481021
O11   O     O_3   0.862325 0.337242 0.699359 -0.595801
O12   O     O_3   0.861930 0.586170 0.535430 -0.487163
O13   O     O_3   0.451480 0.461630 0.428900 -0.494650
O14   O     O_2   0.599240 0.538720 0.642170 -0.458570
O15   O     O_3   0.424021 0.653701 0.666836 -0.634796
O16   O     O_2   0.529047 0.247394 0.518122 -0.507199
O17   O     O_3   0.488055 0.262359 0.633803 -0.598490
O18   O     O_2   0.324276 0.613197 0.866115 -0.593853
O19   O     O_2   0.192496 0.379953 0.851684 -0.604610
O20   O     O_2   0.460394 0.389966 0.139858 -0.597541
O21   O     O_2   0.559352 0.626510 0.157757 -0.621866
O22   O     O_3   0.366390 0.628250 0.433820 -0.459282
O23   O     O_2   0.287844 0.751931 0.484866 -0.503069
O24   O     O_3   0.931796 0.686366 0.634711 -0.636294
O25   O     O_3   0.312583 0.739558 0.368710 -0.584263
O26   O     O_2   0.211060 0.461230 0.357810 -0.458602
O27   O     O_3   0.958150 0.591500 0.402390 -0.483977
O28   O     O_2   0.083846 0.538952 0.296460 -0.477201
P1    P     P_3+3 0.933470 0.664380 0.557030 0.982636
P2    P     P_3+3 0.383600 0.440030 0.365120 0.993589
P3    P     P_3+3 0.947921 0.586680 0.325020 0.971723
P4    P     P_3+3 0.876840 0.335610 0.442930 0.981708
P5    P     P_3+3 0.855757 0.419536 0.675707 0.972965
P6    P     P_3+3 0.395999 0.718063 0.433603 0.938228
P7    P     P_3+3 0.417930 0.561164 0.645712 0.958110
P8    P     P_3+3 0.414402 0.282035 0.566894 0.922822
H62   H     H_    0.441429 0.218768 0.363881 0.128407
H63   H     H_    0.006274 0.292587 0.631176 -0.056083
H64   H     H_    0.263565 0.273301 0.674287 -0.021542

loop_
_geom_bond_atom_site_label_1
_geom_bond_atom_site_label_2
_ccdc_geom_bond_type
C53   O21   D    
C23   H23   S    
C7    H28   S    
C5    H63   S    
C39   C40   A    
Ba1   O12   S    
C6    H26   S    
C6    H27   S    
C23   H59   S    
C52   O20   D    
O4    P4    D    
C56   H6    S    
C5    C6    S    
C46   H50   S    
C51   C52   A    
C42   C43   A    
Ba2   O12   S    
C12   H42   S    
C24   C25   A    
C31   C37   A    
C38   C61   A    
C34   C45   S    
O5    P4    S    
O16   P8    D    
Ba2   O6    S    
O27   P3    S    
C41   N1    Am   
C33   C35   A    
C35   C36   A    
C22   C24   A    
Ba1   Ba2   S    
C26   H43   S    
C57   P7    S    
C3    C4    S    
O17   P8    S    
O12   P1    S    
C4    H21   S    
C66   H7    S    
C54   C55   S    
C13   P8    S    
C33   H44   S    
Ba1   O22   S    
C16   C17   A    
C58   H54   S    
C1    H12   S    
C59   N1    S    
C57   C65   D    
C3    H18   S    
C53   N2    Am   
C55   P5    S    
C2    O25   S    
O22   P6    S    
C14   C15   A    
O25   P6    S    
C49   H49   S    
C39   C44   A    
C68   H14   S    
C7    C8    S    
C24   H40   S    
C18   C32   S    
C66   H9    S    
C25   H41   S    
C57   C58   D    
C67   O2    S    
C3    O15   S    
C1    H16   S    
Ba1   O13   S    
C67   C68   S    
C6    H25   S    
C55   C65   S    
C62   P2    S    
C5    O11   S    
C56   H5    S    
C66   H8    S    
C61   P3    S    
C9    C18   A    
C44   C46   A    
C7    O17   S    
C48   C51   A    
C20   C29   S    
C60   C64   A    
C49   C50   A    
Ba2   O5    S    
C30   C33   A    
C8    H32   S    
C67   H11   S    
C45   H3    S    
C15   P6    S    
C34   H61   S    
C10   P4    S    
C28   C32   A    
C12   H31   S    
C2    H15   S    
O23   P6    D    
Ba2   O14   S    
C37   H47   S    
C52   N2    Am   
C10   C19   A    
O1    P1    D    
C30   C31   A    
O11   P5    S    
C1    H22   S    
C17   P1    S    
C17   C21   A    
C41   C42   A    
C16   H36   S    
O10   P5    D    
C27   C28   A    
C40   O18   D    
C34   H60   S    
O9    P5    S    
C64   N2    S    
C36   H46   S    
C29   C30   A    
Ba1   O26   S    
C60   H51   S    
C47   C53   A    
C60   C61   A    
C31   C32   A    
C15   C21   A    
C54   H55   S    
C11   H34   S    
C8    H30   S    
C68   H13   S    
C23   H53   S    
Ba2   P4    S    
C19   H37   S    
C14   H35   S    
C42   C49   A    
C56   C66   S    
C46   C47   A    
Ba1   P1    S    
C47   C48   A    
C11   C13   A    
O15   P7    S    
O26   P2    D    
Ba1   O1    S    
O28   P3    D    
C50   C51   A    
O3    P3    S    
O7    P4    S    
C5    H24   S    
C26   C27   A    
O8    P7    S    
C14   C20   A    
C11   C18   A    
C16   C20   A    
Ba2   O4    S    
O2    P2    S    
Ba1   O27   S    
C22   H39   S    
C45   H4    S    
C67   H10   S    
C56   O24   S    
C9    H33   S    
C9    C10   A    
C35   H45   S    
Ba2   O13   S    
C4    H19   S    
O13   P2    S    
C38   C62   A    
C63   H56   S    
C68   H62   S    
C27   C29   A    
C4    H20   S    
C65   H58   S    
C62   C63   A    
C38   H57   S    
C36   C37   A    
C12   O3    S    
C43   C48   A    
Ba2   O9    S    
C21   H38   S    
O6    P8    S    
C34   O7    S    
C12   C23   S    
C8    H29   S    
C22   C28   A    
C45   H2    S    
Ba1   O8    S    
O14   P7    D    
C41   O19   D    
C3    H17   S    
C13   C19   A    
Ba1   P2    S    
C58   C59   S    
C63   C64   A    
C25   C26   A    
Ba2   O8    S    
C39   C43   A    
C54   C59   D    
C44   H52   S    
C7    H64   S    
C40   N1    Am   
O24   P1    S    
C2    H1    S    
Ba1   O5    S    
C1    C2    S    
C50   H48   S    
