data_mof_unit_3321.cif
_audit_creation_date              2012-12-10T19:13:24-0500
_audit_creation_method            fapswitch 2.2
_symmetry_space_group_name_H-M    P1
_symmetry_Int_Tables_number       1
_space_group_crystal_system       triclinic
_cell_length_a                    9.777427
_cell_length_b                    10.652997
_cell_length_c                    16.507215
_cell_angle_alpha                 88.77988
_cell_angle_beta                  85.341465
_cell_angle_gamma                 89.983477
_cell_volume                      1713.30294433

loop_
_atom_site_label
_atom_site_type_symbol
_atom_type_description
_atom_site_fract_x
_atom_site_fract_y
_atom_site_fract_z
_atom_type_partial_charge
C1    C     C_R   0.500428 0.742081 0.498163 0.853984
C2    C     C_R   0.366423 0.624153 0.765589 -0.163850
C3    C     C_R   0.451906 0.691512 0.159499 0.654583
C4    C     C_R   0.435130 0.637424 0.236871 -0.303966
C5    C     C_R   0.647067 0.521060 0.210929 -0.187477
C6    C     C_R   0.662469 0.572920 0.132688 -0.242328
C7    C     C_R   0.562893 0.655145 0.105757 0.056898
C8    C     C_2   0.452440 0.669117 0.979809 -0.169558
C9    C     C_2   0.566487 0.683147 0.018496 -0.164311
C10   C     C_R   0.530977 0.550082 0.262281 -0.117426
C11   C     C_3   0.435219 0.930855 0.422444 -0.392442
C12   C     C_R   0.480615 0.504053 0.653557 0.948863
C13   C     C_3   0.427882 0.074708 0.426461 -0.370795
C14   C     C_3   0.417192 0.922288 0.575832 -0.467928
C15   C     C_3   0.650888 0.927898 0.497001 -0.420566
C16   C     C_3   0.501115 0.878127 0.498211 0.087681
C17   C     C_3   0.502035 0.120647 0.500308 -0.051506
C18   C     C_3   0.425468 0.066721 0.580559 -0.264103
C19   C     C_3   0.652239 0.070553 0.492135 0.472191
C20   C     C_3   0.913598 0.617809 0.535959 -0.222015
C21   C     C_3   0.075012 0.620444 0.534416 -0.233280
C22   C     C_3   0.913808 0.389511 0.547257 -0.146782
C23   C     C_R   0.500469 0.257611 0.499836 0.930352
C24   C     C_3   0.929829 0.494221 0.417780 -0.270275
C25   C     C_3   0.076211 0.392429 0.548163 -0.153214
C26   C     C_3   0.091963 0.494297 0.417486 -0.267894
C27   C     C_R   0.518929 0.506390 0.346473 0.898527
C28   C     C_R   0.466446 0.536335 0.738831 -0.034251
C29   C     C_R   0.559161 0.490194 0.791973 -0.120857
C30   C     C_R   0.556708 0.535601 0.870124 -0.148115
C31   C     C_R   0.460480 0.627366 0.895954 0.137546
C32   C     C_R   0.362711 0.668637 0.844317 -0.134273
H1    H     H_    0.632260 0.418553 0.773512 0.183785
H2    H     H_    0.748806 0.544357 0.091919 0.162402
H3    H     H_    0.329948 0.892361 0.419376 0.179392
H4    H     H_    0.497291 0.903078 0.366137 0.191196
H5    H     H_    0.475511 0.117079 0.368702 0.214297
H6    H     H_    0.318314 0.104201 0.432242 0.177436
H7    H     H_    0.307732 0.894269 0.573811 0.180179
H8    H     H_    0.318154 0.101561 0.584333 0.205237
H9    H     H_    0.697830 0.895838 0.553148 0.168704
H10   H     H_    0.714957 0.890453 0.444050 0.207481
H11   H     H_    0.349093 0.666467 0.277715 0.169274
H12   H     H_    0.711166 0.105571 0.541751 0.151121
H13   H     H_    0.452938 0.873166 0.630339 0.209051
H14   H     H_    0.866814 0.632611 0.598348 0.205837
H15   H     H_    0.880012 0.700171 0.500115 0.144827
H16   H     H_    0.114095 0.702420 0.496475 0.143532
H17   H     H_    0.107851 0.639278 0.595586 0.193596
H18   H     H_    0.895736 0.408699 0.387475 0.180188
H19   H     H_    0.724297 0.457115 0.230941 0.166810
H20   H     H_    0.896915 0.575208 0.380374 0.166132
H21   H     H_    0.134679 0.574058 0.378793 0.164259
H22   H     H_    0.133907 0.407674 0.388329 0.163963
H23   H     H_    0.889059 0.303740 0.513698 0.141619
H24   H     H_    0.114056 0.306389 0.516272 0.117900
H25   H     H_    0.665950 0.682506 0.983818 0.153127
H26   H     H_    0.285565 0.736665 0.864450 0.150305
H27   H     H_    0.294128 0.661318 0.724856 0.164852
H28   H     H_    0.351658 0.666606 0.012617 0.204342
H29   H     H_    0.628167 0.497043 0.910848 0.141185
N1    N     N_3   0.861190 0.500250 0.501720 -0.083272
N2    N     N_3   0.138550 0.503270 0.501080 -0.080918
O1    O     O_R   0.383960 0.685090 0.500020 -0.644100
O2    O     O_R   0.616040 0.685320 0.499960 -0.642034
O3    O     O_R   0.370240 0.499890 0.615830 -0.599135
O4    O     O_R   0.602330 0.500120 0.615770 -0.600470
O5    O     O_R   0.383960 0.314680 0.500040 -0.630428
O6    O     O_R   0.616040 0.314910 0.499980 -0.588724
O7    O     O_R   0.397670 0.499880 0.384230 -0.631603
O8    O     O_R   0.629760 0.500110 0.384170 -0.618462
Zn1   Zn    Zn3+2 0.345040 0.499850 0.500040 0.932232
Zn2   Zn    Zn3+2 0.654960 0.500150 0.499960 0.958325
F1    F     F_    0.719653 0.110626 0.418837 -0.676261
C33   C     C_2   0.489148 0.108192 0.656693 0.927581
O9    O     O_2   0.464127 0.212801 0.682940 -0.648866
O10   O     O_R   0.576118 0.028142 0.696963 -0.808826
H30   H     H_    0.606323 0.065023 0.748722 0.345834
C34   C     C_2   0.840481 0.368629 0.630893 0.958115
O11   O     O_2   0.841833 0.449095 0.682469 -0.627709
O12   O     O_R   0.779315 0.252571 0.650859 -0.822988
H31   H     H_    0.743684 0.245774 0.710109 0.339973
C35   C     C_2   0.125253 0.376049 0.632957 0.999251
O13   O     O_2   0.114268 0.460661 0.681934 -0.611822
O14   O     O_R   0.174101 0.259241 0.657141 -0.826246
H32   H     H_    0.196789 0.257054 0.716002 0.364814
F2    F     F_    0.359805 0.778489 0.137232 -0.679702

loop_
_geom_bond_atom_site_label_1
_geom_bond_atom_site_label_2
_ccdc_geom_bond_type
C10   C27   S    
C24   H20   S    
C26   H21   S    
C18   C33   S    
C14   C18   S    
C25   H24   S    
C32   H26   S    
C26   N2    S    
C21   H17   S    
O12   H31   S    
O10   H30   S    
C15   C19   S    
C17   C23   S    
C12   C28   S    
C11   H4    S    
C24   C26   S    
C22   C34   S    
C3    C7    A    
C5    C6    A    
C15   C16   S    
C29   H1    S    
O2    Zn2   S    
C2    C32   A    
C25   N2    S    
C18   H8    S    
C14   H7    S    
O3    Zn1   S    
C35   O13   D    
C8    C9    D    
C22   C25   S    
C1    O2    A    
N1    Zn2   S    
O6    Zn2   S    
O4    Zn2   S    
C13   H5    S    
C21   H16   S    
C26   H22   S    
C14   H13   S    
C24   H18   S    
C12   O4    A    
C3    F2    S    
C15   H9    S    
O8    Zn2   S    
C2    H27   S    
O14   H32   S    
C12   O3    A    
C23   O6    A    
C6    H2    S    
C23   O5    A    
C33   O9    D    
C29   C30   A    
C22   N1    S    
C11   C16   S    
C31   C32   A    
O5    Zn1   S    
C17   C18   S    
C1    C16   S    
C20   C21   S    
C33   O10   S    
C13   H6    S    
C6    C7    A    
C27   O7    A    
C35   O14   S    
C14   C16   S    
C4    C10   A    
C3    C4    A    
C1    O1    A    
C27   O8    A    
C19   H12   S    
C34   O12   S    
C7    C9    S    
C28   C29   A    
C24   N1    S    
C8    C31   S    
C19   F1    S    
C15   H10   S    
O7    Zn1   S    
C22   H23   S    
C4    H11   S    
C13   C17   S    
C11   H3    S    
C5    C10   A    
C8    H28   S    
C11   C13   S    
C30   C31   A    
C17   C19   S    
C9    H25   S    
O1    Zn1   S    
C20   N1    S    
C21   N2    S    
C20   H15   S    
C34   O11   D    
N2    Zn1   S    
C30   H29   S    
C25   C35   S    
C5    H19   S    
C2    C28   A    
C20   H14   S    
