data_mof_unit_170.cif
_audit_creation_date              2012-12-10T17:15:16-0500
_audit_creation_method            fapswitch 2.2
_symmetry_space_group_name_H-M    P1
_symmetry_Int_Tables_number       1
_space_group_crystal_system       triclinic
_cell_length_a                    15.883027
_cell_length_b                    12.997916
_cell_length_c                    11.742036
_cell_angle_alpha                 100.241961
_cell_angle_beta                  94.160014
_cell_angle_gamma                 91.118909
_cell_volume                      2377.88917923

loop_
_atom_site_label
_atom_site_type_symbol
_atom_type_description
_atom_site_fract_x
_atom_site_fract_y
_atom_site_fract_z
_atom_type_partial_charge
C1    C     C_R   0.498733 0.299636 0.478515 0.780466
C2    C     C_R   0.498462 0.700808 0.521492 0.803760
C3    C     C_R   0.396659 0.033574 0.408167 -0.021633
C4    C     C_R   0.558297 0.981682 0.634020 -0.010504
C5    C     C_R   0.415602 0.138858 0.409098 -0.132091
C6    C     C_R   0.545849 0.874392 0.626806 -0.136653
C7    C     C_R   0.544876 0.132242 0.531314 -0.115800
C8    C     C_R   0.448672 0.864494 0.454686 -0.095571
C9    C     C_R   0.520562 0.030077 0.544760 0.058073
C10   C     C_R   0.454209 0.975158 0.467979 0.047075
C11   C     C_R   0.417706 0.402340 0.019714 -0.157575
C12   C     C_R   0.582256 0.597689 0.980312 -0.160100
C13   C     C_R   0.427474 0.410173 0.142065 0.499711
C14   C     C_R   0.572820 0.589464 0.857902 0.493250
C15   C     C_R   0.533623 0.543320 0.158327 0.050166
C16   C     C_R   0.466066 0.457052 0.841719 0.020103
C17   C     C_R   0.529575 0.535560 0.035160 -0.030805
C18   C     C_R   0.470182 0.464730 0.964885 -0.037051
C19   C     C_R   0.339912 0.499803 0.499888 0.816254
C20   C     C_R   0.660086 0.500051 0.500089 0.832471
C21   C     C_3   0.973056 0.410256 0.528029 -0.115402
C22   C     C_3   0.026930 0.588828 0.471719 -0.099467
C23   C     C_3   0.022920 0.419171 0.422423 0.388851
C24   C     C_3   0.977078 0.579909 0.577327 0.389522
C25   C     C_1   0.250366 0.499845 0.499777 -0.082433
C26   C     C_1   0.749630 0.499677 0.500136 -0.074094
C27   C     C_3   0.034291 0.491441 0.606826 -0.299970
C28   C     C_3   0.965699 0.507639 0.392922 -0.294810
C29   C     C_3   0.083363 0.500528 0.499898 0.016158
C30   C     C_3   0.916626 0.498562 0.499855 0.014505
C31   C     C_1   0.174942 0.500063 0.499843 0.130322
C32   C     C_1   0.825048 0.499201 0.499987 0.133450
C33   C     C_R   0.496616 0.814880 0.534291 -0.148357
C34   C     C_R   0.489214 0.187127 0.467735 -0.130099
Cu1   Cu    Cu3+1 0.506200 0.507730 0.615930 1.017120
Cu2   Cu    Cu3+1 0.493800 0.492270 0.384070 1.032562
H1    H     H_    0.937311 0.513952 0.305304 0.206927
H2    H     H_    0.062680 0.485125 0.694442 0.206922
H3    H     H_    0.576989 0.836288 0.692219 0.237250
H4    H     H_    0.370515 0.185484 0.368756 0.222923
H5    H     H_    0.423998 0.400777 0.785422 0.182048
H6    H     H_    0.575511 0.599803 0.214641 0.188355
N1    N     N_R   0.515540 0.519350 0.790140 -0.220713
N2    N     N_R   0.484460 0.480650 0.209860 -0.226339
O1    O     O_R   0.504400 0.354460 0.582000 -0.615968
O2    O     O_R   0.495600 0.645540 0.418000 -0.596758
O3    O     O_R   0.493920 0.341410 0.386200 -0.523565
O4    O     O_R   0.506080 0.658590 0.613800 -0.538336
O5    O     O_R   0.384320 0.506520 0.597880 -0.580958
O6    O     O_R   0.615680 0.493480 0.402120 -0.581846
O7    O     O_R   0.373840 0.493460 0.402080 -0.527901
O8    O     O_R   0.626160 0.506540 0.597920 -0.524445
Cl1   Cl    Cl    0.054289 0.312081 0.318989 -0.494359
Cl2   Cl    Cl    0.945785 0.686983 0.680836 -0.493945
C35   C     C_2   0.945330 0.308845 0.559550 0.512132
H7    H     H_    0.992178 0.252989 0.577210 0.099582
O9    O     O_2   0.870647 0.288486 0.565517 -0.493828
C36   C     C_2   0.054611 0.690245 0.440158 0.493057
H8    H     H_    0.007740 0.746092 0.422557 0.106543
O10   O     O_2   0.129279 0.710618 0.434077 -0.535643
C37   C     C_2   0.399553 0.799571 0.353656 0.377592
H9    H     H_    0.360514 0.733470 0.365777 0.097500
O11   O     O_2   0.404757 0.817495 0.255729 -0.496936
C38   C     C_2   0.632082 0.176949 0.567237 0.377996
H10   H     H_    0.644446 0.260811 0.585819 0.092794
O12   O     O_2   0.692149 0.119985 0.570207 -0.457583
C39   C     C_2   0.310459 0.993234 0.361422 0.484572
H11   H     H_    0.280542 0.930030 0.394454 0.067159
O13   O     O_2   0.271072 0.031731 0.287071 -0.458126
C40   C     C_2   0.601981 0.042802 0.742096 0.486657
H12   H     H_    0.593653 0.126361 0.765071 0.045437
O14   O     O_2   0.646625 0.000289 0.807866 -0.475640
Cl3   Cl    Cl    0.640180 0.667994 0.793227 -0.561591
Cl4   Cl    Cl    0.361209 0.330281 0.206632 -0.563766
C41   C     C_2   0.351457 0.329243 0.952219 0.415199
H13   H     H_    0.343921 0.250664 0.970156 0.133679
O15   O     O_2   0.302066 0.357760 0.880390 -0.519705
C42   C     C_2   0.648550 0.670718 0.047811 0.448391
H14   H     H_    0.656327 0.749163 0.029572 0.143783
O16   O     O_2   0.697720 0.642274 0.119944 -0.519952

loop_
_geom_bond_atom_site_label_1
_geom_bond_atom_site_label_2
_ccdc_geom_bond_type
C25   C31   T    
C35   H7    S    
C11   C18   A    
C26   C32   T    
C22   C29   S    
C27   C29   S    
Cu1   Cu2   S    
C24   C27   S    
C4    C40   S    
C2    O2    A    
C23   C29   S    
C15   N2    A    
C42   O16   D    
C27   H2    S    
C36   O10   D    
Cu2   O3    S    
C15   C17   A    
C37   O11   D    
C20   O6    A    
C12   C42   S    
C12   C17   A    
Cu1   O5    S    
Cu2   O2    S    
C40   H12   S    
Cu1   N1    S    
C9    C10   A    
C8    C37   S    
C21   C27   S    
C22   C28   S    
Cu1   O4    S    
C1    C34   S    
C23   Cl1   S    
C21   C23   S    
C39   H11   S    
C14   Cl3   S    
C4    C6    A    
C21   C35   S    
C42   H14   S    
C1    O3    A    
C2    O4    A    
C36   H8    S    
C39   O13   D    
C38   O12   D    
C41   H13   S    
C19   O5    A    
C29   C31   S    
C5    C34   A    
C17   C18   A    
C23   C28   S    
C41   O15   D    
C16   N1    A    
Cu2   O7    S    
C2    C33   S    
C8    C10   A    
C12   C14   A    
C35   O9    D    
C7    C34   A    
C22   C24   S    
Cu2   N2    S    
Cu1   O1    S    
Cu2   O6    S    
C7    C9    A    
C3    C39   S    
C15   H6    S    
C3    C5    A    
C22   C36   S    
C21   C30   S    
C6    C33   A    
C38   H10   S    
C28   C30   S    
C20   O8    A    
C3    C10   A    
C11   C41   S    
C30   C32   S    
C11   C13   A    
C1    O1    A    
C20   C26   S    
C28   H1    S    
C8    C33   A    
C37   H9    S    
C19   C25   S    
C24   C30   S    
C7    C38   S    
C19   O7    A    
C13   Cl4   S    
C16   C18   A    
C5    H4    S    
Cu1   O8    S    
C6    H3    S    
C40   O14   D    
C4    C9    A    
C24   Cl2   S    
C16   H5    S    
C13   N2    A    
C14   N1    A    
