data_mof_unit_1777.cif
_audit_creation_date              2012-10-26T18:40:42-0400
_audit_creation_method            fapswitch 2.2
_symmetry_space_group_name_H-M    P1
_symmetry_Int_Tables_number       1
_space_group_crystal_system       triclinic
_cell_length_a                    15.115791
_cell_length_b                    13.935078
_cell_length_c                    11.691462
_cell_angle_alpha                 89.972243
_cell_angle_beta                  90.927341
_cell_angle_gamma                 89.841933
_cell_volume                      2462.35408962

loop_
_atom_site_label
_atom_site_type_symbol
_atom_type_description
_atom_site_fract_x
_atom_site_fract_y
_atom_site_fract_z
_atom_type_partial_charge
C1    C     C_R   0.330088 0.500042 0.500286 0.533874
C2    C     C_R   0.500146 0.499991 0.715980 0.533378
C3    C     C_R   0.523809 0.107601 0.599513 0.212037
C4    C     C_R   0.424782 0.892214 0.458734 0.200876
C5    C     C_R   0.469745 0.106960 0.403881 0.212863
C6    C     C_R   0.572248 0.893422 0.541147 0.151157
C7    C     C_1   0.499660 0.500090 0.162369 -0.026978
C8    C     C_1   0.500063 0.500019 0.837637 -0.023832
C9    C     C_1   0.499696 0.500150 0.059883 -0.045670
C10   C     C_1   0.499905 0.500117 0.940124 -0.044090
C11   C     C_R   0.534463 0.208091 0.591471 0.401129
C12   C     C_R   0.669984 0.499831 0.499897 0.532750
C13   C     C_R   0.431798 0.790533 0.447608 0.339625
C14   C     C_R   0.462996 0.209072 0.409761 0.329398
C15   C     C_R   0.567539 0.791497 0.551777 0.340564
C16   C     C_R   0.094436 0.574792 0.448070 0.245373
C17   C     C_R   0.904158 0.420273 0.452778 0.247543
C18   C     C_R   0.905332 0.576774 0.547324 0.245970
C19   C     C_R   0.096693 0.422794 0.552644 0.246114
C20   C     C_R   0.186481 0.576322 0.452381 -0.142225
C21   C     C_R   0.812081 0.420126 0.456281 -0.148357
C22   C     C_R   0.813303 0.577878 0.543184 -0.139023
C23   C     C_R   0.233758 0.499796 0.500811 -0.093622
C24   C     C_R   0.188731 0.422581 0.549122 -0.145277
C25   C     C_3   0.666408 0.260552 0.667085 0.035671
C26   C     C_3   0.714344 0.190031 0.746283 -0.356510
C27   C     C_3   0.378436 0.755740 0.269274 -0.001383
C28   C     C_3   0.315361 0.690861 0.202588 -0.385776
C29   C     C_3   0.328797 0.247798 0.331095 0.008863
C30   C     C_3   0.282402 0.319653 0.252330 -0.364920
C31   C     C_3   0.622156 0.756248 0.729445 -0.010097
C32   C     C_3   0.686170 0.691274 0.795050 -0.379408
C33   C     C_3   0.035539 0.630510 0.280683 -0.014325
C34   C     C_R   0.766452 0.499299 0.499665 -0.095605
C35   C     C_3   0.002740 0.720753 0.220227 -0.354372
C36   C     C_3   0.967863 0.357323 0.294370 -0.009371
C37   C     C_3   0.998732 0.263850 0.240912 -0.357641
C38   C     C_3   0.965888 0.639240 0.710127 -0.013831
C39   C     C_3   0.995862 0.732600 0.765472 -0.354713
C40   C     C_3   0.036007 0.367051 0.716459 -0.009525
C41   C     C_3   0.005991 0.276218 0.776347 -0.358040
C42   C     C_R   0.048775 0.498609 0.500332 0.050006
C43   C     C_R   0.951546 0.498473 0.500002 0.051518
C44   C     C_R   0.496258 0.054384 0.501882 0.052611
C45   C     C_R   0.497821 0.945158 0.500330 0.057190
C46   C     C_R   0.499776 0.500023 0.284022 0.534645
Cu1   Cu    Cu3+1 0.500000 0.596430 0.500000 1.025387
Cu2   Cu    Cu3+1 0.500000 0.403570 0.500000 1.019855
H1    H     H_    0.220715 0.636406 0.415007 0.187915
H2    H     H_    0.688025 0.248530 0.577232 0.120671
H3    H     H_    0.703863 0.115354 0.716372 0.217602
H4    H     H_    0.786434 0.204869 0.746199 0.078147
H5    H     H_    0.690043 0.197558 0.834977 0.177470
H6    H     H_    0.447238 0.739036 0.242653 0.151191
H7    H     H_    0.362930 0.831358 0.245685 0.161546
H8    H     H_    0.245818 0.710528 0.221192 0.141740
H9    H     H_    0.326271 0.699170 0.109417 0.101857
H10   H     H_    0.326813 0.614690 0.226760 0.155237
H11   H     H_    0.305834 0.260685 0.419937 0.147299
H12   H     H_    0.776364 0.358838 0.422354 0.147762
H13   H     H_    0.308561 0.174339 0.304506 0.154659
H14   H     H_    0.300528 0.305757 0.162156 0.153613
H15   H     H_    0.209600 0.313012 0.260417 0.089870
H16   H     H_    0.302093 0.393931 0.275525 0.161211
H17   H     H_    0.553632 0.738654 0.756104 0.144443
H18   H     H_    0.636736 0.831767 0.753932 0.146727
H19   H     H_    0.755414 0.711219 0.775678 0.141625
H20   H     H_    0.675856 0.699112 0.888403 0.102368
H21   H     H_    0.675080 0.615196 0.770571 0.157730
H22   H     H_    0.983951 0.574336 0.270361 0.113637
H23   H     H_    0.778776 0.639523 0.576803 0.191867
H24   H     H_    0.097483 0.606608 0.238425 0.100076
H25   H     H_    0.940118 0.745766 0.258882 0.177075
H26   H     H_    0.990468 0.705365 0.128138 0.080795
H27   H     H_    0.053182 0.778288 0.228107 0.159683
H28   H     H_    0.022789 0.409870 0.288656 0.110098
H29   H     H_    0.909440 0.383911 0.244017 0.111585
H30   H     H_    0.057025 0.235303 0.289092 0.170442
H31   H     H_    0.017544 0.276529 0.150732 0.081275
H32   H     H_    0.944701 0.210045 0.242677 0.163859
H33   H     H_    0.019801 0.585544 0.721788 0.114857
H34   H     H_    0.224911 0.362973 0.586983 0.147210
H35   H     H_    0.905583 0.614284 0.755096 0.099576
H36   H     H_    0.943066 0.787786 0.756153 0.159583
H37   H     H_    0.010001 0.720699 0.857919 0.081705
H38   H     H_    0.056870 0.758812 0.724101 0.176686
H39   H     H_    0.981448 0.420487 0.720896 0.110238
H40   H     H_    0.095506 0.394890 0.763266 0.110773
H41   H     H_    0.059731 0.221715 0.775756 0.162503
H42   H     H_    0.989161 0.292664 0.866367 0.080945
H43   H     H_    0.946656 0.246613 0.731838 0.168391
H44   H     H_    0.509387 0.002808 0.707565 0.321379
H45   H     H_    0.298966 0.893929 0.419308 0.346624
H46   H     H_    0.446484 0.103781 0.239358 0.346720
H47   H     H_    0.697744 0.897980 0.581596 0.352917
H48   H     H_    0.688259 0.333942 0.691221 0.146274
N1    N     N_R   0.500000 0.258690 0.500000 -0.271555
N2    N     N_R   0.500000 0.741310 0.500000 -0.243320
O1    O     O_R   0.371460 0.581430 0.500010 -0.446145
O2    O     O_3   0.347552 0.940704 0.430496 -0.678640
O3    O     O_3   0.451512 0.057702 0.303659 -0.671411
O4    O     O_3   0.647929 0.943600 0.570958 -0.700495
O5    O     O_3   0.573703 0.255702 0.682414 -0.492849
O6    O     O_3   0.367594 0.740135 0.387746 -0.546610
O7    O     O_3   0.421367 0.259128 0.322184 -0.530879
O8    O     O_3   0.633050 0.741964 0.610765 -0.542116
O9    O     O_3   0.049776 0.650966 0.397730 -0.504378
O10   O     O_3   0.946839 0.340465 0.409789 -0.507911
O11   O     O_3   0.949315 0.655298 0.592520 -0.504309
O12   O     O_R   0.628540 0.418570 0.499990 -0.523159
O13   O     O_3   0.054497 0.345350 0.601411 -0.508258
O14   O     O_R   0.628540 0.581430 0.499990 -0.443442
O15   O     O_R   0.371460 0.418570 0.500010 -0.505754
O16   O     O_R   0.500010 0.581440 0.337200 -0.497931
O17   O     O_R   0.499990 0.418560 0.662800 -0.444676
O18   O     O_R   0.499990 0.581440 0.662800 -0.500870
O19   O     O_R   0.500010 0.418560 0.337200 -0.433114
O20   O     O_3   0.540436 0.065175 0.704505 -0.663439

loop_
_geom_bond_atom_site_label_1
_geom_bond_atom_site_label_2
_ccdc_geom_bond_type
Cu1   O16   S    
C41   H41   S    
C35   H26   S    
C6    C45   A    
C30   H16   S    
C38   H35   S    
C36   O10   S    
Cu2   O12   S    
C33   O9    S    
C18   O11   S    
C1    O1    A    
C12   O12   A    
C28   H8    S    
C27   H6    S    
C28   H9    S    
Cu2   N1    S    
C37   H31   S    
C35   H27   S    
C29   C30   S    
Cu1   N2    S    
C40   H39   S    
C36   C37   S    
C39   H36   S    
C36   H29   S    
C38   C39   S    
C27   H7    S    
Cu1   O14   S    
C27   O6    S    
C13   N2    A    
Cu1   O1    S    
C31   H17   S    
C4    C13   A    
C24   H34   S    
C25   H2    S    
H44   O20   S    
C36   H28   S    
C33   H24   S    
C6    C15   A    
C2    O18   A    
C14   O7    S    
C29   H11   S    
H46   O3    S    
Cu1   Cu2   S    
C23   C24   A    
C9    C10   S    
C16   O9    S    
H47   O4    S    
C32   H20   S    
C41   H42   S    
C30   H15   S    
C29   O7    S    
C1    O15   A    
C40   O13   S    
C5    O3    S    
C4    C45   A    
Cu1   O18   S    
C22   C34   A    
C37   H32   S    
C29   H13   S    
C3    C44   A    
C46   O16   A    
C7    C46   S    
C21   H12   S    
C17   O10   S    
C25   O5    S    
C21   C34   A    
C25   C26   S    
C17   C21   A    
C46   O19   A    
C13   O6    S    
C17   C43   A    
C20   H1    S    
C3    O20   S    
C26   H4    S    
C2    O17   A    
C31   C32   S    
C20   C23   A    
C16   C20   A    
C38   O11   S    
H45   O2    S    
C5    C14   A    
Cu2   O19   S    
C33   H22   S    
C32   H19   S    
C40   C41   S    
C41   H43   S    
C5    C44   A    
C1    C23   S    
C19   O13   S    
Cu2   O17   S    
C38   H33   S    
C31   O8    S    
C42   C43   S    
C39   H37   S    
C15   N2    A    
C12   C34   S    
C26   H5    S    
C16   C42   A    
C22   H23   S    
C12   O14   A    
C44   C45   S    
C15   O8    S    
C14   N1    A    
C7    C9    T    
C35   H25   S    
C18   C22   A    
C31   H18   S    
C2    C8    S    
C19   C42   A    
C32   H21   S    
C28   H10   S    
C37   H30   S    
C4    O2    S    
C11   N1    A    
C40   H40   S    
C30   H14   S    
C19   C24   A    
C18   C43   A    
C33   C35   S    
C6    O4    S    
C3    C11   A    
C25   H48   S    
C8    C10   T    
C27   C28   S    
C11   O5    S    
C39   H38   S    
C26   H3    S    
Cu2   O15   S    
