data_mof_unit_3895.cif
_audit_creation_date              2012-12-10T16:48:49-0500
_audit_creation_method            fapswitch 2.2
_symmetry_space_group_name_H-M    P1
_symmetry_Int_Tables_number       1
_space_group_crystal_system       triclinic
_cell_length_a                    17.164466
_cell_length_b                    8.745348
_cell_length_c                    7.424583
_cell_angle_alpha                 102.841707
_cell_angle_beta                  88.86849
_cell_angle_gamma                 92.288459
_cell_volume                      1085.68815188

loop_
_atom_site_label
_atom_site_type_symbol
_atom_type_description
_atom_site_fract_x
_atom_site_fract_y
_atom_site_fract_z
_atom_type_partial_charge
C1    C     C_R   0.496747 0.200435 0.454820 0.826424
C2    C     C_R   0.504393 0.799498 0.544655 0.895668
C3    C     C_2   0.484152 0.035098 0.437658 -0.249006
C4    C     C_2   0.517413 0.964693 0.560836 -0.239072
C5    C     C_R   0.351258 0.505713 0.529171 0.836731
C6    C     C_R   0.649022 0.497976 0.471188 0.780833
C7    C     C_R   0.267257 0.516250 0.556034 -0.086364
C8    C     C_R   0.733430 0.490044 0.444173 -0.108871
C9    C     C_R   0.221914 0.376735 0.509784 -0.195574
C10   C     C_R   0.774194 0.404196 0.547764 -0.073116
C11   C     C_R   0.141054 0.380574 0.517987 -0.079052
C12   C     C_R   0.854048 0.388770 0.524151 -0.108432
C13   C     C_R   0.104844 0.524728 0.567836 0.120652
C14   C     C_R   0.894672 0.462829 0.400130 0.133021
C15   C     C_R   0.149695 0.663858 0.620635 -0.108964
C16   C     C_R   0.854229 0.543113 0.290135 -0.085115
C17   C     C_R   0.231133 0.662356 0.617159 -0.030959
C18   C     C_R   0.773613 0.559284 0.311928 -0.127447
C19   C     C_2   0.019534 0.532988 0.559464 -0.140218
C20   C     C_2   0.980530 0.471224 0.399619 -0.152299
Cu1   Cu    Cu3+1 0.508700 0.517250 0.683000 1.052305
Cu2   Cu    Cu3+1 0.491300 0.482750 0.317000 1.040063
H1    H     H_    0.249305 0.264885 0.464461 0.151413
H2    H     H_    0.744145 0.348923 0.647558 0.200750
H3    H     H_    0.120475 0.774074 0.661220 0.179711
H4    H     H_    0.886293 0.601169 0.195408 0.167737
H5    H     H_    0.884874 0.324970 0.608379 0.151499
H6    H     H_    0.106624 0.272005 0.479646 0.148817
H7    H     H_    0.439944 0.380100 0.958700 0.234652
H8    H     H_    0.559997 0.619989 0.041300 0.267549
N1    N     N_2   0.478180 0.456750 0.041980 -0.205033
N2    N     N_2   0.521820 0.543250 0.958020 -0.192524
O1    O     O_R   0.505650 0.286040 0.618880 -0.590112
O2    O     O_R   0.494350 0.713960 0.381120 -0.576061
O3    O     O_R   0.490960 0.256910 0.309800 -0.542666
O4    O     O_R   0.509040 0.743090 0.690200 -0.519821
O5    O     O_R   0.394600 0.516230 0.672450 -0.577653
O6    O     O_R   0.605400 0.483770 0.327550 -0.589223
O7    O     O_R   0.379910 0.487100 0.363380 -0.563362
O8    O     O_R   0.620090 0.512900 0.636620 -0.549325
C21   C     C_2   0.734574 0.656242 0.201972 0.877654
O9    O     O_2   0.747961 0.635303 0.036301 -0.550230
O10   O     O_R   0.684484 0.774706 0.284568 -0.724538
H9    H     H_    0.683060 0.793528 0.424193 0.285466
C22   C     C_2   0.275122 0.815277 0.673574 0.880128
O11   O     O_2   0.343844 0.819914 0.713727 -0.603284
O12   O     O_R   0.237323 0.955808 0.683314 -0.755728
H10   H     H_    0.273295 0.051813 0.722934 0.332022
C23   C     C_2   0.020902 0.415379 0.218127 0.896120
O13   O     O_2   0.989219 0.313973 0.098997 -0.571498
O14   O     O_R   0.093112 0.482158 0.180273 -0.719431
H11   H     H_    0.113658 0.434507 0.051912 0.352673
C24   C     C_2   0.979500 0.618280 0.731180 0.859544
O15   O     O_2   0.005948 0.615992 0.882246 -0.578133
O16   O     O_R   0.913998 0.705965 0.720589 -0.733177
H12   H     H_    0.892838 0.758273 0.846753 0.359253
C25   C     C_2   0.424186 0.958352 0.300301 0.874193
O17   O     O_2   0.369187 0.882230 0.346996 -0.581427
O18   O     O_R   0.429532 0.978495 0.119018 -0.686763
H13   H     H_    0.384217 0.925131 0.041516 0.362168
C26   C     C_2   0.578895 0.041413 0.694070 0.866877
O19   O     O_2   0.633676 0.115061 0.642035 -0.605289
O20   O     O_R   0.575072 0.024845 0.877094 -0.681273
H14   H     H_    0.620119 0.081462 0.953684 0.347118

loop_
_geom_bond_atom_site_label_1
_geom_bond_atom_site_label_2
_ccdc_geom_bond_type
C22   O11   D    
C2    C4    S    
O10   H9    S    
C6    O6    A    
C15   C17   A    
C20   C23   S    
C5    O5    A    
C11   C13   A    
C21   O9    D    
C24   O16   S    
C19   C20   D    
O16   H12   S    
C19   C24   S    
C13   C15   A    
C1    O1    A    
O18   H13   S    
H7    N1    S    
Cu1   O4    S    
N1    N2    D    
C24   O15   D    
H8    N2    S    
Cu2   O3    S    
C21   O10   S    
C2    O2    A    
C25   O17   D    
Cu1   O8    S    
C10   C12   A    
C11   H6    S    
Cu2   O7    S    
C3    C25   S    
C16   C18   A    
C12   C14   A    
C6    O8    A    
C22   O12   S    
C16   H4    S    
C26   O19   D    
Cu2   O2    S    
Cu1   N2    S    
C14   C16   A    
C25   O18   S    
Cu1   O1    S    
Cu2   N1    S    
C13   C19   S    
C12   H5    S    
O14   H11   S    
Cu2   O6    S    
O12   H10   S    
C7    C9    A    
Cu1   O5    S    
C1    O3    A    
C14   C20   S    
C8    C10   A    
C23   O13   D    
C18   C21   S    
C2    O4    A    
C1    C3    S    
C5    C7    S    
C5    O7    A    
C9    C11   A    
C9    H1    S    
C6    C8    S    
C15   H3    S    
C10   H2    S    
Cu1   Cu2   S    
C4    C26   S    
C26   O20   S    
C8    C18   A    
C3    C4    D    
C17   C22   S    
O20   H14   S    
C23   O14   S    
C7    C17   A    
