data_mof_unit_3386.cif
_audit_creation_date              2012-12-11T15:59:47-0500
_audit_creation_method            fapswitch 2.2
_symmetry_space_group_name_H-M    P1
_symmetry_Int_Tables_number       1
_space_group_crystal_system       triclinic
_cell_length_a                    10.837622
_cell_length_b                    10.622061
_cell_length_c                    16.915775
_cell_angle_alpha                 99.276439
_cell_angle_beta                  99.858888
_cell_angle_gamma                 60.814007
_cell_volume                      1668.12611626

loop_
_atom_site_label
_atom_site_type_symbol
_atom_type_description
_atom_site_fract_x
_atom_site_fract_y
_atom_site_fract_z
_atom_type_partial_charge
C1    C     C_R   0.378343 0.718542 0.387693 0.541404
C2    C     C_R   0.877909 0.317902 0.344135 -0.015230
C3    C     C_R   0.366399 0.781927 0.144559 0.000618
C4    C     C_R   0.406756 0.376180 0.356609 0.563821
C5    C     C_R   0.477955 0.787029 0.199411 0.035684
C6    C     C_R   0.466589 0.794994 0.282442 -0.003332
C7    C     C_R   0.292650 0.706500 0.246037 -0.158555
C8    C     C_R   0.287292 0.723790 0.166239 -0.148329
C9    C     C_R   0.594238 0.793805 0.175267 0.003469
C10   C     C_R   0.680130 0.833908 0.233342 -0.052350
C11   C     C_R   0.655098 0.864366 0.313912 0.098678
C12   C     C_R   0.935808 0.168170 0.217904 0.011218
C13   C     C_R   0.546791 0.849015 0.337844 -0.070143
C14   C     C_R   0.373376 0.750900 0.305691 0.004052
C15   C     C_R   0.347856 0.359694 0.838991 -0.004088
C16   C     C_R   0.785685 0.371750 0.408478 0.532183
C17   C     C_R   0.489034 0.286952 0.819546 0.002211
C18   C     C_R   0.515098 0.264345 0.737717 0.054284
C19   C     C_R   0.269302 0.463373 0.713164 -0.162601
C20   C     C_R   0.240687 0.456006 0.788148 -0.158393
C21   C     C_R   0.600471 0.218599 0.879821 -0.076321
C22   C     C_R   0.724246 0.098441 0.859722 -0.078963
C23   C     C_R   0.915020 0.183681 0.300245 0.016843
C24   C     C_R   0.748599 0.059369 0.779935 -0.105271
C25   C     C_R   0.650176 0.140978 0.718577 0.115763
C26   C     C_R   0.400579 0.363339 0.683804 0.002778
C27   C     C_1   0.849056 0.326443 0.704901 -0.046937
C28   C     C_R   0.358109 0.770004 0.627070 0.552576
C29   C     C_1   0.896689 0.292001 0.771925 -0.042360
C30   C     C_1   0.339327 0.810603 0.709392 -0.039636
C31   C     C_1   0.312608 0.838040 0.777556 -0.035057
C32   C     C_R   0.962753 0.279969 0.100887 0.577405
C33   C     C_R   0.323205 0.304145 0.118299 0.539721
C34   C     C_R   0.909970 0.415233 0.318774 -0.109092
C35   C     C_R   0.300573 0.879131 0.079881 0.542186
C36   C     C_R   0.945668 0.272505 0.854685 0.578894
C37   C     C_R   0.310563 0.299628 0.897593 0.538411
C38   C     C_R   0.278484 0.884812 0.857478 0.541970
C39   C     C_R   0.412222 0.376210 0.600142 0.583769
C40   C     C_R   0.779159 0.377100 0.628631 0.545781
C41   C     C_1   0.378404 0.364125 0.271506 -0.051822
C42   C     C_1   0.354235 0.345195 0.200162 -0.058280
C43   C     C_R   0.944129 0.283036 0.186616 0.007093
C44   C     C_3   0.990901 0.504950 0.226025 -0.366761
C45   C     C_R   0.946822 0.398194 0.242464 -0.025639
C46   C     C_3   0.636979 0.749218 0.090279 -0.353773
C47   C     C_R   0.947533 0.037965 0.172847 -0.085636
C48   C     C_R   0.961155 0.923614 0.210135 -0.142922
C49   C     C_R   0.961740 0.934376 0.292728 -0.083719
C50   C     C_R   0.933907 0.064937 0.337457 -0.053449
Cr1   Cr    Cr6+3 0.608100 0.610860 0.522250 1.001221
Cr2   Cr    Cr6+3 0.288890 0.599990 0.488420 0.994498
Cr3   Cr    Cr6+3 0.603040 0.289190 0.489390 0.998757
Cr4   Cr    Cr6+3 0.053960 0.052250 0.967380 0.969391
Cr5   Cr    Cr6+3 0.059890 0.373160 0.992710 0.982679
Cr6   Cr    Cr6+3 0.373370 0.061690 0.991710 0.993411
H1    H     H_    0.898654 0.511186 0.357703 0.150986
H2    H     H_    0.975175 0.824005 0.174629 0.083790
H3    H     H_    0.981301 0.841824 0.321749 0.148348
H4    H     H_    0.932756 0.070767 0.401820 0.135575
H5    H     H_    0.227635 0.664443 0.261544 0.122416
H6    H     H_    0.210756 0.705136 0.122701 0.130950
H7    H     H_    0.682018 0.000284 0.405105 0.267579
H8    H     H_    0.797055 0.823595 0.412795 0.210888
H9    H     H_    0.691466 0.980622 0.628633 0.215451
H10   H     H_    0.789164 0.066845 0.635063 0.225789
H11   H     H_    0.001149 0.574443 0.280650 0.111872
H12   H     H_    0.767353 0.840507 0.215575 0.119990
H13   H     H_    0.095343 0.444872 0.205307 0.160635
H14   H     H_    0.915697 0.578271 0.181715 0.144869
H15   H     H_    0.749638 0.669006 0.089547 0.130277
H16   H     H_    0.576999 0.698077 0.051546 0.143007
H17   H     H_    0.622754 0.844345 0.062936 0.148982
H18   H     H_    0.525561 0.885201 0.399622 0.156603
H19   H     H_    0.182660 0.540987 0.675701 0.152592
H20   H     H_    0.584915 0.247959 0.943143 0.127753
H21   H     H_    0.132630 0.518114 0.803880 0.139751
H22   H     H_    0.802462 0.035890 0.906361 0.126890
H23   H     H_    0.846797 0.964399 0.765222 0.114965
H24   H     H_    0.946853 0.015886 0.109147 0.174216
N1    N     N_3   0.745255 0.903639 0.372476 -0.658072
N2    N     N_3   0.687305 0.082349 0.638925 -0.563347
O1    O     O_R   0.749810 0.499790 0.438040 -0.528374
O2    O     O_R   0.411730 0.181020 0.091530 -0.501988
O3    O     O_R   0.365010 0.944360 0.063320 -0.496611
O4    O     O_R   0.477660 0.726260 0.439290 -0.508997
O5    O     O_R   0.159380 0.906670 0.876210 -0.528191
O6    O     O_R   0.930820 0.177420 0.886730 -0.494246
O7    O     O_R   0.910360 0.395420 0.895720 -0.501499
O8    O     O_R   0.186010 0.361730 0.919870 -0.518544
O9    O     O_R   0.400000 0.173010 0.914630 -0.515263
O10   O     O_R   0.354140 0.936940 0.899340 -0.496011
O11   O     O_3   0.162410 0.162370 0.983930 -0.272749
O12   O     O_R   0.298970 0.468800 0.557390 -0.500926
O13   O     O_R   0.260150 0.743000 0.412270 -0.523501
O14   O     O_R   0.297740 0.466550 0.394720 -0.504523
O15   O     O_R   0.488080 0.253500 0.386430 -0.499092
O16   O     O_R   0.722670 0.303800 0.421940 -0.521056
O17   O     O_R   0.751130 0.502220 0.613520 -0.503436
O18   O     O_R   0.478890 0.728510 0.601960 -0.484564
O19   O     O_R   0.261470 0.745430 0.587750 -0.522826
O20   O     O_R   0.489400 0.255930 0.561910 -0.463048
O21   O     O_R   0.723890 0.306050 0.584610 -0.511793
O22   O     O_3   0.500010 0.500010 0.500020 -0.301967
O23   O     O_R   0.171100 0.914680 0.053100 -0.546965
O24   O     O_R   0.941680 0.184840 0.050710 -0.521498
O25   O     O_R   0.922080 0.403420 0.072610 -0.523126
O26   O     O_R   0.196880 0.369150 0.083850 -0.534064

loop_
_geom_bond_atom_site_label_1
_geom_bond_atom_site_label_2
_ccdc_geom_bond_type
C36   O7    A    
C27   C29   T    
C11   C13   A    
C41   C42   T    
C19   C20   A    
C18   C26   A    
Cr5   O11   S    
C16   O16   A    
C40   O17   A    
Cr6   O3    S    
C7    C8    A    
C11   N1    S    
C18   C25   A    
C29   C36   S    
C37   O8    A    
H7    N1    S    
C5    C6    A    
C33   C42   S    
Cr5   O8    S    
C30   C31   T    
C26   C39   S    
C6    C14   A    
C4    C41   S    
Cr3   O22   S    
C38   O10   A    
C1    O4    A    
Cr2   O13   S    
C19   C26   A    
C15   C37   S    
Cr4   O11   S    
C21   H20   S    
C4    O14   A    
C28   O19   A    
Cr6   O9    S    
C7    H5    S    
C32   O25   A    
C34   H1    S    
Cr2   O12   S    
C2    C16   S    
C9    C10   A    
C27   C40   S    
C46   H16   S    
C28   O18   A    
C9    C46   S    
C32   O24   A    
C4    O15   A    
C15   C20   A    
C33   O26   A    
C47   H24   S    
C12   C47   A    
Cr1   O4    S    
Cr6   O2    S    
C7    C14   A    
Cr1   O17   S    
Cr6   O11   S    
Cr2   O19   S    
Cr4   O24   S    
C24   C25   A    
C22   H22   S    
C3    C8    A    
C37   O9    A    
C23   C50   A    
Cr3   O15   S    
Cr1   O22   S    
C16   O1    A    
C36   O6    A    
Cr5   O25   S    
C39   O12   A    
C5    C9    A    
C35   O23   A    
H10   N2    S    
C24   H23   S    
C47   C48   A    
C12   C23   A    
C3    C35   S    
Cr3   O20   S    
C1    O13   A    
C17   C18   A    
C44   H13   S    
C34   C45   A    
C44   H14   S    
C43   C45   A    
C46   H15   S    
C20   H21   S    
C48   C49   A    
C25   N2    S    
C22   C24   A    
Cr1   O1    S    
C44   C45   S    
C39   O20   A    
Cr1   O18   S    
C15   C17   A    
Cr2   O22   S    
Cr4   O23   S    
C3    C5    A    
C48   H2    S    
C10   H12   S    
Cr3   O16   S    
C12   C43   A    
C38   O5    A    
C49   H3    S    
C31   C38   S    
Cr5   O26   S    
C50   H4    S    
C19   H19   S    
Cr5   O7    S    
C40   O21   A    
Cr4   O6    S    
C35   O3    A    
C2    C34   A    
H9    N2    S    
Cr4   O5    S    
Cr3   O21   S    
C28   C30   S    
C32   C43   S    
Cr2   O14   S    
C33   O2    A    
C17   C21   A    
H8    N1    S    
C10   C11   A    
Cr6   O10   S    
C13   H18   S    
C49   C50   A    
C2    C23   A    
C44   H11   S    
C1    C14   S    
C21   C22   A    
C46   H17   S    
C8    H6    S    
C6    C13   A    
