data_mof_unit_2047.cif
_audit_creation_date              2013-03-05T16:07:50-0500
_audit_creation_method            fapswitch 2.2
_symmetry_space_group_name_H-M    P1
_symmetry_Int_Tables_number       1
_space_group_crystal_system       triclinic
_cell_length_a                    8.269197
_cell_length_b                    15.132544
_cell_length_c                    18.759941
_cell_angle_alpha                 101.653514
_cell_angle_beta                  91.804762
_cell_angle_gamma                 98.450953
_cell_volume                      2269.6138971

loop_
_atom_site_label
_atom_site_type_symbol
_atom_site_description
_atom_site_fract_x
_atom_site_fract_y
_atom_site_fract_z
_atom_type_partial_charge
P1    P     P_3+3 0.039440 0.410950 0.333260 0.535733
O1    O     O_2   0.871970 0.437290 0.322980 -0.354095
O2    O     O_3   0.121420 0.444460 0.412460 -0.337614
O3    O     O_3   0.661430 0.607560 0.372520 -0.235192
O4    O     O_2   0.755316 0.523817 0.247051 -0.363186
O5    O     O_3   0.997216 0.291498 0.313358 -0.539679
O6    O     O_3   0.747562 0.691558 0.248389 -0.496444
C1    C     C_3   0.708129 0.824649 0.198110 0.342249
H1    H     H_    0.830087 0.810517 0.179844 0.180427
P2    P     P_3+3 0.676740 0.714970 0.563520 0.522657
P3    P     P_3+3 0.120011 0.773581 0.414482 0.602460
O7    O     O_2   0.852280 0.726960 0.542370 -0.339816
O8    O     O_3   0.083990 0.657360 0.410240 -0.364779
O9    O     O_2   0.974496 0.810050 0.453572 -0.263372
O10   O     O_3   0.696096 0.745512 0.658882 -0.543849
O11   O     O_3   0.086105 0.784520 0.323913 -0.414458
C2    C     C_3   0.223205 0.763240 0.285429 0.219323
H2    H     H_    0.254708 0.696314 0.292590 0.025602
H3    H     H_    0.328128 0.818446 0.305409 0.082736
C3    C     C_3   0.192435 0.758713 0.203585 0.604610
C4    C     C_3   0.244729 0.746449 0.635526 0.196582
H4    H     H_    0.367424 0.727792 0.625334 0.040236
H5    H     H_    0.161848 0.723081 0.585334 0.122457
C5    C     C_3   0.260920 0.849934 0.658614 0.129523
H6    H     H_    0.335765 0.874063 0.711060 0.166415
H7    H     H_    0.322511 0.882929 0.617063 0.065809
Ba1   Ba    Ba6+2 0.853510 0.540900 0.466480 1.699396
C6    C     C_3   0.951203 0.259973 0.375996 0.294720
H8    H     H_    0.842464 0.288655 0.396747 0.099154
H9    H     H_    0.052116 0.279044 0.419086 0.135011
C7    C     C_3   0.910927 0.156430 0.356070 -0.662144
H10   H     H_    0.800273 0.135619 0.317921 0.309393
H11   H     H_    0.887727 0.127901 0.405311 0.208153
H12   H     H_    0.015705 0.127946 0.329689 0.278140
C8    C     C_3   0.732016 0.672090 0.687907 0.431709
H13   H     H_    0.845585 0.650332 0.666087 0.099925
H14   H     H_    0.629511 0.614032 0.675116 0.107611
C9    C     C_3   0.757014 0.703501 0.770383 -0.905788
H15   H     H_    0.864313 0.758691 0.784652 0.302740
H16   H     H_    0.778636 0.646116 0.796013 0.198766
H17   H     H_    0.646274 0.729725 0.792601 0.253205
P4    P     P_3+3 0.150270 0.589130 0.666750 0.475847
O12   O     O_2   0.317740 0.562750 0.677070 -0.381098
O13   O     O_3   0.068290 0.555610 0.587550 -0.401433
O14   O     O_3   0.528280 0.392520 0.627490 -0.369704
O15   O     O_3   0.182942 0.708269 0.692550 -0.548084
P5    P     P_3+3 0.064912 0.225886 0.590747 0.523010
O16   O     O_3   0.609300 0.386850 0.459730 -0.343312
O17   O     O_3   0.105720 0.342720 0.589770 -0.392884
O18   O     O_2   0.192892 0.179415 0.544851 -0.346172
O19   O     O_3   0.105413 0.209734 0.679012 -0.446013
Ba2   Ba    Ba6+2 0.336320 0.459170 0.533530 1.606548
P6    P     P_3+3 0.645337 0.594426 0.276598 0.603598
C10   C     C_3   0.648626 0.760136 0.250923 0.585904
H18   H     H_    0.521146 0.728004 0.232740 -0.129777
O20   O     O_3   0.580410 0.613230 0.540280 -0.385070
C11   C     C_3   0.465339 0.282877 0.302830 0.256509
H19   H     H_    0.344883 0.301581 0.319605 0.081001
H20   H     H_    0.562589 0.343727 0.308964 0.141852
C12   C     C_3   0.443253 0.236114 0.222179 0.062150
H21   H     H_    0.345501 0.175028 0.214290 0.185992
H22   H     H_    0.405732 0.284356 0.189269 0.042883
P7    P     P_3+3 0.520529 0.270975 0.437319 0.466825
O21   O     O_2   0.337420 0.273080 0.457680 -0.378977
O22   O     O_3   0.513585 0.222465 0.343812 -0.550678
H23   H     H_    0.298171 0.737459 0.174397 0.061212
C13   C     C_3   0.069137 0.284416 0.730820 0.328334
H24   H     H_    0.180749 0.336091 0.745656 0.155664
H25   H     H_    0.971539 0.318157 0.710906 -0.029420
C14   C     C_3   0.011467 0.252019 0.799192 -0.108464
H26   H     H_    0.992349 0.311563 0.841841 0.066772
H27   H     H_    0.891693 0.205912 0.785360 0.097102
P8    P     P_3+3 0.551886 0.402926 0.721108 0.449931
C15   C     C_3   0.571745 0.232219 0.691864 0.381788
H28   H     H_    0.704280 0.258703 0.691353 -0.100467
O23   O     O_2   0.423189 0.459833 0.755437 -0.414020
O24   O     O_3   0.491153 0.294074 0.738676 -0.491331
H29   H     H_    0.514830 0.218797 0.635368 0.120261
H30   H     H_    0.643491 0.099596 0.688877 0.057868
C16   C     C_3   0.558410 0.142651 0.718037 0.063348
H31   H     H_    0.591578 0.156073 0.777602 0.154521
C17   C     C_R   0.995215 0.455411 0.045482 0.039078
C18   C     C_R   0.892483 0.413650 0.091807 0.110807
C19   C     C_R   0.729113 0.377711 0.067749 -0.130240
C20   C     C_R   0.668726 0.382291 0.998328 -0.175633
C21   C     C_R   0.770884 0.422128 0.951202 0.103468
C22   C     C_R   0.934527 0.459299 0.974750 0.026804
C23   C     C_R   0.712002 0.423960 0.880697 -0.233359
C24   C     C_R   0.815128 0.460567 0.831648 -0.045314
C25   C     C_R   0.978251 0.501286 0.855889 -0.010709
C26   C     C_R   0.037153 0.500209 0.927710 0.002884
C27   C     C_R   0.761422 0.455383 0.758466 0.183587
C28   C     C_R   0.869668 0.488742 0.710514 -0.534297
C29   C     C_R   0.027403 0.535182 0.734241 0.269313
C30   C     C_R   0.082914 0.542309 0.808503 -0.059560
C31   C     C_R   0.158325 0.492903 0.069678 0.051670
C32   C     C_R   0.216879 0.493070 0.141892 0.048858
C33   C     C_R   0.111385 0.453390 0.189781 -0.087676
C34   C     C_R   0.953050 0.409446 0.161758 -0.055412
H32   H     H_    0.647159 0.346898 0.102944 0.165826
H33   H     H_    0.541983 0.354141 0.981334 0.172284
H34   H     H_    0.827483 0.482000 0.654212 0.171582
H35   H     H_    0.585668 0.395042 0.864506 0.205267
H36   H     H_    0.873598 0.372805 0.194205 0.189457
C35   C     C_R   0.240782 0.586776 0.836766 -0.101082
C36   C     C_R   0.302415 0.580381 0.905914 0.106389
C37   C     C_R   0.200188 0.537620 0.951880 0.024968
C38   C     C_R   0.261175 0.533139 0.022364 0.026388
C39   C     C_R   0.466780 0.614437 0.929214 -0.134207
C40   C     C_R   0.528437 0.607278 0.997676 -0.093136
C41   C     C_R   0.425433 0.569053 0.045368 0.121816
C42   C     C_R   0.380049 0.534155 0.165941 -0.113498
C43   C     C_R   0.484055 0.567996 0.116000 -0.193066
C44   C     C_R   0.435267 0.539189 0.238890 0.061682
C45   C     C_R   0.331686 0.497674 0.285255 0.068437
C46   C     C_R   0.168337 0.458419 0.263549 0.139442
H37   H     H_    0.320389 0.623998 0.804743 0.165100
H38   H     H_    0.548389 0.645744 0.894135 0.137953
H39   H     H_    0.656199 0.633610 0.014009 0.176989
H40   H     H_    0.611444 0.594749 0.131349 0.194213
C47   C     C_R   0.320970 0.827163 0.464938 0.151528
H41   H     H_    0.355895 0.696096 0.486295 0.167998
C48   C     C_R   0.568132 0.795555 0.524408 0.310885
C49   C     C_R   0.762391 0.232362 0.526419 -0.546165
C50   C     C_R   0.854624 0.175639 0.553699 0.223069
C51   C     C_R   0.788966 0.083258 0.549577 -0.219375
C52   C     C_R   0.631624 0.045309 0.513764 0.055474
C53   C     C_R   0.547102 0.104112 0.481598 -0.051377
C54   C     C_R   0.556682 0.951293 0.506702 0.091111
C55   C     C_R   0.394153 0.920479 0.471705 -0.127143
C56   C     C_R   0.315642 0.983730 0.442491 0.296124
C57   C     C_R   0.396589 0.070013 0.443581 -0.107804
C58   C     C_R   0.639117 0.887065 0.532768 -0.164210
C59   C     C_R   0.409166 0.767114 0.492352 -0.411177
C60   C     C_R   0.612795 0.197160 0.488420 0.243276
H42   H     H_    0.760083 0.905827 0.559421 0.174920
H43   H     H_    0.812580 0.303483 0.530229 0.167773
H44   H     H_    0.863396 0.043545 0.574355 0.194196
H45   H     H_    0.330629 0.111805 0.417001 0.188684
N1    N     N_R   0.651167 0.809442 0.326326 0.218483
O25   O     O_R   0.554545 0.771135 0.368086 -0.486453
O26   O     O_R   0.778404 0.868080 0.356558 -0.273378
Cl1   Cl    Cl    0.064076 0.884084 0.669276 -0.483997
N2    N     N_R   0.720873 0.922412 0.231766 0.280740
O27   O     O_R   0.855839 0.977347 0.227855 -0.265419
O28   O     O_R   0.592698 0.956426 0.257213 -0.324087
Cl2   Cl    Cl    0.577204 0.802679 0.116189 -0.579387
Cl3   Cl    Cl    0.630642 0.201246 0.190569 -0.518541
N3    N     N_R   0.131233 0.203963 0.827969 0.319375
O29   O     O_R   0.275274 0.247654 0.854408 -0.359119
O30   O     O_R   0.090237 0.118670 0.832065 -0.256293
Cl4   Cl    Cl    0.355660 0.081502 0.699850 -0.472861
Cl5   Cl    Cl    0.413706 0.483468 0.368982 -0.561035
N4    N     N_R   0.148163 0.967229 0.415765 0.253162
O31   O     O_R   0.039304 0.987659 0.462353 -0.360543
O32   O     O_R   0.115542 0.969744 0.347924 -0.307621
Cl6   Cl    Cl    0.024056 0.674788 0.163490 -0.627322
Cl7   Cl    Cl    0.168238 0.867483 0.185913 -0.416908

loop_
_geom_bond_atom_site_label_1
_geom_bond_atom_site_label_2
_geom_bond_distance
_ccdc_geom_bond_type
P2    Ba1   3.428046 S    
Ba1   O16   2.830087 S    
P7    O22   1.755106 S    
C28   C29   1.400339 A    
C22   C26   1.412677 A    
O3    P6    1.768622 S    
C8    H13   1.103895 S    
C47   C55   1.431071 A    
C23   H35   1.080301 S    
C42   C44   1.412607 A    
C32   C33   1.428989 A    
C11   H19   1.112629 S    
C25   C30   1.427641 A    
P5    O17   1.754452 S    
C20   C21   1.404034 A    
Ba1   Ba2   4.562345 S    
C57   H45   1.075995 S    
C51   C52   1.429495 A    
C48   C58   1.397961 A    
O14   P8    1.733499 S    
C6    H8    1.103166 S    
C8    H14   1.109536 S    
C5    H7    1.106250 S    
C4    O15   1.391628 S    
P2    O10   1.750977 S    
N3    O30   1.303770 A    
C9    H15   1.110551 S    
P3    O9    1.541923 D    
C21   C23   1.401970 A    
O12   Ba2   2.850146 S    
C11   H20   1.114255 S    
C36   C37   1.409773 A    
C5    Cl1   1.783981 S    
C45   C46   1.405364 A    
C2    C3    1.534492 S    
C12   H22   1.116689 S    
P1    O1    1.513385 D    
P4    O15   1.747480 S    
C40   C41   1.404566 A    
H41   C59   1.081794 S    
C30   C35   1.411441 A    
Ba1   O13   2.790705 S    
C10   N1    1.457832 S    
C18   C19   1.403922 A    
C1    H1    1.111656 S    
C15   O24   1.406988 S    
C58   H42   1.076508 S    
C37   C38   1.418317 A    
C7    H11   1.106545 S    
C14   H26   1.111584 S    
P1    C46   1.898573 S    
C47   C59   1.407852 A    
P2    O20   1.594183 S    
N4    O32   1.301898 A    
O13   Ba2   2.926417 S    
C34   H36   1.078920 S    
C31   C38   1.412657 A    
C3    Cl7   1.781070 S    
C4    H4    1.104658 S    
C45   Cl5   1.756562 S    
C35   H37   1.078945 S    
P3    C47   1.873424 S    
C14   N3    1.462095 S    
P4    O13   1.566986 S    
C53   C57   1.389470 A    
O10   C8    1.396556 S    
C42   C43   1.412370 A    
C39   H38   1.082995 S    
P5    C50   1.845747 S    
P5    O18   1.545120 D    
C6    C7    1.519170 S    
C19   C20   1.398529 A    
O5    C6    1.398017 S    
C17   C31   1.406996 A    
C15   H28   1.111287 S    
O7    Ba1   2.888658 S    
C13   H24   1.106589 S    
C19   H32   1.082738 S    
C26   C37   1.406096 A    
C49   H43   1.082323 S    
C8    C9    1.522000 S    
C5    H6    1.111068 S    
C9    H17   1.110771 S    
N2    O28   1.307351 A    
P2    C48   1.863834 S    
Ba2   O21   2.888661 S    
C53   C60   1.411419 A    
C1    C10   1.567492 S    
C32   C42   1.418600 A    
C21   C22   1.407451 A    
N2    O27   1.303520 A    
O16   P7    1.759179 S    
P5    O19   1.751110 S    
C48   C59   1.397931 A    
O14   Ba2   2.767044 S    
P7    O21   1.576486 D    
C12   H21   1.116854 S    
C13   H25   1.109408 S    
P7    C60   1.840069 S    
C40   H39   1.084149 S    
C52   C54   1.444025 A    
C43   H40   1.079312 S    
P3    O11   1.757866 S    
C33   C46   1.431292 A    
C7    H10   1.109785 S    
O17   Ba2   2.782944 S    
C31   C32   1.423617 A    
C2    H2    1.114402 S    
C7    H12   1.109970 S    
C41   C43   1.400509 A    
O19   C13   1.409281 S    
N1    O25   1.294190 A    
C24   C27   1.412821 A    
N4    O31   1.300746 A    
O1    Ba1   2.849524 S    
P2    O7    1.511742 D    
C54   C58   1.419230 A    
C17   C18   1.409570 A    
C3    Cl6   1.773615 S    
C4    H5    1.111289 S    
C15   H29   1.113363 S    
C50   C51   1.409126 A    
P8    O23   1.541883 D    
C1    Cl2   1.796534 S    
P4    O12   1.513754 D    
O6    P6    1.769839 S    
C52   C53   1.420426 A    
O3    Ba1   2.767734 S    
C20   H33   1.083700 S    
P6    C44   1.863751 S    
C54   C55   1.446146 A    
C3    H23   1.099736 S    
C16   Cl4   1.778763 S    
C10   H18   1.106221 S    
C51   H44   1.076841 S    
C49   C60   1.385487 A    
P4    C29   1.885902 S    
C56   N4    1.426804 S    
P8    C27   1.848793 S    
C11   O22   1.399220 S    
C16   H31   1.112560 S    
C11   C12   1.528198 S    
C56   C57   1.372856 A    
C28   H34   1.081898 S    
C14   H27   1.114744 S    
O2    Ba2   2.791303 S    
C44   C45   1.412238 A    
N1    O26   1.304122 A    
C35   C36   1.405507 A    
Ba1   O20   2.919947 S    
C38   C41   1.406372 A    
C13   C14   1.528671 S    
C6    H9    1.107050 S    
C55   C56   1.417789 A    
O4    P6    1.534305 D    
C39   C40   1.397295 A    
C9    H16   1.107299 S    
P3    O8    1.725156 S    
C25   C26   1.422233 A    
O11   C2    1.405395 S    
O2    Ba1   2.925583 S    
C27   C28   1.402377 A    
C2    H3    1.109576 S    
C29   C30   1.430965 A    
H30   C16   1.110721 S    
C1    N2    1.473428 S    
Ba2   O20   2.829608 S    
O16   Ba2   2.919050 S    
C23   C24   1.413244 A    
C33   C34   1.411501 A    
C15   C16   1.522711 S    
C4    C5    1.522680 S    
P1    O5    1.749969 S    
P1    Ba1   3.409130 S    
P8    O24   1.749489 S    
O8    Ba1   2.782434 S    
C18   C34   1.406647 A    
C12   Cl3   1.789684 S    
O6    C10   1.407325 S    
P1    O2    1.566973 S    
C24   C25   1.417694 A    
N3    O29   1.304111 A    
C17   C22   1.419251 A    
P4    Ba2   3.409759 S    
C49   C50   1.387702 A    
C36   C39   1.403455 A    
