data_mof_unit_1397.cif
_audit_creation_date              2013-03-05T15:42:04-0500
_audit_creation_method            fapswitch 2.2
_symmetry_space_group_name_H-M    P1
_symmetry_Int_Tables_number       1
_space_group_crystal_system       triclinic
_cell_length_a                    7.852483
_cell_length_b                    8.78718
_cell_length_c                    15.662787
_cell_angle_alpha                 91.104074
_cell_angle_beta                  87.581388
_cell_angle_gamma                 93.114569
_cell_volume                      1078.03697758

loop_
_atom_site_label
_atom_site_type_symbol
_atom_site_description
_atom_site_fract_x
_atom_site_fract_y
_atom_site_fract_z
_atom_type_partial_charge
O1    O     O_R   0.389250 0.738570 0.505570 -0.627802
O2    O     O_R   0.610750 0.261430 0.494430 -0.628559
O3    O     O_R   0.678390 0.711630 0.491020 -0.584240
O4    O     O_R   0.321610 0.288370 0.508980 -0.586259
C1    C     C_R   0.544392 0.793346 0.497399 0.888243
C2    C     C_R   0.455637 0.206660 0.502769 0.883822
O5    O     O_R   0.355460 0.513480 0.630490 -0.600699
O6    O     O_R   0.644540 0.486520 0.369510 -0.598410
O7    O     O_R   0.644600 0.486540 0.615950 -0.626158
O8    O     O_R   0.355400 0.513460 0.384050 -0.627694
C3    C     C_R   0.504604 0.499682 0.661511 0.884601
C4    C     C_R   0.495404 0.500360 0.338463 0.886646
Zn1   Zn    Zn3+2 0.306940 0.517990 0.509710 1.050728
Zn2   Zn    Zn3+2 0.693060 0.482010 0.490290 1.052821
C5    C     C_2   0.568008 0.954834 0.493773 -0.438380
C6    C     C_2   0.432136 0.045196 0.506785 -0.437717
C7    C     C_3   0.449690 0.639477 0.026457 -0.080022
C8    C     C_3   0.553547 0.366261 0.973525 -0.086281
C9    C     C_3   0.617047 0.613689 0.974398 0.103295
C10   C     C_3   0.385493 0.392251 0.025165 0.042812
C11   C     C_1   0.516288 0.498577 0.749993 -0.070367
C12   C     C_1   0.484069 0.502993 0.249942 -0.073982
C13   C     C_3   0.349610 0.527476 0.967740 -0.088171
C14   C     C_3   0.653058 0.479246 0.032177 -0.067266
C15   C     C_3   0.517154 0.500311 0.916523 -0.042014
C16   C     C_3   0.485154 0.505332 0.083376 -0.062188
N1    N     N_2   0.950320 0.457950 0.477300 -0.185826
N2    N     N_2   0.049680 0.542050 0.522700 -0.185933
C17   C     C_1   0.522548 0.498352 0.825186 0.075899
C18   C     C_1   0.478519 0.505028 0.174726 0.054571
C19   C     C_3   0.735958 0.737437 0.933473 -0.404365
C20   C     C_3   0.842190 0.827471 0.997918 -0.648852
H1    H     H_    0.763380 0.858486 0.055513 0.294633
H2    H     H_    0.950602 0.761738 0.016701 0.274491
H3    H     H_    0.895189 0.933044 0.967047 0.246829
H4    H     H_    0.821225 0.684294 0.884765 0.218290
H5    H     H_    0.656885 0.816565 0.899940 0.235263
C21   C     C_3   0.265676 0.266033 0.062604 -0.372000
C22   C     C_3   0.177994 0.168848 0.993967 -0.612954
H6    H     H_    0.078025 0.230040 0.963686 0.294905
H7    H     H_    0.270738 0.132859 0.943224 0.269583
H8    H     H_    0.116309 0.066561 0.024767 0.254565
H9    H     H_    0.341882 0.191756 0.100981 0.219699
H10   H     H_    0.169819 0.317033 0.106647 0.235786
C23   C     C_2   0.389457 0.789907 0.057429 0.953659
O9    O     O_2   0.368120 0.887819 0.005515 -0.610715
O10   O     O_R   0.357272 0.817580 0.144589 -0.787707
H11   H     H_    0.315816 0.923319 0.156908 0.342483
C24   C     C_2   0.615119 0.215769 0.942286 0.988478
O11   O     O_2   0.634580 0.116278 0.993700 -0.595479
O12   O     O_R   0.650210 0.189892 0.855208 -0.791826
H12   H     H_    0.691916 0.084341 0.842552 0.339154
C25   C     C_2   0.810336 0.449913 0.079034 0.986376
O13   O     O_2   0.862594 0.321774 0.078691 -0.625540
O14   O     O_R   0.888192 0.566016 0.128225 -0.786020
H13   H     H_    0.991998 0.531952 0.157462 0.362725
C26   C     C_2   0.194357 0.569559 0.922559 0.926186
O15   O     O_2   0.059776 0.494730 0.931546 -0.648869
O16   O     O_R   0.207784 0.694336 0.868172 -0.773648
H14   H     H_    0.100014 0.707921 0.836553 0.345996
C27   C     C_2   0.748363 0.010611 0.475137 1.144225
O17   O     O_2   0.808112 0.004167 0.402018 -0.527083
O18   O     O_R   0.850396 0.068359 0.540518 -0.681809
H15   H     H_    0.788235 0.065633 0.598553 0.320312
C28   C     C_2   0.251895 0.989424 0.525723 1.143419
O19   O     O_2   0.192760 0.995498 0.598974 -0.533216
O20   O     O_R   0.149275 0.932087 0.460475 -0.679914
H16   H     H_    0.210964 0.935072 0.402322 0.321707
C29   C     C_2   0.016736 0.418697 0.395120 1.134105
O21   O     O_2   0.011353 0.508402 0.336717 -0.619262
O22   O     O_R   0.079950 0.274670 0.380070 -0.765275
H17   H     H_    0.121547 0.258992 0.318523 0.319080
C30   C     C_2   0.983267 0.581698 0.604855 1.130669
O23   O     O_2   0.989801 0.492771 0.663583 -0.610817
O24   O     O_R   0.919090 0.725459 0.619542 -0.766317
H18   H     H_    0.877920 0.741612 0.681119 0.313582

loop_
_geom_bond_atom_site_label_1
_geom_bond_atom_site_label_2
_geom_bond_distance
_ccdc_geom_bond_type
O14   H13   1.013437 S    
C30   O23   1.222874 D    
O24   H18   1.014034 S    
C9    C19   1.526830 S    
C22   H7    1.108390 S    
C23   O9    1.218025 D    
O5    C3    1.299268 A    
C7    C13   1.540799 S    
C8    C14   1.543166 S    
C7    C16   1.535885 S    
C14   C16   1.539638 S    
C21   C22   1.523902 S    
C26   O16   1.398138 S    
C5    C6    1.370341 D    
C4    C12   1.393796 S    
O12   H12   1.013528 S    
C29   O22   1.396631 S    
O4    Zn1   2.027022 S    
C27   O18   1.397556 S    
C19   C20   1.519612 S    
C24   O12   1.396767 S    
Zn1   N2    2.043791 S    
Zn2   N1    2.043790 S    
C27   O17   1.220641 D    
N1    C29   1.411925 S    
C23   O10   1.396946 S    
O16   H14   1.012076 S    
C30   O24   1.396742 S    
O2    C2    1.287459 A    
C8    C15   1.537829 S    
C9    C15   1.539432 S    
N2    C30   1.412435 S    
C22   H8    1.106749 S    
C25   O14   1.396387 S    
C15   C17   1.429230 S    
O20   H16   1.013554 S    
C20   H3    1.107230 S    
O4    C2    1.305149 A    
C22   H6    1.103367 S    
C28   O20   1.397554 S    
C14   C25   1.499578 S    
C25   O13   1.219036 D    
C11   C17   1.180861 T    
C3    C11   1.393026 S    
C21   H9    1.110553 S    
C19   H5    1.110577 S    
C20   H2    1.107254 S    
O7    Zn2   1.988859 S    
C21   H10   1.106444 S    
C10   C21   1.524562 S    
O10   H11   1.013497 S    
C10   C13   1.548955 S    
O6    C4    1.299436 A    
C5    C27   1.492094 S    
O7    C3    1.294407 A    
O3    Zn2   2.027023 S    
O8    C4    1.294621 A    
C16   C18   1.429586 S    
C24   O11   1.219914 D    
O1    C1    1.287510 A    
O1    Zn1   2.010981 S    
C13   C26   1.501891 S    
O6    Zn2   1.947003 S    
C12   C18   1.181253 T    
C7    C23   1.493384 S    
O3    C1    1.305072 A    
O8    Zn1   1.988859 S    
C20   H1    1.110308 S    
C9    C14   1.547155 S    
O22   H17   1.013993 S    
C26   O15   1.218397 D    
C10   C16   1.540104 S    
C7    C9    1.542087 S    
C8    C10   1.543808 S    
C13   C15   1.539180 S    
C29   O21   1.222534 D    
O2    Zn2   2.010980 S    
C1    C5    1.422977 S    
C2    C6    1.423043 S    
O18   H15   1.013523 S    
O5    Zn1   1.947002 S    
C28   O19   1.220725 D    
N1    N2    1.274536 D    
C19   H4    1.107032 S    
C6    C28   1.492022 S    
C8    C24   1.498830 S    
