data_mof_unit_699.cif
_audit_creation_date              2013-03-05T15:51:28-0500
_audit_creation_method            fapswitch 2.2
_symmetry_space_group_name_H-M    P1
_symmetry_Int_Tables_number       1
_space_group_crystal_system       triclinic
_cell_length_a                    19.240629
_cell_length_b                    11.150882
_cell_length_c                    18.708763
_cell_angle_alpha                 89.754054
_cell_angle_beta                  90.503936
_cell_angle_gamma                 90.621616
_cell_volume                      4013.53795813

loop_
_atom_site_label
_atom_site_type_symbol
_atom_site_description
_atom_site_fract_x
_atom_site_fract_y
_atom_site_fract_z
_atom_type_partial_charge
O1    O     O_R   0.957020 0.451640 0.669920 -0.540661
O2    O     O_R   0.042980 0.451640 0.330080 -0.516504
O3    O     O_R   0.457020 0.951640 0.669920 -0.539716
O4    O     O_R   0.542980 0.951640 0.330080 -0.519021
O5    O     O_R   0.821450 0.543440 0.674610 -0.501939
O6    O     O_R   0.178550 0.543440 0.325390 -0.483465
O7    O     O_R   0.321450 0.043440 0.674610 -0.501405
O8    O     O_R   0.678550 0.043440 0.325390 -0.484602
C1    C     C_R   0.759441 0.534562 0.647295 0.547678
C2    C     C_R   0.240360 0.535641 0.351762 0.532399
C3    C     C_R   0.259440 0.034556 0.647293 0.547484
C4    C     C_R   0.740358 0.035636 0.351762 0.532462
O9    O     O_R   0.715320 0.458650 0.668100 -0.537421
O10   O     O_R   0.284680 0.458650 0.331900 -0.493608
O11   O     O_R   0.215320 0.958650 0.668100 -0.537198
O12   O     O_R   0.784680 0.958650 0.331900 -0.493380
O13   O     O_R   0.737170 0.209590 0.674530 -0.500328
O14   O     O_R   0.262830 0.209590 0.325470 -0.494445
O15   O     O_R   0.237170 0.709590 0.674530 -0.499723
O16   O     O_R   0.762830 0.709590 0.325470 -0.495324
C5    C     C_R   0.790341 0.168656 0.638855 0.564125
C6    C     C_R   0.207730 0.172688 0.360888 0.569900
C7    C     C_R   0.290344 0.668655 0.638856 0.564122
C8    C     C_R   0.707737 0.672675 0.360889 0.569453
O17   O     O_R   0.832710 0.092740 0.669580 -0.448156
O18   O     O_R   0.167290 0.092740 0.330420 -0.514270
O19   O     O_R   0.332710 0.592740 0.669580 -0.448516
O20   O     O_R   0.667290 0.592740 0.330420 -0.515493
O21   O     O_R   0.946290 0.250060 0.676040 -0.512079
O22   O     O_R   0.053710 0.250060 0.323960 -0.532212
O23   O     O_R   0.446290 0.750060 0.676040 -0.512250
O24   O     O_R   0.553710 0.750060 0.323960 -0.531912
C9    C     C_R   0.968553 0.348484 0.644859 0.534674
C10   C     C_R   0.027334 0.344134 0.351095 0.519750
C11   C     C_R   0.468528 0.848493 0.644846 0.534151
C12   C     C_R   0.527333 0.844130 0.351092 0.520196
O25   O     O_R   0.956270 0.452200 0.830470 -0.484447
O26   O     O_R   0.043730 0.452200 0.169530 -0.445271
O27   O     O_R   0.456270 0.952200 0.830470 -0.475676
O28   O     O_R   0.543730 0.952200 0.169530 -0.454392
O29   O     O_R   0.820760 0.543950 0.823440 -0.466464
O30   O     O_R   0.179240 0.543950 0.176560 -0.480722
O31   O     O_R   0.320760 0.043950 0.823440 -0.468993
O32   O     O_R   0.679240 0.043950 0.176560 -0.481322
C13   C     C_R   0.760549 0.531292 0.852207 0.554992
C14   C     C_R   0.238203 0.527346 0.146120 0.539635
C15   C     C_R   0.259652 0.034013 0.851069 0.557188
C16   C     C_R   0.738762 0.028881 0.146771 0.541766
O33   O     O_R   0.714570 0.459210 0.828640 -0.523722
O34   O     O_R   0.285430 0.459210 0.171360 -0.523158
O35   O     O_R   0.214570 0.959210 0.828640 -0.527086
O36   O     O_R   0.785430 0.959210 0.171360 -0.522732
O37   O     O_R   0.736470 0.210100 0.823360 -0.508133
O38   O     O_R   0.263530 0.210100 0.176640 -0.508707
O39   O     O_R   0.236470 0.710100 0.823360 -0.511784
O40   O     O_R   0.763530 0.710100 0.176640 -0.508160
C17   C     C_R   0.772673 0.125714 0.852533 0.558028
C18   C     C_R   0.223424 0.136729 0.143257 0.554412
C19   C     C_R   0.272262 0.624765 0.852171 0.555707
C20   C     C_R   0.726973 0.628128 0.146590 0.557252
O41   O     O_R   0.831960 0.093290 0.830130 -0.504784
O42   O     O_R   0.168040 0.093290 0.169870 -0.519733
O43   O     O_R   0.331960 0.593290 0.830130 -0.504202
O44   O     O_R   0.668040 0.593290 0.169870 -0.524469
O45   O     O_R   0.945600 0.250580 0.824860 -0.507306
O46   O     O_R   0.054400 0.250580 0.175140 -0.524055
O47   O     O_R   0.445600 0.750580 0.824860 -0.508083
O48   O     O_R   0.554400 0.750580 0.175140 -0.521081
C21   C     C_R   0.969914 0.347502 0.853432 0.546777
C22   C     C_R   0.029602 0.346661 0.147079 0.556858
C23   C     C_R   0.469547 0.847498 0.853831 0.545218
C24   C     C_R   0.528842 0.846945 0.147489 0.558146
Cr1   Cr    Cr6+3 0.885860 0.491680 0.749630 1.031530
Cr2   Cr    Cr6+3 0.114140 0.491680 0.250370 1.062383
Cr3   Cr    Cr6+3 0.385860 0.991680 0.749630 1.037613
Cr4   Cr    Cr6+3 0.614140 0.991680 0.250370 1.050049
Cr5   Cr    Cr6+3 0.730490 0.332970 0.748720 1.018777
Cr6   Cr    Cr6+3 0.269510 0.332970 0.251280 1.031428
Cr7   Cr    Cr6+3 0.230490 0.832970 0.748720 1.016103
Cr8   Cr    Cr6+3 0.769510 0.832970 0.251280 1.034444
Cr9   Cr    Cr6+3 0.887570 0.179310 0.750150 1.057184
Cr10  Cr    Cr6+3 0.112430 0.179310 0.249850 1.002186
Cr11  Cr    Cr6+3 0.387570 0.679310 0.750150 1.056854
Cr12  Cr    Cr6+3 0.612430 0.679310 0.249850 0.999644
O49   O     O_3   0.834640 0.334650 0.749500 -0.287796
O50   O     O_3   0.165360 0.334650 0.250500 -0.291456
O51   O     O_3   0.334640 0.834650 0.749500 -0.287769
O52   O     O_3   0.665360 0.834650 0.250500 -0.286745
C25   C     C_R   0.754197 0.094296 0.418960 0.029124
C26   C     C_R   0.238560 0.095108 0.581874 0.048538
C27   C     C_R   0.254202 0.594310 0.418959 0.028971
C28   C     C_R   0.738573 0.595122 0.581876 0.048564
C29   C     C_R   0.699314 0.102763 0.465875 -0.042759
C30   C     C_R   0.278737 0.184057 0.550765 -0.018747
C31   C     C_R   0.199325 0.602739 0.465883 -0.043160
C32   C     C_R   0.778770 0.684035 0.550753 -0.018808
C33   C     C_R   0.710196 0.125530 0.537686 -0.001744
C34   C     C_R   0.267183 0.214506 0.478716 -0.026122
C35   C     C_R   0.210212 0.625464 0.537698 -0.001810
C36   C     C_R   0.767224 0.714450 0.478700 -0.026200
C37   C     C_R   0.832936 0.138824 0.516630 -0.155311
C38   C     C_R   0.168437 0.082205 0.474077 -0.078425
C39   C     C_R   0.332947 0.638836 0.516629 -0.155304
C40   C     C_R   0.668466 0.582173 0.474073 -0.078325
C41   C     C_R   0.821527 0.115917 0.444038 -0.120485
C42   C     C_R   0.179452 0.052663 0.544806 -0.102627
C43   C     C_R   0.321534 0.615951 0.444032 -0.120145
C44   C     C_R   0.679472 0.552666 0.544805 -0.102846
C45   C     C_3   0.641339 0.187219 0.459343 -0.019415
C46   C     C_3   0.281126 0.312469 0.573393 -0.072445
C47   C     C_3   0.141347 0.687196 0.459389 -0.019651
C48   C     C_3   0.781171 0.812472 0.573341 -0.072569
C49   C     C_3   0.651001 0.209691 0.538886 -0.195851
C50   C     C_3   0.268814 0.343899 0.495821 -0.274116
C51   C     C_3   0.150998 0.709570 0.538940 -0.195564
C52   C     C_3   0.768904 0.843857 0.495755 -0.273911
C53   C     C_R   0.777233 0.144583 0.563884 0.026815
C54   C     C_R   0.215310 0.156710 0.438321 0.035850
C55   C     C_R   0.277244 0.644560 0.563888 0.026698
C56   C     C_R   0.715340 0.656667 0.438314 0.036330
H1    H     H_    0.884477 0.152483 0.536620 0.136833
H2    H     H_    0.125745 0.039476 0.446247 0.175770
H3    H     H_    0.384489 0.652499 0.536617 0.136686
H4    H     H_    0.625771 0.539444 0.446246 0.175876
H5    H     H_    0.864095 0.110969 0.407508 0.159318
H6    H     H_    0.143307 0.990695 0.569047 0.146019
H7    H     H_    0.364100 0.611034 0.407498 0.159315
H8    H     H_    0.643326 0.490718 0.569053 0.145789
H9    H     H_    0.093152 0.636970 0.444972 0.163508
H10   H     H_    0.833485 0.839913 0.593435 0.140290
H11   H     H_    0.593139 0.136977 0.444957 0.163663
H12   H     H_    0.333449 0.339914 0.593464 0.140162
H13   H     H_    0.667711 0.301463 0.553453 0.172762
H14   H     H_    0.217442 0.382952 0.483699 0.160097
H15   H     H_    0.167675 0.801343 0.553555 0.173080
H16   H     H_    0.717553 0.882962 0.483599 0.160219
H17   H     H_    0.609016 0.170147 0.572008 0.181067
H18   H     H_    0.314436 0.387496 0.471202 0.181008
H19   H     H_    0.109025 0.669931 0.572041 0.180961
H20   H     H_    0.814553 0.887379 0.471138 0.180781
C57   C     C_R   0.989779 0.328625 0.418566 -0.018308
C58   C     C_R   0.991506 0.348093 0.568708 0.020525
C59   C     C_R   0.489757 0.828607 0.418547 -0.017875
C60   C     C_R   0.491452 0.848126 0.568685 0.020264
C61   C     C_R   0.994682 0.114169 0.429808 -0.149302
C62   C     C_R   0.019390 0.132217 0.575372 -0.108037
C63   C     C_R   0.494697 0.614153 0.429837 -0.149320
C64   C     C_R   0.519472 0.632326 0.575379 -0.108054
C65   C     C_R   0.991522 0.011354 0.471499 0.022834
C66   C     C_R   0.005657 0.019301 0.545735 0.015040
C67   C     C_R   0.491566 0.511361 0.471559 0.023232
C68   C     C_R   0.505770 0.519358 0.545791 0.014770
C69   C     C_R   0.006896 0.237304 0.535648 -0.014242
C70   C     C_R   0.000804 0.227175 0.460808 -0.033976
C71   C     C_R   0.506900 0.737358 0.535639 -0.014250
C72   C     C_R   0.500802 0.727182 0.460807 -0.033856
H21   H     H_    0.982485 0.105580 0.373401 0.165167
H22   H     H_    0.035502 0.137080 0.630833 0.184034
H23   H     H_    0.482493 0.605527 0.373432 0.164746
H24   H     H_    0.535638 0.637300 0.630821 0.184368
C73   C     C_R   0.972470 0.447871 0.523278 0.001946
C74   C     C_R   0.962124 0.428605 0.449639 0.012589
C75   C     C_R   0.472366 0.947864 0.523242 0.001842
C76   C     C_R   0.462063 0.928574 0.449597 0.013159
C77   C     C_R   0.960617 0.566153 0.547217 -0.058978
C78   C     C_R   0.925532 0.510748 0.406976 -0.082546
C79   C     C_R   0.460452 0.066136 0.547163 -0.058980
C80   C     C_R   0.425486 0.010689 0.406898 -0.083204
C81   C     C_R   0.925307 0.647848 0.504378 -0.062726
C82   C     C_R   0.905415 0.618326 0.435184 -0.112649
C83   C     C_R   0.425184 0.147817 0.504276 -0.062338
C84   C     C_R   0.405346 0.118275 0.435072 -0.113077
H25   H     H_    0.912976 0.491704 0.351539 0.133805
H26   H     H_    0.980399 0.600580 0.597105 0.184484
H27   H     H_    0.412968 0.991624 0.351455 0.132374
H28   H     H_    0.480173 0.100596 0.597065 0.184938
H29   H     H_    0.914083 0.735743 0.524477 0.165560
H30   H     H_    0.878964 0.682193 0.401409 0.183822
H31   H     H_    0.413933 0.235715 0.524352 0.165887
H32   H     H_    0.378908 0.182126 0.401275 0.183394
C85   C     C_R   0.746406 0.060383 0.071810 0.015140
C86   C     C_R   0.242367 0.093494 0.918029 0.013917
C87   C     C_R   0.244255 0.555494 0.070423 0.012996
C88   C     C_R   0.751388 0.565123 0.926240 0.022876
C89   C     C_R   0.795300 0.996789 0.033134 0.032960
C90   C     C_R   0.182681 0.056613 0.954971 0.023510
C91   C     C_R   0.293223 0.492070 0.031893 0.039442
C92   C     C_R   0.713900 0.484721 0.968878 0.043840
C93   C     C_R   0.798723 0.005340 0.960089 0.017542
C94   C     C_R   0.178358 0.070513 0.027576 0.032906
C95   C     C_R   0.296728 0.500546 0.958789 0.025673
C96   C     C_R   0.712180 0.495592 0.042071 0.015370
C97   C     C_R   0.697046 0.128972 0.958986 -0.161434
C98   C     C_R   0.285508 0.181756 0.028574 -0.157264
C99   C     C_R   0.193985 0.621549 0.957209 -0.173052
C100  C     C_R   0.789110 0.667401 0.033693 -0.161679
C101  C     C_R   0.694931 0.122460 0.033738 -0.140767
C102  C     C_R   0.289531 0.169476 0.953899 -0.132715
C103  C     C_R   0.191829 0.615105 0.032066 -0.151951
C104  C     C_R   0.790602 0.655613 0.959288 -0.116177
C105  C     C_3   0.872282 0.995497 0.042729 -0.277168
C106  C     C_3   0.145910 0.937718 0.958652 -0.265900
C107  C     C_3   0.370117 0.491235 0.041740 -0.276370
C108  C     C_3   0.638266 0.454500 0.963810 -0.267191
C109  C     C_3   0.876592 0.004370 0.962379 -0.268872
C110  C     C_3   0.141067 0.954425 0.038520 -0.277241
C111  C     C_3   0.374543 0.499245 0.961413 -0.270446
C112  C     C_3   0.636855 0.461112 0.044152 -0.271160
C113  C     C_R   0.752742 0.078798 0.922060 0.013339
C114  C     C_R   0.232801 0.121347 0.066749 0.011328
C115  C     C_R   0.250981 0.574501 0.920691 0.014601
C116  C     C_R   0.747129 0.590371 0.075614 0.006417
H33   H     H_    0.658608 0.180367 0.930522 0.115037
H34   H     H_    0.324375 0.234465 0.056431 0.128583
H35   H     H_    0.154837 0.672071 0.928774 0.113628
H36   H     H_    0.816410 0.742411 0.057626 0.137530
H37   H     H_    0.655211 0.169304 0.061815 0.181191
H38   H     H_    0.330991 0.213083 0.925219 0.185203
H39   H     H_    0.151600 0.661133 0.059926 0.183751
H40   H     H_    0.819688 0.719638 0.927597 0.167764
H41   H     H_    0.891482 0.908975 0.064306 0.128514
H42   H     H_    0.180727 0.863577 0.944302 0.164626
H43   H     H_    0.389773 0.405444 0.063772 0.130372
H44   H     H_    0.627563 0.363899 0.942864 0.133236
H45   H     H_    0.892448 0.076537 0.070803 0.143121
H46   H     H_    0.094628 0.938696 0.930873 0.124602
H47   H     H_    0.389710 0.572768 0.069623 0.140884
H48   H     H_    0.608017 0.526403 0.937051 0.132148
H49   H     H_    0.899852 0.090181 0.944113 0.171580
H50   H     H_    0.087062 0.967055 0.057098 0.123728
H51   H     H_    0.397626 0.584802 0.942962 0.170559
H52   H     H_    0.603034 0.533106 0.063357 0.159046
H53   H     H_    0.897888 0.922914 0.937429 0.132719
H54   H     H_    0.172192 0.888850 0.069853 0.136615
H55   H     H_    0.395846 0.417546 0.936739 0.134801
H56   H     H_    0.628662 0.372957 0.070349 0.128749
C117  C     C_R   0.997471 0.336348 0.077344 0.007837
C118  C     C_R   0.991539 0.343632 0.927389 -0.006693
C119  C     C_R   0.494344 0.838347 0.078571 0.007940
C120  C     C_R   0.490588 0.843467 0.928223 -0.007664
C121  C     C_R   0.969979 0.436295 0.041874 -0.012869
C122  C     C_R   0.971828 0.440258 0.969195 0.040056
C123  C     C_R   0.470925 0.940576 0.041950 -0.011134
C124  C     C_R   0.474336 0.942934 0.969259 0.039430
C125  C     C_R   0.007469 0.235805 0.962067 -0.176448
C126  C     C_R   0.010326 0.232019 0.036795 -0.168147
C127  C     C_R   0.501087 0.734672 0.964142 -0.177721
C128  C     C_R   0.501743 0.731732 0.039017 -0.170473
C129  C     C_3   0.974648 0.571951 0.045282 0.182194
C130  C     C_3   0.987300 0.571052 0.965121 0.192014
C131  C     C_3   0.479191 0.076038 0.044140 0.180041
C132  C     C_3   0.493499 0.072009 0.964330 0.195630
H57   H     H_    0.018666 0.155843 0.931761 0.127677
H58   H     H_    0.028154 0.150547 0.062133 0.140813
H59   H     H_    0.509149 0.652939 0.934573 0.118095
H60   H     H_    0.512880 0.648201 0.065684 0.124694
H61   H     H_    0.923337 0.608638 0.061028 0.119297
H62   H     H_    0.042727 0.587261 0.950324 0.110977
H63   H     H_    0.428435 0.118329 0.056871 0.108336
H64   H     H_    0.549491 0.082656 0.950268 0.111728
O53   O     O_3   0.032624 0.617968 0.082855 -0.563922
C133  C     C_3   0.018891 0.736094 0.104812 -0.133655
H65   H     H_    0.975624 0.737587 0.143871 0.123408
H66   H     H_    0.006934 0.794744 0.058134 0.097341
H67   H     H_    0.065753 0.772836 0.132226 0.141040
O54   O     O_3   0.936340 0.633719 0.925992 -0.571754
C134  C     C_3   0.968455 0.722245 0.883111 -0.119835
H68   H     H_    0.004614 0.681638 0.844167 0.129726
H69   H     H_    0.996541 0.789375 0.916710 0.083871
H70   H     H_    0.927777 0.769374 0.851808 0.137513
O55   O     O_3   0.537825 0.118297 0.082313 -0.572446
C135  C     C_3   0.519684 0.217818 0.124243 -0.115578
H71   H     H_    0.478232 0.193725 0.163058 0.126563
H72   H     H_    0.503153 0.294101 0.089786 0.089214
H73   H     H_    0.565927 0.246971 0.155712 0.145810
O56   O     O_3   0.445167 0.137266 0.923276 -0.576738
C136  C     C_3   0.479901 0.229514 0.885672 -0.130638
H74   H     H_    0.519403 0.192625 0.848870 0.123875
H75   H     H_    0.504385 0.294690 0.923323 0.097207
H76   H     H_    0.441447 0.278005 0.852188 0.136422
C137  C     C_2   0.661094 0.289857 0.409526 0.617514
O57   O     O_2   0.711029 0.354631 0.423559 -0.535082
O58   O     O_R   0.627204 0.300749 0.343474 -0.688346
H77   H     H_    0.648223 0.365732 0.312196 0.350262
C138  C     C_2   0.223269 0.348027 0.623157 0.583775
O59   O     O_2   0.162309 0.337861 0.604726 -0.546142
O60   O     O_R   0.240159 0.390819 0.691245 -0.665105
H78   H     H_    0.197579 0.412029 0.719921 0.334987
C139  C     C_2   0.161117 0.789904 0.409634 0.616855
O61   O     O_2   0.211060 0.854638 0.423707 -0.535264
O62   O     O_R   0.127240 0.800904 0.343585 -0.684020
H79   H     H_    0.148287 0.865899 0.312338 0.351478
C140  C     C_2   0.723288 0.848101 0.623053 0.583685
O63   O     O_2   0.662337 0.837897 0.604596 -0.546089
O64   O     O_R   0.740141 0.891012 0.691122 -0.666138
H80   H     H_    0.697545 0.912297 0.719753 0.334504
C141  C     C_2   0.971637 0.902054 0.432930 0.550819
O65   O     O_2   0.920209 0.901411 0.394134 -0.568486
O66   O     O_R   0.016621 0.806741 0.431701 -0.671771
H81   H     H_    0.006007 0.750424 0.390563 0.348600
C142  C     C_2   0.001277 0.916847 0.595580 0.534654
O67   O     O_2   0.020853 0.818584 0.577414 -0.572272
O68   O     O_R   0.976561 0.933723 0.664905 -0.696097
H82   H     H_    0.976281 0.856979 0.694184 0.318341
C143  C     C_2   0.471630 0.402057 0.433013 0.550662
O69   O     O_2   0.420122 0.401399 0.394332 -0.569651
O70   O     O_R   0.516635 0.306779 0.431651 -0.671715
H83   H     H_    0.505949 0.250476 0.390524 0.347208
C144  C     C_2   0.501618 0.416893 0.595672 0.535000
O71   O     O_2   0.520616 0.318432 0.577244 -0.572088
O72   O     O_R   0.477789 0.433955 0.665311 -0.696479
H84   H     H_    0.477618 0.357197 0.694576 0.319401

loop_
_geom_bond_atom_site_label_1
_geom_bond_atom_site_label_2
_geom_bond_distance
_ccdc_geom_bond_type
C80   H27   1.084208 S    
O4    C12   1.293275 A    
O39   C19   1.293651 A    
O62   H79   1.012506 S    
C39   H3    1.066411 S    
C107  H47   1.110843 S    
C142  O67   1.213410 D    
C105  H45   1.111723 S    
C82   H30   1.078813 S    
C48   C140  1.514643 S    
O25   C21   1.271546 A    
C31   C35   1.382055 A    
C57   C70   1.394237 A    
C34   C50   1.479183 S    
O55   C135  1.410482 S    
O21   C9    1.310345 A    
C120  C124  1.391570 A    
C90   C106  1.497563 S    
C64   H24   1.081728 S    
C1    O9    1.255431 A    
O44   Cr12  2.089652 S    
C5    C53   1.448641 S    
C62   C66   1.399575 A    
C3    O11   1.255380 A    
C94   C110  1.487471 S    
C4    O12   1.275339 A    
C135  H71   1.113322 S    
C22   C117  1.443300 S    
C112  H56   1.106891 S    
O2    C10   1.293252 A    
C49   H13   1.103895 S    
C125  C126  1.399126 A    
O17   Cr9   2.068955 S    
C102  H38   1.075912 S    
Cr7   O51   2.003723 S    
O31   Cr3   1.966898 S    
C17   C113  1.453031 S    
C8    C56   1.464957 S    
O16   Cr8   1.954175 S    
C27   C43   1.392875 A    
C76   C80   1.403454 A    
C121  C129  1.515957 S    
C79   C83   1.389755 A    
C125  H57   1.083317 S    
O13   C5    1.313463 A    
O28   Cr4   2.067184 S    
C119  C128  1.412197 A    
O12   Cr8   2.079840 S    
O22   Cr10  1.969152 S    
O15   C7    1.313508 A    
O6    C2    1.287199 A    
O46   Cr10  1.952986 S    
C61   H21   1.083492 S    
O68   H82   1.014068 S    
O14   Cr6   1.954175 S    
C97   H33   1.076393 S    
C20   C116  1.451987 S    
C112  H52   1.102264 S    
C51   H19   1.108956 S    
C2    C27   1.441112 S    
C104  H40   1.080721 S    
C49   H17   1.108949 S    
C132  H64   1.116199 S    
C6    C54   1.465041 S    
Cr12  O52   1.999857 S    
C133  H66   1.112710 S    
C17   O41   1.275266 A    
C19   O43   1.277071 A    
C47   C139  1.520030 S    
C41   H5    1.073348 S    
C20   O44   1.274380 A    
C23   C120  1.446687 S    
C94   C114  1.390294 A    
C37   C53   1.397500 A    
C138  O60   1.396628 S    
O46   C22   1.285685 A    
C135  H73   1.109098 S    
C118  C125  1.399413 A    
C33   C53   1.390275 A    
C35   C55   1.390208 A    
C100  C116  1.412689 A    
C16   O36   1.275245 A    
Cr8   O52   2.004128 S    
C71   C72   1.408861 A    
O27   C23   1.272599 A    
C39   C43   1.398051 A    
O31   C15   1.291998 A    
C73   C77   1.416195 A    
O32   C16   1.290971 A    
C13   C88   1.449841 S    
C95   C115  1.400897 A    
C10   C57   1.468636 S    
O47   Cr11  1.948004 S    
C109  H49   1.106016 S    
C105  H41   1.109962 S    
C85   C101  1.402023 A    
C58   C73   1.445572 A    
C111  H55   1.107299 S    
C46   C138  1.514657 S    
C129  C130  1.521555 S    
O24   C12   1.279148 A    
C86   C90   1.402454 A    
O53   C133  1.409873 S    
C134  H70   1.109028 S    
O8    Cr4   1.949282 S    
C66   C142  1.473798 S    
C121  C122  1.361033 A    
O32   Cr4   1.955296 S    
C96   C116  1.394919 A    
C28   C44   1.405518 A    
O11   Cr7   2.075377 S    
C143  O70   1.378340 S    
C120  C127  1.400022 A    
C64   C71   1.406590 A    
O27   Cr3   2.070675 S    
O3    Cr3   2.086324 S    
C46   C50   1.508817 S    
C11   C60   1.495319 S    
Cr5   O49   2.003723 S    
C57   C74   1.374004 A    
C136  H74   1.113256 S    
C141  O66   1.378326 S    
C83   H31   1.076013 S    
C1    C28   1.450984 S    
C81   H29   1.076026 S    
C19   C115  1.457121 S    
C34   C54   1.399846 A    
C99   C103  1.402972 A    
C144  O72   1.399409 S    
C123  C131  1.517847 S    
O22   C10   1.279193 A    
C108  C112  1.505707 S    
C103  H39   1.073421 S    
C2    O10   1.275344 A    
C77   H26   1.075649 S    
C92   C108  1.492488 S    
C63   C67   1.385055 A    
O5    C1    1.296739 A    
C140  O63   1.223846 D    
C98   C114  1.409280 A    
O3    C11   1.266487 A    
O8    C4    1.287177 A    
C139  O61   1.223065 D    
C50   H14   1.105721 S    
C24   C119  1.448071 S    
C95   C111  1.497802 S    
C44   H8    1.076625 S    
C132  O56   1.407673 S    
Cr1   O49   1.999964 S    
C61   C70   1.392828 A    
Cr3   O51   1.999964 S    
C78   C82   1.373485 A    
C29   C33   1.382066 A    
C48   C52   1.508821 S    
O26   Cr2   2.067184 S    
C5    O17   1.309257 A    
O29   C13   1.287819 A    
O28   C24   1.274525 A    
O14   C6    1.316387 A    
C64   C68   1.399646 A    
C119  C123  1.403887 A    
C134  H68   1.112878 S    
C89   C93   1.371607 A    
C133  H65   1.112832 S    
C62   H22   1.081731 S    
C137  O58   1.397598 S    
O40   Cr8   1.962297 S    
C117  C121  1.400914 A    
C92   C96   1.375949 A    
O36   Cr8   2.071634 S    
C98   C102  1.407259 A    
C51   H15   1.103943 S    
C65   C141  1.464624 S    
C32   C36   1.404995 A    
O33   Cr5   2.084831 S    
C50   H18   1.102233 S    
C25   C29   1.383314 A    
O35   Cr7   2.084831 S    
O29   Cr1   1.966898 S    
O56   C136  1.409557 S    
C135  H72   1.112598 S    
C136  H76   1.108980 S    
C25   C41   1.392840 A    
O58   H77   1.012530 S    
C105  C109  1.509027 S    
C48   H10   1.111657 S    
Cr9   O49   2.018817 S    
C29   C45   1.471580 S    
C18   O42   1.270486 A    
Cr11  O51   2.018817 S    
O26   C22   1.276942 A    
O20   Cr12  2.073598 S    
C36   C52   1.479146 S    
O72   H84   1.014068 S    
C133  H67   1.108846 S    
C73   C74   1.407347 A    
C131  C132  1.521619 S    
C106  H46   1.111292 S    
C40   C56   1.393045 A    
C35   C51   1.483902 S    
C16   C85   1.452630 S    
C100  H36   1.079599 S    
C30   C34   1.405022 A    
C123  C124  1.362257 A    
C91   C107  1.489427 S    
C141  O65   1.221991 D    
C89   C105  1.490664 S    
C131  H63   1.117089 S    
C74   C78   1.403425 A    
C47   H9    1.109940 S    
C93   C109  1.498639 S    
C45   H11   1.109956 S    
C67   C68   1.416047 A    
C46   H12   1.111670 S    
C21   C118  1.441938 S    
C99   H35   1.080434 S    
C84   H32   1.078814 S    
O42   Cr10  2.089652 S    
O18   Cr10  2.073598 S    
C77   C81   1.389732 A    
C101  H37   1.072804 S    
O34   Cr6   2.071634 S    
C26   C30   1.380731 A    
C142  O68   1.399503 S    
O24   Cr12  1.969152 S    
O30   Cr2   1.955296 S    
C67   C143  1.464685 S    
O1    C9    1.266577 A    
O70   H83   1.013416 S    
C122  C130  1.487140 S    
C8    O20   1.306363 A    
C130  O54   1.408361 S    
O64   H80   1.013885 S    
O37   C17   1.292928 A    
C15   O35   1.266943 A    
C126  H58   1.080702 S    
Cr10  O50   1.999857 S    
C30   C46   1.495027 S    
C37   H1    1.066382 S    
O40   C20   1.276644 A    
O43   Cr11  2.073033 S    
O48   C24   1.290856 A    
O48   Cr12  1.952986 S    
O37   Cr5   1.955658 S    
O66   H81   1.013415 S    
O21   Cr9   1.954507 S    
C138  O59   1.223859 D    
C87   C91   1.392212 A    
O39   Cr7   1.955658 S    
O45   Cr9   1.948004 S    
O60   H78   1.013894 S    
C13   O33   1.266424 A    
O13   Cr5   1.964500 S    
C107  H43   1.108979 S    
O15   Cr7   1.964500 S    
C63   C72   1.392812 A    
C26   C42   1.405574 A    
C40   H4    1.076558 S    
C60   C75   1.445623 A    
O30   C14   1.289371 A    
O23   C11   1.310399 A    
C59   C76   1.373992 A    
C40   C44   1.377349 A    
C14   O34   1.276827 A    
C78   H25   1.084204 S    
C68   C144  1.474091 S    
C129  H61   1.115222 S    
C98   H34   1.078206 S    
C52   H16   1.105704 S    
C42   H6    1.076685 S    
C110  H54   1.112016 S    
O1    Cr1   2.086324 S    
O19   Cr11  2.068955 S    
C93   C113  1.399829 A    
C65   C66   1.415853 A    
C7    C55   1.448607 S    
C134  H69   1.112117 S    
C62   C69   1.406680 A    
O45   C21   1.289277 A    
C117  C126  1.416760 A    
O47   C23   1.289910 A    
C80   C84   1.373449 A    
C143  O69   1.221969 D    
C6    O18   1.306372 A    
O41   Cr9   2.073033 S    
C38   H2    1.076554 S    
C61   C65   1.384970 A    
O38   Cr6   1.962297 S    
C127  H59   1.081506 S    
C83   C84   1.386623 A    
C90   C94   1.371183 A    
C110  H50   1.109186 S    
C81   C82   1.386682 A    
C106  H42   1.105176 S    
C75   C76   1.407391 A    
C86   C102  1.403279 A    
C28   C32   1.380771 A    
C100  C104  1.399358 A    
C63   H23   1.083510 S    
O23   Cr11  1.954507 S    
C144  O71   1.213292 D    
O7    C3    1.296790 A    
C32   C48   1.495086 S    
C12   C59   1.468605 S    
C45   C137  1.520083 S    
O16   C8    1.316334 A    
C36   C56   1.399852 A    
O6    Cr2   1.949282 S    
C7    O19   1.309203 A    
C108  H48   1.110756 S    
Cr4   O52   2.018580 S    
C91   C95   1.372750 A    
C38   C54   1.393082 A    
C45   C49   1.519617 S    
Cr6   O50   2.004128 S    
C108  H44   1.101866 S    
O5    Cr1   1.953673 S    
C96   C112  1.496206 S    
C15   C86   1.462565 S    
C18   C114  1.455369 S    
C37   C41   1.398009 A    
O9    Cr5   2.075377 S    
C4    C25   1.441069 S    
C131  O55   1.407832 S    
C85   C89   1.393663 A    
O7    Cr3   1.953673 S    
C88   C104  1.396543 A    
C137  O57   1.223059 D    
C107  C111  1.508194 S    
C87   C103  1.404288 A    
C88   C92   1.396549 A    
C14   C87   1.454652 S    
C75   C79   1.416194 A    
C99   C115  1.404772 A    
C97   C113  1.402860 A    
Cr2   O50   2.018580 S    
C136  H75   1.112407 S    
C33   C49   1.483991 S    
O38   C18   1.279503 A    
O25   Cr1   2.070675 S    
C124  C132  1.484572 S    
C39   C55   1.397530 A    
O2    Cr2   2.077209 S    
C127  C128  1.401011 A    
C128  H60   1.077441 S    
C9    C58   1.495313 S    
C118  C122  1.392059 A    
C60   C71   1.419135 A    
C109  H53   1.107198 S    
C140  O64   1.396596 S    
C31   C47   1.471581 S    
C3    C26   1.450996 S    
C111  H51   1.103296 S    
C59   C72   1.394247 A    
C97   C101  1.401016 A    
C139  O62   1.397548 S    
C38   C42   1.377398 A    
O10   Cr6   2.079840 S    
C58   C69   1.419221 A    
O4    Cr4   2.077209 S    
O54   C134  1.410162 S    
C27   C31   1.383310 A    
C106  C110  1.510398 S    
C47   C51   1.519570 S    
C43   H7    1.073363 S    
C129  O53   1.406641 S    
C69   C70   1.408950 A    
C130  H62   1.116770 S    
C79   H28   1.075600 S    
C52   H20   1.102290 S    
