data_mof_unit_261.cif
_audit_creation_date              2013-03-05T15:42:27-0500
_audit_creation_method            fapswitch 2.2
_symmetry_space_group_name_H-M    P1
_symmetry_Int_Tables_number       1
_space_group_crystal_system       triclinic
_cell_length_a                    11.339975
_cell_length_b                    11.17683
_cell_length_c                    18.787501
_cell_angle_alpha                 89.658899
_cell_angle_beta                  89.684442
_cell_angle_gamma                 59.517641
_cell_volume                      2052.05680836

loop_
_atom_site_label
_atom_site_type_symbol
_atom_site_description
_atom_site_fract_x
_atom_site_fract_y
_atom_site_fract_z
_atom_type_partial_charge
O1    O     O_R   0.507340 0.255690 0.581430 -0.514610
O2    O     O_R   0.280360 0.527380 0.578910 -0.515847
C1    C     C_R   0.242207 0.641962 0.611287 0.565341
O3    O     O_R   0.260600 0.739610 0.584580 -0.488957
O4    O     O_R   0.532370 0.695050 0.573830 -0.409917
C2    C     C_R   0.655803 0.625784 0.597633 0.607627
O5    O     O_R   0.744850 0.503430 0.576380 -0.518478
O6    O     O_R   0.699080 0.276500 0.571950 -0.500290
C3    C     C_R   0.631320 0.221831 0.599377 0.534598
O7    O     O_R   0.498860 0.256520 0.419860 -0.533597
O8    O     O_R   0.272490 0.528150 0.429140 -0.503930
C4    C     C_R   0.278636 0.626321 0.392467 0.529521
O9    O     O_R   0.252110 0.740440 0.423010 -0.525679
O10   O     O_R   0.524510 0.695820 0.424050 -0.529272
C5    C     C_R   0.620526 0.590344 0.386043 0.518003
O11   O     O_R   0.736370 0.504260 0.414810 -0.526891
O12   O     O_R   0.691220 0.277270 0.422180 -0.556667
C6    C     C_R   0.610889 0.236220 0.393192 0.511415
Cr1   Cr    Cr6+3 0.392940 0.397950 0.502230 1.036041
Cr2   Cr    Cr6+3 0.398400 0.708500 0.501260 1.084739
Cr3   Cr    Cr6+3 0.708640 0.393530 0.496460 1.026238
O13   O     O_3   0.499990 0.499990 0.499980 -0.300146
C7    C     C_3   0.613192 0.828014 0.773655 -0.263062
H1    H     H_    0.651367 0.897301 0.782386 0.164734
H2    H     H_    0.516209 0.869920 0.804048 0.125697
C8    C     C_3   0.599293 0.814744 0.692187 0.127671
H3    H     H_    0.653951 0.863270 0.666937 0.174015
H4    H     H_    0.854772 0.674692 0.637270 0.142593
C9    C     C_3   0.858824 0.638397 0.757050 0.346164
C10   C     C_3   0.670627 0.589398 0.800041 -0.236405
C11   C     C_3   0.724970 0.689231 0.804995 -0.026675
H5    H     H_    0.737880 0.490390 0.828675 0.163212
H6    H     H_    0.568901 0.636767 0.826760 0.142153
C12   C     C_3   0.680451 0.657754 0.670267 0.015913
C13   C     C_3   0.831019 0.616960 0.677514 -0.277848
C14   C     C_3   0.659794 0.558757 0.721369 0.140320
H7    H     H_    0.746095 0.451749 0.709558 0.181666
H8    H     H_    0.900307 0.509074 0.659493 0.211382
H9    H     H_    0.504775 0.127929 0.681766 0.172924
C15   C     C_R   0.706187 0.123208 0.815617 0.025925
C16   C     C_R   0.814488 0.119971 0.774237 0.042440
C17   C     C_R   0.804481 0.121943 0.698356 0.026052
C18   C     C_R   0.590338 0.128882 0.706183 -0.163787
C19   C     C_R   0.597156 0.128648 0.778590 -0.177783
C20   C     C_R   0.925909 0.125431 0.803545 -0.134507
C21   C     C_R   0.023798 0.129636 0.759001 -0.112078
C22   C     C_R   0.013589 0.126868 0.684687 0.199495
C23   C     C_R   0.911408 0.110090 0.655975 -0.058640
C24   C     C_R   0.683956 0.142728 0.665837 0.012719
H10   H     H_    0.936255 0.133344 0.860034 0.158176
H11   H     H_    0.522729 0.113012 0.805007 0.138883
H12   H     H_    0.106020 0.137665 0.782880 0.150117
H13   H     H_    0.913152 0.093592 0.599207 0.166472
H14   H     H_    0.132730 0.863994 0.691829 0.126276
C25   C     C_R   0.194357 0.668068 0.838709 0.037306
C26   C     C_R   0.238704 0.539473 0.806937 0.039574
C27   C     C_R   0.229268 0.531159 0.731429 0.023716
C28   C     C_R   0.168348 0.771441 0.722461 -0.081310
C29   C     C_R   0.172060 0.779601 0.795488 -0.110161
C30   C     C_R   0.287935 0.419803 0.849706 -0.068377
C31   C     C_R   0.294848 0.302009 0.821835 -0.074522
C32   C     C_R   0.274100 0.295227 0.749438 -0.061284
C33   C     C_R   0.245959 0.406193 0.704013 -0.055918
C34   C     C_R   0.203325 0.648464 0.688053 0.053062
H15   H     H_    0.305325 0.422510 0.906171 0.126051
H16   H     H_    0.144270 0.878587 0.818298 0.134841
H17   H     H_    0.315600 0.215844 0.856573 0.112215
H18   H     H_    0.283567 0.201364 0.728414 0.162804
H19   H     H_    0.229740 0.394096 0.648876 0.195396
H20   H     H_    0.534963 0.835023 0.326758 0.146181
C35   C     C_R   0.713661 0.672773 0.179243 0.021333
C36   C     C_R   0.794901 0.533910 0.207682 0.002061
C37   C     C_R   0.751686 0.502973 0.271471 -0.025039
C38   C     C_R   0.594916 0.749315 0.290889 -0.129363
C39   C     C_R   0.627422 0.778333 0.225022 0.176225
C40   C     C_R   0.921485 0.426330 0.177702 -0.135670
C41   C     C_R   0.992042 0.292967 0.204909 -0.117930
C42   C     C_R   0.951715 0.264885 0.268491 0.246272
C43   C     C_R   0.826268 0.364989 0.296723 -0.090384
C44   C     C_R   0.646552 0.613326 0.312668 -0.031540
H21   H     H_    0.979458 0.441680 0.137284 0.153588
H22   H     H_    0.086669 0.215191 0.180315 0.129941
H23   H     H_    0.792317 0.332637 0.340289 0.172224
H24   H     H_    0.843501 0.101091 0.319203 0.174542
C45   C     C_R   0.649950 0.185844 0.169197 0.040522
C46   C     C_R   0.520039 0.247787 0.199873 0.062267
C47   C     C_R   0.509401 0.232036 0.273911 0.073494
C48   C     C_R   0.753160 0.142819 0.286438 -0.125326
C49   C     C_R   0.765183 0.143383 0.213131 -0.084270
C50   C     C_R   0.403276 0.302360 0.156568 -0.034614
C51   C     C_R   0.283876 0.314203 0.182782 -0.081951
C52   C     C_R   0.276072 0.282252 0.253615 -0.129458
C53   C     C_R   0.386437 0.241792 0.298710 -0.056352
C54   C     C_R   0.626231 0.194137 0.318041 0.004546
H25   H     H_    0.407587 0.324748 0.100763 0.147145
H26   H     H_    0.867870 0.094535 0.191414 0.175751
H27   H     H_    0.199173 0.346318 0.147217 0.093446
H28   H     H_    0.184256 0.290415 0.275020 0.119201
H29   H     H_    0.374998 0.206597 0.350330 0.151586
H30   H     H_    0.113700 0.546736 0.334482 0.147627
C55   C     C_R   0.168611 0.655569 0.176449 0.033703
C56   C     C_R   0.259010 0.700595 0.196831 0.016024
C57   C     C_R   0.266810 0.722339 0.269740 -0.022107
C58   C     C_R   0.151982 0.593269 0.297083 -0.126004
C59   C     C_R   0.112153 0.606993 0.227052 -0.149704
C60   C     C_R   0.315745 0.753444 0.146545 0.229112
C61   C     C_R   0.326440 0.867778 0.166069 -0.084210
C62   C     C_R   0.306387 0.910181 0.236637 -0.129480
C63   C     C_R   0.292400 0.829175 0.288751 -0.101879
C64   C     C_R   0.231782 0.648374 0.319242 0.016503
H31   H     H_    0.035458 0.581511 0.212656 0.127339
H32   H     H_    0.351509 0.922816 0.126970 0.191034
H33   H     H_    0.312090 0.999906 0.252381 0.180078
H34   H     H_    0.293628 0.860075 0.342375 0.168757
O14   O     O_R   0.089570 0.825450 0.930590 -0.500800
O15   O     O_R   0.818700 0.054260 0.929860 -0.504715
C65   C     C_R   0.708366 0.090439 0.892975 0.555236
O16   O     O_R   0.606310 0.077010 0.915520 -0.551775
O17   O     O_R   0.646730 0.806540 0.917560 -0.510045
C66   C     C_R   0.748858 0.705878 0.882526 0.629785
O18   O     O_R   0.837290 0.593240 0.915240 -0.445289
O19   O     O_R   0.065320 0.635310 0.931580 -0.445756
C67   C     C_R   0.123914 0.703748 0.908585 0.627272
O20   O     O_R   0.068470 0.828620 0.091850 -0.497420
O21   O     O_R   0.799150 0.057200 0.079350 -0.521618
C68   C     C_R   0.674550 0.112371 0.101054 0.585623
O22   O     O_R   0.585220 0.080180 0.076770 -0.466117
O23   O     O_R   0.627170 0.809480 0.067050 -0.432908
C69   C     C_R   0.730975 0.709810 0.105955 0.600224
O24   O     O_R   0.816200 0.596410 0.076500 -0.550790
O25   O     O_R   0.045770 0.638240 0.081070 -0.552866
C70   C     C_R   0.094318 0.707370 0.110978 0.591966
Cr4   Cr    Cr6+3 0.937880 0.938320 0.007620 1.061006
Cr5   Cr    Cr6+3 0.625560 0.937220 0.994510 1.075626
Cr6   Cr    Cr6+3 0.938080 0.625010 0.001190 1.067549
O26   O     O_3   0.833840 0.833520 0.001110 -0.302708
N1    N     N_R   0.966519 0.503707 0.783423 0.074475
O27   O     O_R   0.966436 0.392055 0.766000 -0.413669
O28   O     O_R   0.030544 0.497183 0.840610 -0.298140
N2    N     N_R   0.101422 0.146928 0.637143 0.052511
O29   O     O_R   0.103867 0.261376 0.641052 -0.358366
O30   O     O_R   0.140429 0.077901 0.577708 -0.375896
N3    N     N_R   0.607522 0.911467 0.214215 0.051842
O31   O     O_R   0.494788 0.007937 0.186263 -0.382316
O32   O     O_R   0.713508 0.925757 0.219860 -0.387268
O33   O     O_3   0.036868 0.138954 0.301964 -0.605592
C71   C     C_3   0.056330 0.160235 0.374165 -0.103555
H35   H     H_    0.971301 0.169229 0.407670 0.152972
H36   H     H_    0.068437 0.252297 0.381736 0.119092
H37   H     H_    0.151482 0.069026 0.393810 0.149324
O34   O     O_3   0.467355 0.895381 0.662908 -0.542927
C72   C     C_3   0.365079 0.892155 0.703017 -0.045997
H38   H     H_    0.290452 0.899437 0.664428 0.215507
H39   H     H_    0.316339 0.982968 0.738629 0.073312
H40   H     H_    0.399296 0.797111 0.734943 0.159483
N4    N     N_R   0.353204 0.697993 0.075573 0.081527
O35   O     O_R   0.369348 0.768896 0.025176 -0.342388
O36   O     O_R   0.385128 0.570726 0.062769 -0.397315
N5    N     N_R   0.902168 0.743327 0.760159 0.050163
O37   O     O_R   0.903911 0.809427 0.703296 -0.421706
O38   O     O_R   0.901509 0.798822 0.820673 -0.368954
O39   O     O_3   0.536116 0.561944 0.707294 -0.576889
C73   C     C_3   0.532153 0.455878 0.745964 -0.133871
H41   H     H_    0.475477 0.499000 0.796005 0.124854
H42   H     H_    0.632937 0.369959 0.761846 0.102966
H43   H     H_    0.484967 0.411210 0.712547 0.163270

loop_
_geom_bond_atom_site_label_1
_geom_bond_atom_site_label_2
_geom_bond_distance
_ccdc_geom_bond_type
C10   H5    1.112118 S    
C25   C26   1.395921 A    
C55   C56   1.407397 A    
C25   C29   1.395604 A    
C16   C17   1.429884 A    
C73   H41   1.101693 S    
O22   Cr5   2.104956 S    
C36   C40   1.439313 A    
O23   C69   1.352877 A    
C4    C64   1.451481 S    
C52   H28   1.074045 S    
Cr6   O26   2.008369 S    
C9    N5    1.485381 S    
O4    Cr2   1.994536 S    
C45   C46   1.393688 A    
C62   C63   1.391730 A    
N1    O28   1.280909 A    
O8    Cr1   1.961948 S    
C8    H3    1.112708 S    
C68   O22   1.319313 A    
O20   Cr4   2.088337 S    
C57   C64   1.423390 A    
C41   H22   1.083323 S    
N4    O35   1.301675 A    
C73   H42   1.097390 S    
N2    O30   1.302442 A    
O33   C71   1.416228 S    
O25   Cr6   1.992855 S    
C29   H16   1.075829 S    
C10   C11   1.527404 S    
C60   C61   1.394843 A    
N3    O31   1.294163 A    
C47   C54   1.435486 A    
C21   H12   1.081035 S    
H30   C58   1.083514 S    
C26   C27   1.430351 A    
O20   C70   1.282176 A    
C12   C13   1.534202 S    
C61   H32   1.080998 S    
C7    C8    1.555199 S    
C71   H35   1.109877 S    
C8    C12   1.568912 S    
C33   H19   1.074327 S    
H4    C13   1.108536 S    
O6    C3    1.302897 A    
C43   H23   1.040750 S    
C22   N2    1.433374 S    
H20   C38   1.084391 S    
Cr4   O26   2.045549 S    
O34   C72   1.395268 S    
N5    O38   1.296493 A    
C53   H29   1.076080 S    
O16   Cr5   2.078712 S    
C48   C49   1.383547 A    
C15   C65   1.493952 S    
C59   H31   1.079578 S    
C38   C44   1.383027 A    
Cr3   O13   2.039964 S    
C14   O39   1.411199 S    
C45   C68   1.472196 S    
C31   C32   1.390678 A    
C73   H43   1.099167 S    
C58   C59   1.375667 A    
C27   C33   1.411115 A    
C25   C67   1.480553 S    
C55   C59   1.395827 A    
C23   H13   1.081795 S    
O19   Cr6   1.987834 S    
C48   C54   1.382153 A    
O1    Cr1   2.079795 S    
O17   Cr5   1.986599 S    
O14   C67   1.280747 A    
C38   C39   1.372550 A    
C22   C23   1.377444 A    
O10   Cr2   1.985795 S    
C50   H25   1.083038 S    
C13   H8    1.107563 S    
O1    C3    1.302862 A    
N2    O29   1.295985 A    
C46   C50   1.404909 A    
C51   C52   1.389766 A    
C45   C49   1.411427 A    
C42   C43   1.393130 A    
C18   C24   1.371842 A    
H9    C18   1.080489 S    
O15   Cr4   1.965308 S    
O14   Cr4   2.106542 S    
C28   C34   1.385305 A    
C28   C29   1.377859 A    
C41   C42   1.367378 A    
C51   H27   1.073469 S    
C2    C12   1.476242 S    
C30   C31   1.384452 A    
C7    C11   1.536890 S    
C62   H33   1.080239 S    
C18   C19   1.362890 A    
C32   C33   1.399005 A    
O23   Cr5   1.961312 S    
C35   C69   1.475974 S    
C31   H17   1.083083 S    
N5    O37   1.301037 A    
C72   H40   1.102530 S    
C5    C44   1.456592 S    
O7    Cr1   2.102060 S    
C61   C62   1.388833 A    
Cr1   O13   2.044415 S    
O12   C6    1.330187 A    
C37   C43   1.411106 A    
C3    C24   1.468555 S    
C17   C23   1.396237 A    
C40   C41   1.381558 A    
C39   N3    1.400917 S    
C63   H34   1.069406 S    
C19   H11   1.064514 S    
C15   C16   1.434848 A    
O24   Cr6   2.106095 S    
C72   H39   1.103715 S    
C30   H15   1.083466 S    
C60   N4    1.441869 S    
O21   C68   1.286728 A    
C6    C54   1.472114 S    
C1    O3    1.307551 A    
C71   H37   1.106193 S    
C66   O18   1.298098 A    
C58   C64   1.394353 A    
C27   C34   1.438134 A    
O39   C73   1.406639 S    
H14   C28   1.065834 S    
O21   Cr4   1.983367 S    
N3    O32   1.295233 A    
C21   C22   1.403420 A    
C8    O34   1.410141 S    
C10   H6    1.113633 S    
C71   H36   1.114962 S    
O2    Cr1   1.982122 S    
C46   C47   1.413209 A    
O9    Cr2   2.111992 S    
H24   C48   1.079237 S    
Cr2   O13   2.008834 S    
C36   C37   1.398741 A    
O6    Cr3   1.963226 S    
C40   H21   1.070350 S    
Cr5   O26   2.039962 S    
O17   C66   1.311022 A    
O11   Cr3   2.085817 S    
C2    O5    1.284646 A    
C10   C14   1.538732 S    
C9    N1    1.461434 S    
N1    O27   1.292476 A    
C9    C13   1.573486 S    
C32   H18   1.076262 S    
C57   C63   1.412585 A    
C49   H26   1.083024 S    
N4    O36   1.301126 A    
O2    C1    1.281228 A    
C69   O24   1.267442 A    
C35   C36   1.444971 A    
C9    C11   1.598207 S    
O5    Cr3   2.114798 S    
C65   O16   1.308195 A    
C35   C39   1.385753 A    
C50   C51   1.380194 A    
O4    C2    1.289165 A    
C20   H10   1.077467 S    
O7    C6    1.272151 A    
C5    O11   1.289515 A    
C47   C53   1.418631 A    
C52   C53   1.386200 A    
C37   C44   1.432154 A    
O15   C65   1.304651 A    
C56   C60   1.423941 A    
C12   C14   1.564847 S    
C7    H2    1.108435 S    
C1    C34   1.497147 S    
C56   C57   1.403678 A    
O12   Cr3   1.989995 S    
C11   C66   1.512755 S    
C42   O33   1.387896 S    
C7    H1    1.075369 S    
O3    Cr2   2.107476 S    
C55   C70   1.437364 S    
C20   C21   1.406071 A    
C15   C19   1.396062 A    
C26   C30   1.407445 A    
C4    O9    1.290037 A    
O18   Cr6   2.116335 S    
C14   H7    1.118349 S    
O19   C67   1.312170 A    
C16   C20   1.410552 A    
O10   C5    1.335801 A    
C72   H38   1.088389 S    
C17   C24   1.407348 A    
O25   C70   1.286833 A    
O8    C4    1.323466 A    
