data_mof_unit_3089.cif
_audit_creation_date              2012-12-10T19:45:01-0500
_audit_creation_method            fapswitch 2.2
_symmetry_space_group_name_H-M    P1
_symmetry_Int_Tables_number       1
_space_group_crystal_system       triclinic
_cell_length_a                    15.072507
_cell_length_b                    10.839942
_cell_length_c                    13.763617
_cell_angle_alpha                 89.081429
_cell_angle_beta                  90.526163
_cell_angle_gamma                 88.076916
_cell_volume                      2247.10824362

loop_
_atom_site_label
_atom_site_type_symbol
_atom_type_description
_atom_site_fract_x
_atom_site_fract_y
_atom_site_fract_z
_atom_type_partial_charge
Br1   Br    Br    0.639269 0.314644 0.732808 -0.488811
Br2   Br    Br    0.361228 0.686075 0.267211 -0.492975
Br3   Br    Br    0.231131 0.612415 0.095282 -0.525918
Br4   Br    Br    0.769055 0.389156 0.904753 -0.525188
C1    C     C_R   0.497797 0.262321 0.500241 0.826101
C2    C     C_R   0.578015 0.871668 0.668609 0.070710
C3    C     C_R   0.464659 0.132370 0.244506 -0.172560
C4    C     C_R   0.529927 0.876602 0.755581 -0.155030
C5    C     C_R   0.426047 0.196522 0.165194 -0.133016
C6    C     C_R   0.562237 0.815826 0.839400 -0.134888
C7    C     C_R   0.343040 0.255973 0.174193 -0.131421
C8    C     C_R   0.642840 0.749208 0.837527 -0.158307
C9    C     C_R   0.472309 0.936675 0.418570 -0.234507
C10   C     C_R   0.532295 0.062977 0.580236 -0.215253
C11   C     C_R   0.506122 0.871287 0.499769 -0.103266
C12   C     C_R   0.502769 0.737544 0.499738 0.811416
C13   C     C_R   0.496738 0.128311 0.499793 -0.066035
C14   C     C_R   0.538514 0.934975 0.581039 -0.015077
C15   C     C_R   0.465355 0.064445 0.418246 0.028724
C16   C     C_R   0.328544 0.501275 0.499708 0.840668
C17   C     C_R   0.671413 0.500476 0.500281 0.840863
C18   C     C_R   0.568350 0.440319 0.795599 0.426890
C19   C     C_R   0.431726 0.559896 0.204422 0.429874
C20   C     C_R   0.431921 0.556769 0.792030 -0.011479
C21   C     C_R   0.568080 0.443260 0.207959 -0.015243
C22   C     C_R   0.428927 0.552959 0.894353 -0.045077
C23   C     C_R   0.047776 0.505197 0.676973 -0.195689
C24   C     C_R   0.571079 0.447145 0.105643 -0.048163
C25   C     C_R   0.501053 0.500886 0.948243 0.011461
C26   C     C_R   0.498924 0.499175 0.051766 0.009800
C27   C     C_R   0.574998 0.450341 0.898703 -0.110786
C28   C     C_R   0.425020 0.549837 0.101316 -0.110594
C29   C     C_R   0.353621 0.596091 0.943239 -0.230939
C30   C     C_R   0.646451 0.404247 0.056758 -0.229671
C31   C     C_R   0.349249 0.590263 0.044879 0.303091
C32   C     C_R   0.650844 0.410226 0.955129 0.303422
C33   C     C_R   0.813757 0.504723 0.412007 -0.245933
C34   C     C_R   0.951866 0.507546 0.322991 -0.197433
C35   C     C_R   0.186002 0.504372 0.587972 -0.236758
C36   C     C_R   0.768235 0.502436 0.500492 -0.055715
C37   C     C_R   0.231592 0.504221 0.499490 -0.087765
C38   C     C_R   0.815407 0.502575 0.588763 -0.179987
C39   C     C_R   0.184338 0.506502 0.411203 -0.231994
C40   C     C_R   0.907760 0.504686 0.589200 0.079391
C41   C     C_R   0.091907 0.507198 0.410764 0.089711
C42   C     C_R   0.953341 0.506098 0.500090 0.062847
C43   C     C_R   0.046311 0.506520 0.499876 0.066275
C44   C     C_R   0.906071 0.506323 0.411182 0.099746
C45   C     C_R   0.297844 0.250382 0.262207 -0.152560
C46   C     C_R   0.093604 0.505574 0.588788 0.101997
C47   C     C_R   0.955288 0.504818 0.677173 -0.186470
C48   C     C_R   0.044347 0.507926 0.322786 -0.176779
C49   C     C_3   0.259147 0.059224 0.462576 -0.639984
C50   C     C_3   0.802889 0.841605 0.588153 -0.663874
C51   C     C_R   0.691907 0.743963 0.752111 -0.103897
C52   C     C_R   0.335238 0.184869 0.342327 0.292544
C53   C     C_R   0.661393 0.806348 0.666991 0.306346
C54   C     C_R   0.420431 0.127196 0.333776 0.102199
Cu1   Cu    Cu3+1 0.500010 0.499980 0.597420 0.990721
Cu2   Cu    Cu3+1 0.499990 0.500020 0.402580 0.986919
H1    H     H_    0.777521 0.504855 0.343574 0.155532
H2    H     H_    0.219320 0.506722 0.342782 0.202583
H3    H     H_    0.920954 0.504176 0.746008 0.187904
H4    H     H_    0.078671 0.508356 0.253946 0.190215
H5    H     H_    0.083473 0.504748 0.745694 0.160415
H6    H     H_    0.916172 0.507757 0.254273 0.160738
H7    H     H_    0.313597 0.306358 0.112791 0.166336
H8    H     H_    0.667210 0.700885 0.902361 0.164028
H9    H     H_    0.233107 0.295938 0.267674 0.136494
H10   H     H_    0.753576 0.690023 0.752485 0.142490
H11   H     H_    0.529823 0.088536 0.236976 0.142728
H12   H     H_    0.222270 0.503050 0.656410 0.155648
H13   H     H_    0.466465 0.926387 0.757981 0.143423
H14   H     H_    0.460939 0.201232 0.096911 0.152392
H15   H     H_    0.524184 0.819203 0.905682 0.153955
H16   H     H_    0.240367 0.249176 0.440357 0.249560
H17   H     H_    0.287906 0.036547 0.535459 0.238000
H18   H     H_    0.279931 0.985454 0.411490 0.244940
H19   H     H_    0.185587 0.059943 0.467522 0.224505
H20   H     H_    0.681956 0.828896 0.517207 0.246858
H21   H     H_    0.836367 0.831234 0.517047 0.233790
H22   H     H_    0.842160 0.786024 0.642693 0.232235
H23   H     H_    0.447291 0.888339 0.356466 0.203115
H24   H     H_    0.801952 0.940549 0.608167 0.243405
H25   H     H_    0.556907 0.111485 0.642423 0.204144
H26   H     H_    0.377957 0.600962 0.750711 0.137546
H27   H     H_    0.622054 0.399076 0.249268 0.138761
H28   H     H_    0.295717 0.628730 0.901833 0.169357
H29   H     H_    0.704408 0.371805 0.098160 0.169992
H30   H     H_    0.780447 0.500857 0.657168 0.194292
N1    N     N_R   0.499960 0.499900 0.743810 -0.207464
N2    N     N_R   0.500040 0.500100 0.256190 -0.206364
N3    N     N_2   0.287906 0.179794 0.431401 -0.461511
N4    N     N_2   0.713100 0.799077 0.580567 -0.457278
O1    O     O_R   0.500000 0.319630 0.582270 -0.550234
O2    O     O_R   0.500000 0.680370 0.417730 -0.549970
O3    O     O_R   0.499990 0.319660 0.417730 -0.588588
O4    O     O_R   0.500010 0.680340 0.582270 -0.583920
O5    O     O_R   0.370260 0.499960 0.582280 -0.602339
O6    O     O_R   0.629740 0.500040 0.417720 -0.607867
O7    O     O_R   0.370250 0.499990 0.417740 -0.552044
O8    O     O_R   0.629750 0.500010 0.582260 -0.550477

loop_
_geom_bond_atom_site_label_1
_geom_bond_atom_site_label_2
_ccdc_geom_bond_type
C11   C14   A    
Br4   C32   S    
Cu1   O5    S    
C10   C14   A    
C10   C13   A    
C50   H24   S    
C16   C37   S    
C35   C37   A    
C21   C24   A    
C8    H8    S    
Cu1   O1    S    
C7    C45   A    
C49   H19   S    
C29   H28   S    
C20   C22   A    
C33   C36   A    
C3    H11   S    
C1    C13   S    
C11   C12   S    
C21   H27   S    
C7    H7    S    
C13   C15   A    
C34   H6    S    
C40   C42   A    
C18   N1    A    
C3    C54   A    
C34   C44   A    
C23   C46   A    
Cu2   N2    S    
C24   C30   A    
Cu1   Cu2   S    
C45   H9    S    
C37   C39   A    
C2    C53   A    
C38   C40   A    
C1    O1    A    
C23   C47   A    
C43   C46   A    
C41   C43   A    
C15   C54   S    
C52   N3    S    
C2    C14   S    
C42   C44   A    
C12   O2    A    
C18   C27   A    
C9    C15   A    
C49   N3    S    
C8    C51   A    
C28   C31   A    
C47   H3    S    
Cu2   O3    S    
C48   H4    S    
C17   O6    A    
C2    C4    A    
C16   O7    A    
C41   C48   A    
C38   H30   S    
C49   H17   S    
C25   C26   A    
C23   H5    S    
H16   N3    S    
C39   C41   A    
C6    H15   S    
C22   C29   A    
Br3   C31   S    
C35   H12   S    
Cu1   N1    S    
C33   C44   A    
C5    C7    A    
C6    C8    A    
C17   O8    A    
Cu2   O2    S    
C40   C47   A    
C1    O3    A    
C53   N4    S    
C9    C11   A    
C5    H14   S    
H20   N4    S    
Cu2   O7    S    
C20   N1    A    
C50   H22   S    
C3    C5    A    
C42   C43   A    
C21   N2    A    
C27   C32   A    
Cu1   O8    S    
C10   H25   S    
Cu2   O6    S    
C33   H1    S    
C45   C52   A    
C9    H23   S    
C19   C28   A    
C51   C53   A    
C49   H18   S    
C30   H29   S    
C24   C26   A    
C25   C27   A    
C26   C28   A    
C12   O4    A    
C16   O5    A    
C36   C38   A    
C4    H13   S    
C29   C31   A    
C52   C54   A    
C30   C32   A    
C50   N4    S    
C51   H10   S    
Br1   C18   S    
C35   C46   A    
C34   C48   A    
C22   C25   A    
C4    C6    A    
Br2   C19   S    
Cu1   O4    S    
C19   N2    A    
C20   H26   S    
C50   H21   S    
C39   H2    S    
C17   C36   S    
