data_mof_unit_1476.cif
_audit_creation_date              2013-03-05T15:42:19-0500
_audit_creation_method            fapswitch 2.2
_symmetry_space_group_name_H-M    P1
_symmetry_Int_Tables_number       1
_space_group_crystal_system       triclinic
_cell_length_a                    7.862137
_cell_length_b                    8.574377
_cell_length_c                    18.852476
_cell_angle_alpha                 91.257129
_cell_angle_beta                  84.716674
_cell_angle_gamma                 93.889034
_cell_volume                      1262.42955913

loop_
_atom_site_label
_atom_site_type_symbol
_atom_site_description
_atom_site_fract_x
_atom_site_fract_y
_atom_site_fract_z
_atom_type_partial_charge
O1    O     O_R   0.389250 0.738570 0.504600 -0.577769
O2    O     O_R   0.610750 0.261430 0.495400 -0.581536
O3    O     O_R   0.678400 0.711620 0.492580 -0.577731
O4    O     O_R   0.321600 0.288380 0.507420 -0.566236
C1    C     C_R   0.544445 0.794298 0.499731 0.862049
C2    C     C_R   0.455160 0.205993 0.498286 0.907861
O5    O     O_R   0.355380 0.513500 0.607880 -0.612359
O6    O     O_R   0.644620 0.486500 0.392120 -0.626834
O7    O     O_R   0.644530 0.486550 0.595850 -0.561060
O8    O     O_R   0.355470 0.513450 0.404150 -0.549284
C3    C     C_R   0.500501 0.499979 0.635298 0.886063
C4    C     C_R   0.500059 0.501742 0.364524 0.887771
Zn1   Zn    Zn3+2 0.306930 0.517990 0.508030 1.167227
Zn2   Zn    Zn3+2 0.693070 0.482010 0.491970 1.157854
C5    C     C_R   0.356315 0.538384 0.758473 0.089633
C6    C     C_R   0.652631 0.510170 0.240596 0.075522
C7    C     C_R   0.317094 0.470737 0.826499 0.161464
C8    C     C_R   0.663650 0.436237 0.172357 0.162129
C9    C     C_R   0.441481 0.384128 0.854038 -0.000830
C10   C     C_R   0.510698 0.376871 0.145182 -0.003888
C11   C     C_R   0.587447 0.345093 0.812155 -0.286928
C12   C     C_R   0.355811 0.372421 0.187059 -0.275653
H1    H     H_    0.684957 0.284831 0.835580 0.181507
H2    H     H_    0.238205 0.337641 0.163359 0.182488
C13   C     C_R   0.616939 0.393046 0.742166 0.317927
C14   C     C_R   0.347477 0.427375 0.256847 0.309072
C15   C     C_R   0.496141 0.483341 0.713229 -0.181253
C16   C     C_R   0.498577 0.485948 0.286135 -0.169402
N1    N     N_R   0.479038 0.511696 0.966562 -0.172510
N2    N     N_R   0.467417 0.235986 0.033144 -0.170549
N3    N     N_R   0.502810 0.509518 0.035085 -0.170609
N4    N     N_R   0.446167 0.238060 0.963940 -0.171904
C17   C     C_R   0.498789 0.372051 0.069120 0.299827
C18   C     C_R   0.449195 0.376510 0.930206 0.300756
C19   C     C_2   0.556660 0.957331 0.512516 0.026356
C20   C     C_2   0.441032 0.043138 0.484027 0.032960
N5    N     N_2   0.950330 0.457950 0.481240 0.041863
N6    N     N_2   0.049670 0.542050 0.518760 0.047570
C21   C     C_3   0.265294 0.681153 0.738105 -0.399842
C22   C     C_3   0.390763 0.819711 0.716381 -0.685413
H3    H     H_    0.478969 0.846740 0.758431 0.258451
H4    H     H_    0.466633 0.796006 0.665385 0.250916
H5    H     H_    0.318426 0.924259 0.709189 0.280582
H6    H     H_    0.180386 0.651201 0.695459 0.294515
H7    H     H_    0.183606 0.727671 0.783431 0.203477
C23   C     C_3   0.793131 0.629480 0.261288 -0.360165
C24   C     C_3   0.726624 0.788249 0.283560 -0.710491
H8    H     H_    0.629096 0.821284 0.248552 0.263886
H9    H     H_    0.672434 0.785329 0.339756 0.276592
H10   H     H_    0.834173 0.879590 0.280047 0.274916
H11   H     H_    0.855889 0.583617 0.305305 0.307692
H12   H     H_    0.892345 0.655678 0.217106 0.211396
C25   C     C_3   0.144540 0.486092 0.869929 -0.418777
C26   C     C_3   0.052482 0.326595 0.887280 -0.807240
H13   H     H_    0.035299 0.258142 0.837432 0.290937
H14   H     H_    0.123916 0.258924 0.922646 0.260956
H15   H     H_    0.924362 0.343575 0.915350 0.243449
H16   H     H_    0.163111 0.552825 0.920085 0.215769
H17   H     H_    0.053293 0.547168 0.841021 0.226219
C27   C     C_3   0.834098 0.416091 0.128061 -0.418895
C28   C     C_3   0.865333 0.243459 0.114113 -0.799316
H18   H     H_    0.862469 0.181401 0.165381 0.286706
H19   H     H_    0.768261 0.185601 0.081561 0.263435
H20   H     H_    0.993131 0.233397 0.084543 0.244595
H21   H     H_    0.836579 0.477143 0.076578 0.211815
H22   H     H_    0.946332 0.463351 0.154600 0.225823
N7    N     N_R   0.777613 0.360598 0.704005 0.245768
O9    O     O_R   0.835756 0.222839 0.708018 -0.307022
O10   O     O_R   0.884404 0.476686 0.683214 -0.390012
N8    N     N_R   0.182165 0.445117 0.293390 0.206930
O11   O     O_R   0.058563 0.338555 0.286551 -0.382383
O12   O     O_R   0.145658 0.583052 0.317881 -0.372071
N9    N     N_R   0.646320 0.013393 0.572686 0.217022
O13   O     O_R   0.787377 0.953488 0.585450 -0.236992
O14   O     O_R   0.570215 0.098819 0.622278 -0.411635
N10   N     N_R   0.341300 0.988230 0.426299 0.228520
O15   O     O_R   0.213316 0.065046 0.410869 -0.259601
O16   O     O_R   0.396417 0.883573 0.380472 -0.400960
N11   N     N_R   0.982283 0.301152 0.478580 0.323532
O17   O     O_R   0.994474 0.229751 0.537949 -0.255003
O18   O     O_R   0.932723 0.218195 0.424822 -0.276264
N12   N     N_R   0.014166 0.697878 0.523683 0.324402
O19   O     O_R   0.008513 0.774997 0.465327 -0.269029
O20   O     O_R   0.052117 0.775708 0.580648 -0.318752

loop_
_geom_bond_atom_site_label_1
_geom_bond_atom_site_label_2
_geom_bond_distance
_ccdc_geom_bond_type
C6    C16   1.424567 A    
N9    O13   1.297488 A    
C19   C20   1.361688 D    
C13   N7    1.436065 S    
C25   H17   1.105174 S    
C24   H9    1.105062 S    
C25   C26   1.530651 S    
O5    C3    1.308282 A    
N5    N11   1.383365 S    
C4    C16   1.482103 S    
O1    C1    1.275842 A    
C9    C11   1.387851 A    
N10   O16   1.299709 A    
C23   H12   1.103398 S    
O4    Zn1   1.979653 S    
C28   H19   1.107574 S    
C20   N10   1.451023 S    
C23   C24   1.527743 S    
C22   H5    1.110910 S    
N3    C17   1.351457 A    
N8    O11   1.301262 A    
C21   H7    1.104753 S    
C22   H4    1.106202 S    
C27   H22   1.103205 S    
N6    N12   1.382803 S    
N9    O14   1.301934 A    
O2    C2    1.278787 A    
C24   H10   1.111260 S    
C26   H14   1.107601 S    
N7    O9    1.301327 A    
N10   O15   1.297361 A    
O4    C2    1.301266 A    
C6    C23   1.525612 S    
C21   C22   1.529787 S    
N11   O18   1.299375 A    
N1    C18   1.351405 A    
O8    Zn1   1.960486 S    
C27   C28   1.529970 S    
N7    O10   1.300964 A    
N4    C18   1.356752 A    
C28   H20   1.110968 S    
O7    Zn2   1.960482 S    
N5    N6    1.278004 D    
C5    C15   1.427891 A    
C24   H8    1.111136 S    
C3    C15   1.476238 S    
O6    C4    1.308254 A    
O7    C3    1.306699 A    
C5    C21   1.532369 S    
Zn1   N6    2.038104 S    
O3    Zn2   1.979653 S    
O8    C4    1.310044 A    
C10   C17   1.445094 S    
C8    C27   1.530365 S    
C22   H3    1.111060 S    
C10   C12   1.387657 A    
C27   H21   1.110804 S    
N12   O20   1.299343 A    
C11   H1    1.084356 S    
C14   N8    1.429797 S    
C12   H2    1.084601 S    
O1    Zn1   1.957505 S    
C7    C25   1.530731 S    
C5    C7    1.418376 A    
C11   C13   1.385046 A    
C26   H13   1.111007 S    
C19   N9    1.446421 S    
O6    Zn2   1.956351 S    
N2    C17   1.356104 A    
O3    C1    1.304163 A    
C9    C18   1.445887 S    
C25   H16   1.110470 S    
C21   H6    1.106585 S    
C13   C15   1.418698 A    
C14   C16   1.412824 A    
N1    N3    1.322914 A    
Zn2   N5    2.038103 S    
N2    N4    1.331151 A    
C1    C19   1.411632 S    
C7    C9    1.409378 A    
C2    C20   1.415094 S    
C8    C10   1.409475 A    
C23   H11   1.096693 S    
C28   H18   1.111197 S    
O2    Zn2   1.957505 S    
N11   O17   1.301729 A    
O5    Zn1   1.956349 S    
C6    C8    1.419697 A    
N12   O19   1.301716 A    
C12   C14   1.385076 A    
N8    O12   1.300789 A    
C26   H15   1.110953 S    
