data_mof_unit_3163.cif
_audit_creation_date              2012-12-10T17:58:55-0500
_audit_creation_method            fapswitch 2.2
_symmetry_space_group_name_H-M    P1
_symmetry_Int_Tables_number       1
_space_group_crystal_system       triclinic
_cell_length_a                    9.529368
_cell_length_b                    10.798662
_cell_length_c                    13.890744
_cell_angle_alpha                 90.408588
_cell_angle_beta                  84.97923
_cell_angle_gamma                 90.498468
_cell_volume                      1423.85138667

loop_
_atom_site_label
_atom_site_type_symbol
_atom_type_description
_atom_site_fract_x
_atom_site_fract_y
_atom_site_fract_z
_atom_type_partial_charge
C1    C     C_R   0.500956 0.737714 0.497928 0.839164
C2    C     C_R   0.499044 0.262286 0.502072 0.839164
C3    C     C_R   0.498057 0.128488 0.502509 -0.124243
C4    C     C_R   0.501943 0.871512 0.497491 -0.124243
C5    C     C_R   0.477355 0.500467 0.682971 0.836494
C6    C     C_R   0.522645 0.499533 0.317029 0.836493
C7    C     C_R   0.918375 0.581026 0.558001 0.624173
C8    C     C_R   0.081625 0.418974 0.441999 0.624173
C9    C     C_R   0.068207 0.578769 0.558687 -0.215009
C10   C     C_R   0.931793 0.421231 0.441313 -0.215009
C11   C     C_1   0.536298 0.496864 0.214028 -0.126980
C12   C     C_1   0.463702 0.503136 0.785972 -0.126979
C13   C     C_2   0.558859 0.490017 0.022305 0.414593
C14   C     C_2   0.441141 0.509983 0.977695 0.414593
C15   C     C_1   0.452470 0.506130 0.872729 -0.038236
C16   C     C_1   0.547530 0.493870 0.127271 -0.038236
C17   C     C_R   0.608333 0.938763 0.443532 0.258046
C18   C     C_R   0.391666 0.061237 0.556468 0.258045
C19   C     C_R   0.605874 0.066982 0.446962 -0.246138
C20   C     C_R   0.394126 0.933018 0.553038 -0.246138
Cu1   Cu    Cu3+1 0.359340 0.499980 0.500000 1.026557
Cu2   Cu    Cu3+1 0.640660 0.500020 0.500000 1.026557
H1    H     H_    0.120881 0.639254 0.606592 0.155047
H2    H     H_    0.879119 0.360746 0.393408 0.155047
H3    H     H_    0.686805 0.118896 0.404432 0.174386
H4    H     H_    0.313195 0.881104 0.595568 0.174386
N1    N     N_R   0.147930 0.499970 0.499980 -0.208470
N2    N     N_R   0.852070 0.500030 0.500020 -0.208470
O1    O     O_R   0.381260 0.680340 0.500000 -0.601510
O2    O     O_R   0.618740 0.319660 0.500000 -0.601511
O3    O     O_R   0.618830 0.680370 0.500010 -0.512891
O4    O     O_R   0.381170 0.319630 0.499990 -0.512891
O5    O     O_R   0.364420 0.499960 0.637840 -0.580437
O6    O     O_R   0.635580 0.500040 0.362160 -0.580437
O7    O     O_R   0.601990 0.499990 0.637850 -0.523640
O8    O     O_R   0.398010 0.500010 0.362150 -0.523640
O9    O     O_3   0.835940 0.657973 0.619669 -0.549109
C21   C     C_3   0.886889 0.781208 0.615193 -0.275672
H5    H     H_    0.924254 0.809784 0.540297 0.181588
H6    H     H_    0.971511 0.794599 0.664482 0.157033
H7    H     H_    0.799285 0.843702 0.640500 0.204105
O10   O     O_3   0.164059 0.342027 0.380331 -0.549109
C22   C     C_3   0.113111 0.218792 0.384807 -0.275672
H8    H     H_    0.028489 0.205401 0.335519 0.157033
H9    H     H_    0.075746 0.190216 0.459703 0.181589
H10   H     H_    0.200715 0.156298 0.359500 0.204105
O11   O     O_3   0.314744 0.533265 0.034090 -0.588314
C23   C     C_3   0.200503 0.554483 0.978377 -0.267491
H11   H     H_    0.177707 0.471285 0.934515 0.168124
H12   H     H_    0.220161 0.637293 0.931787 0.168743
H13   H     H_    0.105484 0.573228 0.028126 0.190991
O12   O     O_3   0.685256 0.466734 0.965910 -0.588314
C24   C     C_3   0.799496 0.445515 0.021623 -0.267492
H14   H     H_    0.779837 0.362704 0.068212 0.168742
H15   H     H_    0.822293 0.528712 0.065486 0.168124
H16   H     H_    0.894515 0.426769 0.971873 0.190991
Br1   Br    Br    0.753245 0.862170 0.358805 -0.540903
Br2   Br    Br    0.246755 0.137830 0.641195 -0.540903

loop_
_geom_bond_atom_site_label_1
_geom_bond_atom_site_label_2
_ccdc_geom_bond_type
C17   Br1   S    
C22   H8    S    
C3    C19   A    
O9    C21   S    
C13   O12   S    
C11   C16   T    
O11   C23   S    
C12   C15   T    
C2    O2    A    
C1    C4    S    
C23   H12   S    
C2    C3    S    
C7    O9    S    
Cu1   O8    S    
Cu2   N2    S    
C13   C14   D    
C21   H6    S    
Cu2   O7    S    
C22   H9    S    
C14   O11   S    
C20   H4    S    
C23   H13   S    
C5    C12   S    
C19   H3    S    
C4    C17   A    
C5    O7    A    
C1    O1    A    
C23   H11   S    
C17   C19   A    
C6    O8    A    
C18   C20   A    
C24   H15   S    
Cu1   N1    S    
C21   H5    S    
Cu2   O6    S    
C22   H10   S    
C24   H16   S    
Cu1   O5    S    
Cu2   O3    S    
C4    C20   A    
Cu1   O4    S    
C1    O3    A    
O12   C24   S    
C9    N1    A    
C3    C18   A    
C2    O4    A    
C21   H7    S    
O10   C22   S    
C13   C16   S    
C10   N2    A    
C6    C11   S    
C7    C9    A    
C8    N1    A    
C14   C15   S    
C9    H1    S    
Cu2   O2    S    
C10   H2    S    
Cu1   Cu2   S    
Cu1   O1    S    
C18   Br2   S    
C8    C10   A    
C7    N2    A    
C6    O6    A    
C24   H14   S    
C8    O10   S    
C5    O5    A    
