data_mof_unit_3014.cif
_audit_creation_date              2012-12-11T15:53:58-0500
_audit_creation_method            fapswitch 2.2
_symmetry_space_group_name_H-M    P1
_symmetry_Int_Tables_number       1
_space_group_crystal_system       triclinic
_cell_length_a                    10.669227
_cell_length_b                    10.646444
_cell_length_c                    17.033006
_cell_angle_alpha                 80.792504
_cell_angle_beta                  99.315438
_cell_angle_gamma                 118.584268
_cell_volume                      1668.91439425

loop_
_atom_site_label
_atom_site_type_symbol
_atom_type_description
_atom_site_fract_x
_atom_site_fract_y
_atom_site_fract_z
_atom_type_partial_charge
C1    C     C_R   0.384166 0.283981 0.632028 0.533430
C2    C     C_R   0.516101 0.711238 0.735759 0.368666
C3    C     C_R   0.494420 0.725406 0.812139 0.401867
C4    C     C_3   0.096160 0.488505 0.772066 -0.231803
C5    C     C_3   0.120685 0.470693 0.690120 -0.224048
C6    C     C_R   0.400442 0.618234 0.686074 -0.059129
C7    C     C_1   0.850107 0.669529 0.702682 0.009254
C8    C     C_1   0.896997 0.703674 0.769379 0.009399
C9    C     C_1   0.364375 0.233526 0.714398 -0.025141
C10   C     C_1   0.333119 0.186796 0.781551 -0.020474
C11   C     C_1   0.335960 0.663436 0.277651 -0.049431
C12   C     C_R   0.413971 0.620135 0.601723 0.575192
C13   C     C_1   0.323583 0.672721 0.206886 -0.043548
C14   C     C_R   0.834429 0.669557 0.157859 0.027651
C15   C     C_R   0.894253 0.606818 0.220125 -0.038287
C16   C     C_R   0.859393 0.586788 0.295639 0.014684
C17   C     C_R   0.715196 0.709326 0.252559 -0.136922
C18   C     C_R   0.753754 0.732321 0.174964 0.335534
C19   C     C_3   0.903045 0.469166 0.228418 -0.261632
C20   C     C_3   0.865235 0.447256 0.313067 -0.241502
C21   C     C_R   0.760736 0.626978 0.311695 -0.036134
C22   C     C_R   0.337986 0.183063 0.155401 -0.034840
C23   C     C_R   0.781314 0.621321 0.626221 0.547458
C24   C     C_R   0.265085 0.247325 0.179481 -0.004781
C25   C     C_R   0.270130 0.258355 0.258838 -0.040854
C26   C     C_R   0.439258 0.164083 0.292275 0.323754
C27   C     C_R   0.437705 0.156285 0.211250 -0.130445
C28   C     C_3   0.111941 0.220300 0.164450 -0.244084
C29   C     C_3   0.119075 0.233573 0.252412 -0.253687
C30   C     C_R   0.344827 0.203846 0.316808 0.027676
C31   C     C_R   0.947478 0.724799 0.851554 0.548113
C32   C     C_R   0.316506 0.705171 0.898814 0.566408
C33   C     C_R   0.286350 0.118484 0.858362 0.534202
C34   C     C_R   0.353496 0.230748 0.397882 0.586940
C35   C     C_R   0.883368 0.689816 0.081758 0.603838
C36   C     C_R   0.313131 0.700364 0.123767 0.574386
C37   C     C_R   0.287881 0.111761 0.083385 0.544225
C38   C     C_R   0.365334 0.654107 0.360718 0.560272
C39   C     C_R   0.710606 0.588471 0.388962 0.545210
C40   C     C_R   0.355312 0.649694 0.838302 -0.036848
C41   C     C_R   0.252041 0.535972 0.795648 -0.060086
C42   C     C_R   0.274606 0.520148 0.720970 -0.066861
Cr1   Cr    Cr6+3 0.608440 0.389080 0.519680 1.075058
Cr2   Cr    Cr6+3 0.288640 0.400090 0.490760 1.013958
Cr3   Cr    Cr6+3 0.602940 0.710800 0.489510 1.100476
Cr4   Cr    Cr6+3 0.052530 0.947560 0.964210 1.120543
Cr5   Cr    Cr6+3 0.059970 0.626800 0.992920 1.014763
Cr6   Cr    Cr6+3 0.373320 0.938440 0.995370 1.102110
H1    H     H_    0.818236 0.388449 0.189634 0.158879
H2    H     H_    0.759144 0.353750 0.323189 0.210253
H3    H     H_    0.954559 0.453615 0.358893 0.159949
H4    H     H_    0.501176 0.112245 0.194206 0.169386
H5    H     H_    0.034244 0.110216 0.148365 0.192311
H6    H     H_    0.100372 0.308867 0.125085 0.151590
H7    H     H_    0.113377 0.330174 0.264137 0.148021
H8    H     H_    0.048038 0.131504 0.286094 0.162071
H9    H     H_    0.067315 0.575853 0.771152 0.134867
H10   H     H_    0.027224 0.385116 0.805399 0.173602
H11   H     H_    0.066484 0.356823 0.676315 0.174115
H12   H     H_    0.104646 0.547248 0.642103 0.160740
H13   H     H_    0.645302 0.749308 0.265434 0.159326
H14   H     H_    0.013878 0.488368 0.225057 0.147511
O1    O     O_R   0.754020 0.497590 0.609930 -0.521430
O2    O     O_R   0.295080 0.533620 0.397890 -0.514602
O3    O     O_R   0.485280 0.746620 0.388440 -0.478418
O4    O     O_R   0.720550 0.696220 0.420010 -0.499319
O5    O     O_3   0.500010 0.499990 0.499980 -0.339241
O6    O     O_R   0.163320 0.092900 0.874450 -0.504872
O7    O     O_R   0.934650 0.822080 0.882840 -0.417959
O8    O     O_R   0.915520 0.604140 0.893670 -0.513465
O9    O     O_R   0.191760 0.638110 0.923230 -0.530864
O10   O     O_R   0.406180 0.826930 0.920660 -0.420639
O11   O     O_R   0.358620 0.062870 0.901950 -0.493944
O12   O     O_R   0.481420 0.271390 0.600630 -0.468058
O13   O     O_R   0.163910 0.085460 0.050210 -0.515107
O14   O     O_R   0.935200 0.815170 0.045770 -0.441542
O15   O     O_R   0.916120 0.596690 0.069430 -0.532624
O16   O     O_R   0.192310 0.631200 0.086170 -0.521513
O17   O     O_R   0.406770 0.819480 0.096420 -0.451962
O18   O     O_R   0.359170 0.055960 0.064880 -0.513313
O19   O     O_3   0.161940 0.837600 0.984160 -0.303799
O20   O     O_R   0.263810 0.254550 0.589590 -0.499071
O21   O     O_R   0.300820 0.531200 0.560890 -0.518609
O22   O     O_R   0.491480 0.744020 0.564270 -0.425227
O23   O     O_R   0.726290 0.693800 0.583010 -0.461148
O24   O     O_R   0.747830 0.500190 0.434090 -0.499515
O25   O     O_R   0.475680 0.273800 0.437630 -0.449256
O26   O     O_R   0.257620 0.257160 0.413750 -0.523978
F1    F     F_    0.645917 0.798139 0.708135 -0.584159
F2    F     F_    0.523579 0.122029 0.346359 -0.627864
F3    F     F_    0.605392 0.824834 0.855884 -0.550970
F4    F     F_    0.705813 0.806543 0.116717 -0.604687

loop_
_geom_bond_atom_site_label_1
_geom_bond_atom_site_label_2
_ccdc_geom_bond_type
C5    C42   S    
C16   C21   A    
C2    F1    S    
C41   C42   A    
C14   C18   A    
C19   C20   S    
Cr2   O21   S    
Cr4   O14   S    
Cr1   O1    S    
C7    C8    T    
C32   O10   A    
Cr2   O2    S    
C15   C19   S    
C26   C27   A    
C1    O12   A    
Cr6   O17   S    
C28   C29   S    
C20   H3    S    
Cr2   O20   S    
C6    C12   S    
C4    C41   S    
C19   H14   S    
C15   C16   A    
C23   O23   A    
Cr6   O19   S    
C12   O22   A    
C3    F3    S    
Cr4   O7    S    
C20   H2    S    
C17   H13   S    
C31   O8    A    
C4    H9    S    
Cr3   O5    S    
C9    C10   T    
Cr1   O12   S    
C23   O1    A    
C37   O13   A    
C8    C31   S    
C2    C6    A    
Cr6   O10   S    
Cr4   O13   S    
C32   O9    A    
C38   O2    A    
C25   C29   S    
C37   O18   A    
C35   O14   A    
C30   C34   S    
C1    C9    S    
C24   C25   A    
C13   C36   S    
C14   C35   S    
C28   H6    S    
Cr5   O19   S    
C29   H7    S    
C1    O20   A    
C22   C37   S    
C35   O15   A    
C17   C21   A    
C12   O21   A    
C11   C38   S    
Cr3   O23   S    
Cr5   O8    S    
Cr4   O6    S    
Cr4   O19   S    
C19   H1    S    
C21   C39   S    
C38   O3    A    
C16   C20   S    
C17   C18   A    
C34   O26   A    
Cr5   O9    S    
C5    H11   S    
C33   O11   A    
C40   C41   A    
C3    C40   A    
C26   C30   A    
C22   C27   A    
Cr3   O3    S    
C39   O4    A    
C22   C24   A    
Cr3   O22   S    
Cr5   O15   S    
C27   H4    S    
C25   C30   A    
C5    H12   S    
Cr1   O24   S    
Cr6   O11   S    
C24   C28   S    
C4    C5    S    
C36   O17   A    
C28   H5    S    
C29   H8    S    
C26   F2    S    
C39   O24   A    
C18   F4    S    
Cr6   O18   S    
C2    C3    A    
Cr1   O25   S    
C36   O16   A    
C11   C13   T    
C7    C23   S    
C10   C33   S    
C34   O25   A    
C32   C40   S    
C31   O7    A    
Cr1   O5    S    
C6    C42   A    
C4    H10   S    
Cr3   O4    S    
C14   C15   A    
Cr2   O5    S    
Cr5   O16   S    
Cr2   O26   S    
C33   O6    A    
