data_mof_unit_3300.cif
_audit_creation_date              2012-10-26T18:32:02-0400
_audit_creation_method            fapswitch 2.2
_symmetry_space_group_name_H-M    P1
_symmetry_Int_Tables_number       1
_space_group_crystal_system       triclinic
_cell_length_a                    12.413748
_cell_length_b                    13.302677
_cell_length_c                    14.392212
_cell_angle_alpha                 93.446062
_cell_angle_beta                  108.598603
_cell_angle_gamma                 117.059028
_cell_volume                      1945.80211611

loop_
_atom_site_label
_atom_site_type_symbol
_atom_type_description
_atom_site_fract_x
_atom_site_fract_y
_atom_site_fract_z
_atom_type_partial_charge
C1    C     C_R   0.647553 0.713010 0.504100 0.557570
C2    C     C_R   0.163834 0.423518 0.999146 0.050443
C3    C     C_R   0.107025 0.426240 0.069851 0.034981
C4    C     C_R   0.616855 0.513584 0.686034 0.571548
C5    C     C_R   0.287938 0.431781 0.032058 0.087603
C6    C     C_R   0.360300 0.456432 0.135203 -0.123753
C7    C     C_R   0.168708 0.420132 0.168402 0.048986
C8    C     C_R   0.196319 0.959322 0.448254 -0.073576
C9    C     C_R   0.259390 0.162489 0.478720 0.020294
C10   C     C_R   0.710793 0.920364 0.546433 -0.125461
C11   C     C_R   0.804876 0.037078 0.572120 -0.084603
C12   C     C_R   0.830462 0.467043 0.912321 0.035389
C13   C     C_R   0.921095 0.072730 0.556982 0.095552
C14   C     C_R   0.936313 0.990444 0.501424 0.046511
C15   C     C_R   0.836361 0.871255 0.471682 0.001413
C16   C     C_R   0.347245 0.285508 0.487558 0.576697
C17   C     C_R   0.049508 0.019040 0.479415 0.018086
C18   C     C_R   0.072498 0.930272 0.448116 0.044808
C19   C     C_R   0.968564 0.815881 0.411097 0.086942
C20   C     C_R   0.848534 0.790039 0.414216 -0.073144
C21   C     C_R   0.136188 0.131873 0.480266 -0.106235
C22   C     C_R   0.292475 0.075027 0.468269 0.081455
C23   C     C_R   0.795628 0.499992 0.988642 0.052475
C24   C     C_R   0.729508 0.835698 0.503074 0.000516
C25   C     C_R   0.244605 0.619985 0.694664 -0.117660
C26   C     C_R   0.656266 0.358907 0.351706 0.073915
C27   C     C_R   0.733413 0.330767 0.316286 -0.131105
C28   C     C_R   0.377278 0.477323 0.313115 0.558678
C29   C     C_R   0.866777 0.379414 0.374148 -0.106526
C30   C     C_R   0.925618 0.456197 0.469466 0.006527
C31   C     C_R   0.843224 0.483235 0.504774 0.201502
C32   C     C_R   0.064231 0.509096 0.530292 0.015840
C33   C     C_R   0.110776 0.564123 0.632636 0.030235
C34   C     C_R   0.932183 0.438383 0.938527 0.033945
C35   C     C_R   0.025555 0.571185 0.671540 -0.148938
C36   C     C_R   0.905126 0.554145 0.606622 0.114012
C37   C     C_R   0.159813 0.510423 0.495178 0.081290
C38   C     C_R   0.333464 0.622640 0.654914 0.072818
C39   C     C_R   0.678897 0.512065 0.791200 0.015416
C40   C     C_R   0.302181 0.454249 0.204596 -0.000330
C41   C     C_R   0.707838 0.542448 0.966600 -0.091382
C42   C     C_R   0.651528 0.550408 0.868691 -0.094758
C43   C     C_R   0.766165 0.469290 0.813229 -0.111703
C44   C     C_R   0.994752 0.440150 0.041002 0.049428
C45   C     C_R   0.952050 0.467716 0.113615 -0.096752
C46   C     C_R   0.852001 0.494216 0.087011 -0.108416
C47   C     C_R   0.980641 0.417211 0.867506 -0.136290
C48   C     C_R   0.096110 0.413553 0.897883 -0.099219
Cu1   Cu    Cu3+1 0.416420 0.526630 0.522910 0.993923
Cu2   Cu    Cu3+1 0.583580 0.473370 0.477090 0.997534
H1    H     H_    0.220014 0.892898 0.433331 0.178661
H2    H     H_    0.133834 0.407212 0.841177 0.185030
H3    H     H_    0.585595 0.585114 0.853433 0.150315
H4    H     H_    0.781492 0.437334 0.751152 0.136024
H5    H     H_    0.000497 0.476296 0.193041 0.161109
H6    H     H_    0.936734 0.409813 0.788063 0.120553
H7    H     H_    0.821186 0.514285 0.144369 0.153644
H8    H     H_    0.791853 0.099369 0.612431 0.164502
H9    H     H_    0.436315 0.663821 0.703599 0.130459
H10   H     H_    0.065015 0.613964 0.750959 0.140035
H11   H     H_    0.921610 0.353263 0.344311 0.142067
H12   H     H_    0.104413 0.195106 0.475988 0.176683
H13   H     H_    0.684567 0.571455 0.025705 0.143004
H14   H     H_    0.627804 0.896155 0.567878 0.157400
H15   H     H_    0.766356 0.704685 0.372498 0.166108
H16   H     H_    0.280742 0.663168 0.773293 0.111723
H17   H     H_    0.131676 0.466012 0.419344 0.143501
H18   H     H_    0.552894 0.320620 0.305555 0.149051
H19   H     H_    0.689573 0.270935 0.243378 0.134134
H20   H     H_    0.459979 0.472345 0.160548 0.149330
I1    I     I_    0.372786 0.408681 0.932084 -0.406914
I2    I     I_    0.479445 0.103048 0.477737 -0.371660
I3    I     I_    0.981339 0.680260 0.339876 -0.485090
I4    I     I_    0.069743 0.244788 0.645276 -0.388489
I5    I     I_    0.052159 0.293276 0.231570 -0.428684
I6    I     I_    0.914369 0.710068 0.668090 -0.323396
N1    N     N_R   0.290690 0.566960 0.557640 -0.235141
N2    N     N_R   0.709100 0.433710 0.442970 -0.228288
O1    O     O_R   0.545970 0.684450 0.528810 -0.500934
O2    O     O_R   0.687130 0.639470 0.490120 -0.484484
O3    O     O_R   0.519670 0.535100 0.660030 -0.504263
O4    O     O_R   0.660830 0.490120 0.621340 -0.487695
O5    O     O_R   0.312870 0.360530 0.509880 -0.487477
O6    O     O_R   0.454030 0.315550 0.471190 -0.471393
O7    O     O_R   0.339170 0.509880 0.378660 -0.485846
O8    O     O_R   0.480330 0.464900 0.339970 -0.530056

loop_
_geom_bond_atom_site_label_1
_geom_bond_atom_site_label_2
_ccdc_geom_bond_type
C27   C29   A    
C41   C42   A    
C35   C36   A    
Cu2   O6    S    
C45   C46   A    
C12   C23   A    
C2    C48   A    
C26   C27   A    
C26   N2    A    
C9    C16   S    
C12   C43   A    
C3    C7    A    
C42   H3    S    
C5    C6    A    
C9    C22   A    
C28   C40   S    
C16   O6    A    
C18   C19   A    
Cu1   O3    S    
C36   I6    S    
C4    O3    A    
C19   C20   A    
C8    C22   A    
C7    C40   A    
C11   H8    S    
C27   H19   S    
C23   C46   A    
C13   C14   A    
C14   C17   A    
Cu2   N2    S    
C22   I2    S    
C39   C42   A    
C15   C20   A    
C29   H11   S    
C3    C44   A    
Cu1   O7    S    
C20   H15   S    
C19   I3    S    
C34   C44   A    
C7    I5    S    
C10   C24   A    
C37   N1    A    
C16   O5    A    
C17   C21   A    
Cu1   O1    S    
C35   H10   S    
C29   C30   A    
C25   C38   A    
C43   H4    S    
C47   C48   A    
C4    C39   S    
C17   C18   A    
C32   C37   A    
C8    H1    S    
C21   H12   S    
C15   C24   A    
C46   H7    S    
C28   O8    A    
C1    O1    A    
C6    C40   A    
C2    C5    A    
C41   H13   S    
C12   C34   A    
C44   C45   A    
Cu2   O4    S    
C31   N2    A    
C6    H20   S    
C31   C36   A    
C10   H14   S    
C25   H16   S    
Cu2   O2    S    
C39   C43   A    
C38   N1    A    
C23   C41   A    
C26   H18   S    
C32   C33   A    
Cu1   O5    S    
C2    C3    A    
C5    I1    S    
C30   C32   A    
C11   C13   A    
C9    C21   A    
C30   C31   A    
C37   H17   S    
C33   C35   A    
Cu1   N1    S    
C8    C18   A    
C10   C11   A    
Cu2   O8    S    
C38   H9    S    
C48   H2    S    
C4    O4    A    
C13   I4    S    
C45   H5    S    
C1    C24   S    
Cu1   Cu2   S    
C28   O7    A    
C1    O2    A    
C14   C15   A    
C34   C47   A    
C25   C33   A    
C47   H6    S    
