data_mof_unit_3061.cif
_audit_creation_date              2012-12-10T18:43:09-0500
_audit_creation_method            fapswitch 2.2
_symmetry_space_group_name_H-M    P1
_symmetry_Int_Tables_number       1
_space_group_crystal_system       triclinic
_cell_length_a                    10.650857
_cell_length_b                    9.970327
_cell_length_c                    10.671623
_cell_angle_alpha                 89.558841
_cell_angle_beta                  92.748914
_cell_angle_gamma                 89.797671
_cell_volume                      1131.90039857

loop_
_atom_site_label
_atom_site_type_symbol
_atom_type_description
_atom_site_fract_x
_atom_site_fract_y
_atom_site_fract_z
_atom_type_partial_charge
C1    C     C_R   0.260512 0.500324 0.499855 0.837157
C2    C     C_R   0.940552 0.403396 0.571407 -0.213342
C3    C     C_R   0.872429 0.499921 0.501130 0.023616
C4    C     C_R   0.128176 0.501365 0.501583 0.004751
C5    C     C_R   0.931642 0.597926 0.431635 -0.205866
C6    C     C_R   0.060354 0.597870 0.431198 -0.219480
C7    C     C_R   0.557714 0.070840 0.597414 0.304143
C8    C     C_R   0.432748 0.072347 0.409480 0.327507
C9    C     C_R   0.558709 0.926989 0.596525 0.326979
C10   C     C_R   0.443516 0.928643 0.402251 0.309019
C11   C     C_3   0.420647 0.166519 0.977426 0.163820
C12   C     C_R   0.739680 0.499742 0.500675 0.796712
C13   C     C_3   0.427170 0.028098 0.918982 -0.741451
C14   C     C_3   0.191279 0.442919 0.052149 0.079911
C15   C     C_3   0.125798 0.339802 0.966850 -0.893806
C16   C     C_3   0.709860 0.180842 0.719433 0.229456
C17   C     C_3   0.763977 0.159404 0.853024 -0.920458
C18   C     C_3   0.227618 0.133693 0.393857 0.132783
C19   C     C_3   0.126749 0.208579 0.315657 -0.761089
C20   C     C_3   0.740889 0.837380 0.684475 0.161909
C21   C     C_3   0.788914 0.723723 0.770381 -0.812175
C22   C     C_3   0.291474 0.858200 0.255196 0.169628
C23   C     C_R   0.497798 0.499864 0.262785 1.000943
C24   C     C_3   0.266137 0.745218 0.163325 -0.890426
C25   C     C_R   0.493473 0.499662 0.737029 0.950185
C26   C     C_2   0.432653 0.397174 0.934508 0.410410
C27   C     C_2   0.408034 0.428399 0.065186 0.378507
C28   C     C_2   0.465224 0.503701 0.866250 -0.502900
C29   C     C_2   0.497889 0.495601 0.130335 -0.482452
C30   C     C_R   0.069214 0.404760 0.572631 -0.203783
H1    H     H_    0.464450 0.603721 0.906828 0.140658
H2    H     H_    0.396022 0.951658 0.986681 0.197107
H3    H     H_    0.365156 0.023271 0.832436 0.255406
H4    H     H_    0.211951 0.534192 0.995663 0.134227
H5    H     H_    0.123233 0.475004 0.121766 0.163109
H6    H     H_    0.107594 0.246195 0.019442 0.253283
H7    H     H_    0.034479 0.381248 0.929442 0.216921
H8    H     H_    0.183427 0.316551 0.886004 0.266994
H9    H     H_    0.708950 0.290261 0.704730 0.176029
H10   H     H_    0.772757 0.135481 0.650697 0.053130
H11   H     H_    0.755972 0.053102 0.882690 0.263010
H12   H     H_    0.581456 0.533112 0.087251 0.108804
H13   H     H_    0.864547 0.188767 0.858895 0.208448
H14   H     H_    0.712015 0.222309 0.918835 0.264280
H15   H     H_    0.234167 0.173912 0.490341 0.161526
H16   H     H_    0.193955 0.030283 0.406364 0.052987
H17   H     H_    0.112661 0.159801 0.223094 0.227431
H18   H     H_    0.036618 0.206114 0.363757 0.196486
H19   H     H_    0.154597 0.314384 0.302187 0.286684
H20   H     H_    0.794342 0.927204 0.712866 0.118377
H21   H     H_    0.764525 0.815892 0.586316 0.138461
H22   H     H_    0.740995 0.628401 0.745899 0.249467
H23   H     H_    0.122440 0.331177 0.628666 0.142476
H24   H     H_    0.891506 0.709823 0.760736 0.200098
H25   H     H_    0.771665 0.748044 0.869505 0.239237
H26   H     H_    0.261230 0.952458 0.206594 0.171584
H27   H     H_    0.234855 0.837166 0.337504 0.112166
H28   H     H_    0.275095 0.647950 0.213748 0.262904
H29   H     H_    0.168780 0.753987 0.121852 0.188309
H30   H     H_    0.333237 0.748352 0.086958 0.262209
H31   H     H_    0.895593 0.328658 0.626461 0.118083
H32   H     H_    0.878478 0.672139 0.376280 0.142014
H33   H     H_    0.106263 0.670626 0.374281 0.138880
H34   H     H_    0.330190 0.170957 0.024364 0.197178
H35   H     H_    0.500140 0.175745 0.048556 0.146281
H36   H     H_    0.525135 0.003429 0.897201 0.297237
N1    N     N_R   0.500000 0.857200 0.500000 -0.188140
N2    N     N_R   0.500000 0.142810 0.500000 -0.198303
O1    O     O_R   0.316770 0.614620 0.499990 -0.625636
O2    O     O_3   0.298065 0.387863 0.119542 -0.607920
O3    O     O_3   0.585097 0.133967 0.710273 -0.531467
O4    O     O_3   0.344129 0.139661 0.334003 -0.561010
O5    O     O_3   0.610602 0.856988 0.698927 -0.560530
O6    O     O_3   0.420762 0.863372 0.289033 -0.560197
O7    O     O_R   0.683230 0.614620 0.500010 -0.624086
O8    O     O_R   0.316800 0.385290 0.500000 -0.607789
O9    O     O_R   0.683200 0.385290 0.500000 -0.656336
O10   O     O_R   0.500000 0.614630 0.319080 -0.559136
O11   O     O_R   0.500000 0.614630 0.680920 -0.570740
O12   O     O_R   0.500030 0.385300 0.319080 -0.556769
O13   O     O_R   0.499970 0.385300 0.680920 -0.535474
O14   O     O_3   0.425786 0.267886 0.883707 -0.565321
Zn1   Zn    Zn3+2 0.500000 0.653120 0.500000 0.992815
Zn2   Zn    Zn3+2 0.500000 0.346880 0.500000 1.004350

loop_
_geom_bond_atom_site_label_1
_geom_bond_atom_site_label_2
_ccdc_geom_bond_type
N1    Zn1   S    
C29   H12   S    
C27   C29   D    
C10   O6    S    
C13   H2    S    
O12   Zn2   S    
O8    Zn2   S    
C22   H27   S    
C9    N1    A    
C10   N1    A    
C25   C28   S    
C26   C27   S    
C23   C29   S    
C20   H21   S    
C7    O3    S    
C21   H24   S    
C19   H17   S    
C18   C19   S    
C15   H7    S    
C20   H20   S    
C3    C12   S    
C7    N2    A    
O10   Zn1   S    
C16   C17   S    
C5    H32   S    
C23   O12   A    
C2    H31   S    
C26   O14   S    
C25   O13   A    
C14   O2    S    
C16   O3    S    
C9    O5    S    
C18   H16   S    
C13   H36   S    
C11   O14   S    
C18   O4    S    
C30   H23   S    
C8    O4    S    
N2    Zn2   S    
C4    C6    A    
C11   H34   S    
C14   H5    S    
C21   H25   S    
C19   H18   S    
C22   H26   S    
O9    Zn2   S    
C1    O1    A    
C6    H33   S    
C17   H13   S    
C15   H8    S    
C13   H3    S    
O1    Zn1   S    
C19   H19   S    
C24   H30   S    
C12   O9    A    
C27   O2    S    
C16   H10   S    
C8    C10   A    
C8    N2    A    
C22   C24   S    
C22   O6    S    
C18   H15   S    
C15   H6    S    
O13   Zn2   S    
C7    C9    A    
C25   O11   A    
C1    O8    A    
C28   H1    S    
C3    C5    A    
C14   H4    S    
C26   C28   D    
C2    C30   A    
C1    C4    S    
C2    C3    A    
C17   H14   S    
O11   Zn1   S    
C11   C13   S    
O7    Zn1   S    
C5    C6    A    
C24   H29   S    
C20   O5    S    
C23   O10   A    
C17   H11   S    
C16   H9    S    
C20   C21   S    
C24   H28   S    
C12   O7    A    
C14   C15   S    
C21   H22   S    
C4    C30   A    
C11   H35   S    
