data_mof_unit_3785.cif
_audit_creation_date              2012-12-10T16:47:58-0500
_audit_creation_method            fapswitch 2.2
_symmetry_space_group_name_H-M    P1
_symmetry_Int_Tables_number       1
_space_group_crystal_system       triclinic
_cell_length_a                    7.775663
_cell_length_b                    8.57536
_cell_length_c                    10.743531
_cell_angle_alpha                 91.146768
_cell_angle_beta                  85.29924
_cell_angle_gamma                 93.754109
_cell_volume                      712.350155736

loop_
_atom_site_label
_atom_site_type_symbol
_atom_type_description
_atom_site_fract_x
_atom_site_fract_y
_atom_site_fract_z
_atom_type_partial_charge
C1    C     C_R   0.545865 0.794769 0.496923 0.991219
C2    C     C_2   0.570002 0.958310 0.495304 -0.330454
C3    C     C_2   0.792584 0.630698 0.089379 1.008704
C4    C     C_2   0.741026 0.337195 0.883871 0.937335
C5    C     C_2   0.430118 0.041719 0.505400 -0.335415
C6    C     C_R   0.501491 0.499890 0.737077 0.897467
C7    C     C_R   0.454169 0.205244 0.503337 0.978987
C8    C     C_R   0.499890 0.503292 0.262886 0.951473
C9    C     C_2   0.642975 0.524171 0.055946 -0.035438
C10   C     C_2   0.499854 0.489136 0.131403 -0.285472
C11   C     C_2   0.635238 0.469656 0.928693 -0.266656
C12   C     C_2   0.511019 0.527225 0.866714 0.412137
F1    F     F_    0.403977 0.633493 0.921362 -0.618517
H1    H     H_    0.386156 0.428071 0.096035 0.188432
H2    H     H_    0.702063 0.009523 0.485724 0.178517
H3    H     H_    0.298066 0.990500 0.515043 0.179666
H4    H     H_    0.013651 0.381966 0.406396 0.197018
H5    H     H_    0.986310 0.617971 0.593645 0.204041
H6    H     H_    0.882001 0.808529 0.197454 0.346234
H7    H     H_    0.761851 0.142310 0.776317 0.351048
N1    N     N_2   0.950320 0.457950 0.466680 -0.165339
N2    N     N_2   0.049680 0.542050 0.533320 -0.162399
O1    O     O_R   0.389250 0.738570 0.508180 -0.615657
O2    O     O_R   0.771510 0.742531 0.185124 -0.794179
O3    O     O_2   0.878981 0.320151 0.927317 -0.561608
O4    O     O_R   0.678874 0.227053 0.797828 -0.803786
O5    O     O_R   0.678390 0.711630 0.486820 -0.620085
O6    O     O_R   0.355470 0.513470 0.691600 -0.563947
O7    O     O_R   0.644610 0.486520 0.670240 -0.642697
O8    O     O_R   0.321610 0.288370 0.513180 -0.636031
O9    O     O_R   0.610750 0.261430 0.491820 -0.604949
O10   O     O_R   0.355390 0.513480 0.329760 -0.619640
O11   O     O_R   0.644530 0.486530 0.308400 -0.603513
O12   O     O_2   0.932248 0.625776 0.028665 -0.552471
Zn1   Zn    Zn3+2 0.306940 0.517990 0.514260 1.006286
Zn2   Zn    Zn3+2 0.693060 0.482010 0.485740 0.989687

loop_
_geom_bond_atom_site_label_1
_geom_bond_atom_site_label_2
_ccdc_geom_bond_type
C4    O4    S    
C11   C12   D    
C3    C9    S    
O5    Zn2   S    
C9    C10   D    
C1    O5    A    
O11   Zn2   S    
N2    Zn1   S    
C4    O3    D    
C7    O8    A    
N1    N2    D    
C4    C11   S    
N1    Zn2   S    
C2    H2    S    
C9    C11   S    
O7    Zn2   S    
C3    O2    S    
H7    O4    S    
O8    Zn1   S    
C1    O1    A    
O1    Zn1   S    
C8    O11   A    
C6    C12   S    
H4    N1    S    
C2    C5    D    
C7    O9    A    
C8    O10   A    
O10   Zn1   S    
C6    O7    A    
C12   F1    S    
C8    C10   S    
C1    C2    S    
C10   H1    S    
C5    C7    S    
O9    Zn2   S    
C5    H3    S    
C3    O12   D    
H5    N2    S    
H6    O2    S    
C6    O6    A    
O6    Zn1   S    
