data_mof_unit_2562.cif
_audit_creation_date              2012-12-11T15:26:00-0500
_audit_creation_method            fapswitch 2.2
_symmetry_space_group_name_H-M    P1
_symmetry_Int_Tables_number       1
_space_group_crystal_system       triclinic
_cell_length_a                    24.833473
_cell_length_b                    17.239132
_cell_length_c                    15.601721
_cell_angle_alpha                 90.500737
_cell_angle_beta                  50.467316
_cell_angle_gamma                 90.571831
_cell_volume                      5151.14017928

loop_
_atom_site_label
_atom_site_type_symbol
_atom_type_description
_atom_site_fract_x
_atom_site_fract_y
_atom_site_fract_z
_atom_type_partial_charge
C1    C     C_R   0.345625 0.135007 0.770744 -0.108910
C2    C     C_2   0.307964 0.839974 0.973973 -0.212390
C3    C     C_3   0.481506 0.378797 0.836090 -1.019805
C4    C     C_3   0.085777 0.143859 0.652506 0.175448
C5    C     C_3   0.016290 0.122338 0.680529 -0.222920
C6    C     C_3   0.965331 0.087335 0.796518 -1.054788
C7    C     C_3   0.899716 0.740451 0.218445 0.164082
C8    C     C_3   0.876115 0.671541 0.185085 -0.341795
C9    C     C_3   0.917779 0.668007 0.059796 -1.041893
C10   C     C_3   0.821127 0.149954 0.556198 0.174485
C11   C     C_3   0.876937 0.139907 0.568658 -0.245525
C12   C     C_3   0.857480 0.075186 0.650252 -1.017868
C13   C     C_2   0.347284 0.244413 0.876862 -0.215022
C14   C     C_3   0.074929 0.788156 0.796774 0.179210
C15   C     C_3   0.117992 0.725271 0.798364 -0.332634
C16   C     C_3   0.120306 0.739335 0.892695 -1.025244
C17   C     C_2   0.647509 0.752485 0.129178 -0.212879
C18   C     C_2   0.148721 0.746922 0.129965 -0.212335
C19   C     C_2   0.852451 0.248456 0.861164 -0.206948
C20   C     C_2   0.806712 0.661496 0.974008 -0.223999
C21   C     C_2   0.191954 0.340807 0.024383 -0.214225
C22   C     C_2   0.760984 0.153581 0.961896 -0.122049
C23   C     C_2   0.238792 0.843406 0.034140 -0.104976
C24   C     C_2   0.304243 0.289345 0.875514 -0.096940
C25   C     C_R   0.654253 0.865708 0.225760 -0.121688
C26   C     C_2   0.693807 0.710067 0.125255 -0.103428
C27   C     C_2   0.195564 0.789807 0.125442 -0.099707
C28   C     C_2   0.803742 0.206677 0.869461 -0.107009
C29   C     C_2   0.737553 0.656540 0.033635 -0.109910
C30   C     C_2   0.261159 0.344397 0.965006 -0.117476
C31   C     C_R   0.592233 0.140857 0.592105 -0.167108
C32   C     C_R   0.387682 0.897326 0.405177 -0.149813
C33   C     C_R   0.400818 0.129675 0.405182 -0.130949
C34   C     C_R   0.591810 0.860666 0.593900 -0.101309
C35   C     C_R   0.087791 0.643220 0.594679 -0.118567
C36   C     C_R   0.665962 0.109398 0.199511 -0.115993
C37   C     C_R   0.891894 0.384533 0.405339 -0.088333
C38   C     C_R   0.888714 0.603668 0.405667 -0.056207
C39   C     C_R   0.099547 0.367367 0.591556 -0.152226
C40   C     C_R   0.664092 0.142064 0.406612 -0.128465
C41   C     C_R   0.312712 0.894998 0.589369 -0.137000
C42   C     C_R   0.323572 0.127949 0.591761 -0.157229
C43   C     C_R   0.666936 0.861374 0.407835 -0.164177
C44   C     C_R   0.165477 0.641487 0.409974 -0.145494
C45   C     C_R   0.815486 0.386858 0.591615 -0.175436
C46   C     C_R   0.813764 0.607628 0.590620 -0.150941
C47   C     C_R   0.334573 0.887632 0.797464 -0.112510
C48   C     C_R   0.172045 0.366164 0.405128 -0.140423
C49   C     C_R   0.576055 0.109679 0.199584 -0.159018
C50   C     C_R   0.423535 0.889493 0.800243 -0.138008
C51   C     C_R   0.433809 0.133783 0.775309 -0.147857
C52   C     C_R   0.561140 0.862853 0.233309 -0.149582
C53   C     C_R   0.061588 0.636840 0.233672 -0.135059
C54   C     C_R   0.937064 0.361788 0.766009 -0.140503
C55   C     C_R   0.922774 0.610454 0.801463 -0.141049
C56   C     C_R   0.075985 0.389155 0.199681 -0.136402
C57   C     C_R   0.374579 0.173661 0.810706 0.142470
C58   C     C_R   0.834638 0.612480 0.796975 -0.109348
C59   C     C_R   0.621789 0.824322 0.193187 0.151712
C60   C     C_R   0.645749 0.129374 0.137935 0.158699
C61   C     C_R   0.354342 0.867833 0.859724 0.146213
C62   C     C_R   0.853819 0.632478 0.860114 0.153153
C63   C     C_R   0.145428 0.368808 0.138947 0.145743
C64   C     C_R   0.122613 0.675350 0.193648 0.148880
C65   C     C_R   0.878932 0.320151 0.797415 0.133846
C66   C     C_R   0.642469 0.183190 0.499260 0.194723
C67   C     C_R   0.319674 0.879429 0.494760 0.120790
C68   C     C_R   0.341758 0.162964 0.497759 0.195843
C69   C     C_R   0.165443 0.389167 0.201041 -0.112088
C70   C     C_R   0.645769 0.821211 0.500668 0.169362
C71   C     C_R   0.139445 0.686981 0.503284 0.126119
C72   C     C_R   0.827031 0.362478 0.497705 0.164994
C73   C     C_R   0.823132 0.625111 0.495819 0.123874
C74   C     C_R   0.154855 0.330131 0.497417 0.189956
C75   C     C_R   0.236880 0.167095 0.521713 -0.434379
C76   C     C_R   0.759764 0.775509 0.417814 -0.439719
C77   C     C_R   0.743383 0.195138 0.483901 -0.447423
C78   C     C_R   0.196032 0.848868 0.591300 -0.440814
C79   C     C_R   0.704831 0.653710 0.569093 -0.436942
C80   C     C_R   0.154737 0.634319 0.226046 -0.123724
C81   C     C_R   0.261368 0.324684 0.467826 -0.437502
C82   C     C_R   0.227191 0.789488 0.399511 -0.407637
C83   C     C_R   0.725620 0.356021 0.510253 -0.440160
C84   C     C_R   0.659014 0.703507 0.574320 0.593392
C85   C     C_R   0.310523 0.283588 0.463299 0.600811
C86   C     C_R   0.279362 0.828357 0.391677 0.607218
C87   C     C_R   0.676579 0.311654 0.515816 0.606385
C88   C     C_R   0.188871 0.207960 0.523123 0.587412
C89   C     C_R   0.804915 0.723925 0.407465 0.614602
C90   C     C_R   0.788804 0.238542 0.486913 0.589855
C91   C     C_R   0.848625 0.360456 0.761515 -0.120473
C92   C     C_R   0.147922 0.798191 0.600549 0.604614
C93   C     C_R   0.687928 0.764283 0.497510 -0.074438
C94   C     C_R   0.295468 0.205846 0.494966 -0.087918
C95   C     C_R   0.264445 0.854730 0.490869 -0.062008
C96   C     C_R   0.688445 0.231940 0.497925 -0.086844
C97   C     C_R   0.202782 0.286028 0.494676 -0.082015
C98   C     C_R   0.776758 0.666267 0.488988 -0.071346
C99   C     C_R   0.780089 0.318590 0.496663 -0.078070
C100  C     C_R   0.168566 0.761853 0.502432 -0.050109
C101  C     C_3   0.559647 0.687189 0.758717 0.168629
C102  C     C_2   0.691677 0.156386 0.023080 -0.217639
C103  C     C_3   0.525895 0.607643 0.807061 -0.246928
C104  C     C_3   0.492843 0.602514 0.929361 -1.064631
C105  C     C_3   0.411319 0.356716 0.339410 0.204852
C106  C     C_3   0.460138 0.298388 0.246208 -0.333823
C107  C     C_3   0.512738 0.338962 0.134818 -1.001072
C108  C     C_3   0.376953 0.772698 0.227681 0.152479
C109  C     C_3   0.395815 0.719668 0.283899 -0.333195
C110  C     C_3   0.437970 0.649828 0.210749 -0.997794
C111  C     C_3   0.577178 0.387007 0.628190 0.211065
C112  C     C_3   0.531208 0.332790 0.728512 -0.333685
H1    H     H_    0.295940 0.145968 0.791373 0.085449
H2    H     H_    0.410152 0.905869 0.320002 0.164186
H3    H     H_    0.771777 0.168261 0.638566 0.073763
H4    H     H_    0.927718 0.125787 0.486474 0.215474
H5    H     H_    0.883179 0.195238 0.598799 0.199862
H6    H     H_    0.805791 0.086502 0.732272 0.269223
H7    H     H_    0.897290 0.071972 0.661471 0.278941
H8    H     H_    0.855537 0.018538 0.617808 0.272576
H9    H     H_    0.019294 0.777384 0.868886 0.129590
H10   H     H_    0.085146 0.847352 0.812021 0.097874
H11   H     H_    0.094253 0.667454 0.808973 0.192053
H12   H     H_    0.172561 0.724225 0.719217 0.203523
H13   H     H_    0.423138 0.135847 0.319406 0.086046
H14   H     H_    0.148381 0.794465 0.878851 0.261922
H15   H     H_    0.148325 0.691067 0.895733 0.276214
H16   H     H_    0.066754 0.742581 0.973634 0.258558
H17   H     H_    0.566679 0.848795 0.679824 0.094400
H18   H     H_    0.057863 0.656622 0.681386 0.151895
H19   H     H_    0.914065 0.380317 0.319249 0.090422
H20   H     H_    0.910331 0.599019 0.320269 0.098921
H21   H     H_    0.081610 0.361149 0.674915 0.089443
H22   H     H_    0.707991 0.154718 0.321008 0.105077
H23   H     H_    0.265210 0.896159 0.674785 0.091537
H24   H     H_    0.274609 0.132619 0.675302 0.091942
H25   H     H_    0.706703 0.857546 0.195424 0.085252
H26   H     H_    0.712333 0.850310 0.323248 0.094633
H27   H     H_    0.211272 0.652523 0.325946 0.087826
H28   H     H_    0.766988 0.385398 0.676195 0.095888
H29   H     H_    0.766058 0.610528 0.675919 0.098083
H30   H     H_    0.217700 0.357317 0.319348 0.101183
H31   H     H_    0.546846 0.108174 0.169855 0.097333
H32   H     H_    0.451801 0.891511 0.831601 0.086932
H33   H     H_    0.463797 0.144653 0.802197 0.093820
H34   H     H_    0.524832 0.847937 0.219521 0.098243
H35   H     H_    0.025305 0.651728 0.220248 0.117420
H36   H     H_    0.718418 0.107639 0.171551 0.080903
H37   H     H_    0.969129 0.348287 0.787996 0.093580
H38   H     H_    0.950245 0.608386 0.834108 0.099790
H39   H     H_    0.047009 0.389968 0.169551 0.094516
H40   H     H_    0.229331 0.105577 0.540239 0.166601
H41   H     H_    0.781369 0.826482 0.365702 0.158414
H42   H     H_    0.750335 0.132902 0.471243 0.163624
H43   H     H_    0.182628 0.879459 0.662794 0.151357
H44   H     H_    0.684971 0.606208 0.627256 0.153634
H45   H     H_    0.267290 0.386716 0.453294 0.161623
H46   H     H_    0.236311 0.773548 0.324214 0.147753
H47   H     H_    0.282779 0.886534 0.822500 0.082825
H48   H     H_    0.722201 0.418744 0.515575 0.161796
H49   H     H_    0.215338 0.873370 0.004339 0.126328
H50   H     H_    0.785036 0.124362 0.991170 0.133229
H51   H     H_    0.708676 0.725001 0.175551 0.132840
H52   H     H_    0.291798 0.276547 0.821528 0.135862
H53   H     H_    0.786886 0.221376 0.822287 0.128722
H54   H     H_    0.211004 0.775317 0.174740 0.127110
H55   H     H_    0.284649 0.375404 0.994779 0.130803
H56   H     H_    0.714441 0.624661 0.003811 0.127505
H57   H     H_    0.330693 0.809296 0.004708 0.128611
H58   H     H_    0.783122 0.613559 0.821027 0.082249
H59   H     H_    0.668406 0.186359 0.992761 0.131162
H60   H     H_    0.632852 0.737639 0.078553 0.131468
H61   H     H_    0.358780 0.257068 0.932106 0.139634
H62   H     H_    0.868207 0.233848 0.909992 0.137949
H63   H     H_    0.133606 0.761356 0.080181 0.141202
H64   H     H_    0.169355 0.309023 0.993437 0.133211
H65   H     H_    0.828684 0.694923 0.004532 0.147556
H66   H     H_    0.518446 0.732072 0.806091 0.113826
H67   H     H_    0.598139 0.700104 0.771775 0.075389
H68   H     H_    0.484937 0.597324 0.799208 0.210484
H69   H     H_    0.217533 0.389956 0.174632 0.081116
H70   H     H_    0.565826 0.561535 0.759806 0.182867
H71   H     H_    0.533388 0.609866 0.938650 0.271245
H72   H     H_    0.467633 0.544864 0.962719 0.277376
H73   H     H_    0.452483 0.648014 0.978529 0.267414
H74   H     H_    0.443790 0.399794 0.342110 0.141409
H75   H     H_    0.382319 0.390188 0.319876 0.079396
H76   H     H_    0.488944 0.265525 0.266618 0.221478
H77   H     H_    0.428831 0.257005 0.238524 0.183982
H78   H     H_    0.485215 0.371316 0.111655 0.267775
H79   H     H_    0.547097 0.295077 0.069359 0.264255
H80   H     H_    0.207192 0.642808 0.196078 0.083129
H81   H     H_    0.545746 0.379875 0.139254 0.269868
H82   H     H_    0.426230 0.789831 0.145271 0.133475
H83   H     H_    0.346173 0.740352 0.209821 0.091405
H84   H     H_    0.427130 0.752625 0.300117 0.207524
H85   H     H_    0.347517 0.698294 0.364489 0.193143
H86   H     H_    0.407646 0.615348 0.193709 0.270581
H87   H     H_    0.450062 0.612218 0.253914 0.271757
H88   H     H_    0.487885 0.669258 0.130896 0.263550
H89   H     H_    0.542477 0.422945 0.622958 0.143996
H90   H     H_    0.606100 0.428535 0.640870 0.077778
H91   H     H_    0.800734 0.346996 0.776635 0.090012
H92   H     H_    0.500443 0.294256 0.716314 0.222408
H93   H     H_    0.564510 0.296095 0.736094 0.181795
H94   H     H_    0.511494 0.417810 0.849344 0.271411
H95   H     H_    0.450186 0.338303 0.907423 0.264684
H96   H     H_    0.445471 0.413851 0.833017 0.272655
H97   H     H_    0.075647 0.188740 0.713214 0.076061
H98   H     H_    0.107788 0.091072 0.660309 0.108335
H99   H     H_    0.992778 0.175093 0.676074 0.204896
H100  H     H_    0.025538 0.079571 0.618693 0.211392
H101  H     H_    0.986863 0.032936 0.801381 0.275417
H102  H     H_    0.573925 0.150491 0.675150 0.089060
H103  H     H_    0.915123 0.073628 0.814908 0.279782
H104  H     H_    0.955230 0.128991 0.859958 0.261114
H105  H     H_    0.957631 0.741276 0.161765 0.135750
H106  H     H_    0.884277 0.796373 0.205012 0.093527
H107  H     H_    0.882957 0.615859 0.211885 0.199839
H108  H     H_    0.819921 0.677555 0.225759 0.195588
H109  H     H_    0.912590 0.723336 0.029875 0.259448
H110  H     H_    0.897749 0.619702 0.039337 0.274565
H111  H     H_    0.973672 0.657028 0.016898 0.275808
H112  H     H_    0.812458 0.093392 0.531701 0.114564
N1    N     N_R   0.388930 0.078160 0.705470 -0.044321
N2    N     N_R   0.419500 0.922160 0.443350 -0.049111
N3    N     N_R   0.419500 0.077840 0.443350 -0.042925
N4    N     N_R   0.580500 0.922160 0.556650 -0.051491
N5    N     N_R   0.080500 0.577840 0.556650 -0.053019
N6    N     N_R   0.919500 0.422160 0.443350 -0.050010
N7    N     N_R   0.919500 0.577840 0.443350 -0.052590
N8    N     N_R   0.080500 0.422160 0.556650 -0.043655
N9    N     N_R   0.626210 0.077590 0.443410 -0.049741
N10   N     N_R   0.373790 0.922410 0.556590 -0.040278
N11   N     N_R   0.373790 0.077590 0.556590 -0.042372
N12   N     N_R   0.611070 0.921840 0.294530 -0.042395
N13   N     N_R   0.626210 0.922410 0.443410 -0.044307
N14   N     N_R   0.126210 0.577590 0.443410 -0.041949
N15   N     N_R   0.873790 0.422410 0.556590 -0.041301
N16   N     N_R   0.873790 0.577590 0.556590 -0.041699
N17   N     N_R   0.126210 0.422410 0.443410 -0.046709
N18   N     N_R   0.554800 0.077270 0.294580 -0.038988
N19   N     N_R   0.445200 0.922730 0.705420 -0.040875
N20   N     N_R   0.445200 0.077270 0.705420 -0.038293
N21   N     N_R   0.554800 0.922730 0.294580 -0.042313
N22   N     N_R   0.054800 0.577270 0.294580 -0.045989
N23   N     N_R   0.611070 0.078160 0.294530 -0.042856
N24   N     N_R   0.945200 0.422730 0.705420 -0.040757
N25   N     N_R   0.945200 0.577270 0.705420 -0.043247
N26   N     N_R   0.054800 0.422730 0.294580 -0.043029
N27   N     N_R   0.388930 0.921840 0.705470 -0.045019
N28   N     N_R   0.888930 0.578160 0.705470 -0.043256
N29   N     N_R   0.111070 0.421840 0.294530 -0.043933
N30   N     N_R   0.111070 0.578160 0.294530 -0.042336
N31   N     N_R   0.888930 0.421840 0.705470 -0.043989
N32   N     N_R   0.580500 0.077840 0.556650 -0.042824
Ni1   Ni    Ni4+2 0.382710 1.000000 0.629850 0.211119
Ni2   Ni    Ni4+2 0.617290 1.000000 0.370150 0.211891
Ni3   Ni    Ni4+2 0.882710 0.500000 0.629850 0.209841
Ni4   Ni    Ni4+2 0.117290 0.500000 0.370150 0.211689
Ni5   Ni    Ni4+2 0.513020 1.000000 0.629850 0.213021
Ni6   Ni    Ni4+2 0.486980 1.000000 0.370150 0.214988
Ni7   Ni    Ni4+2 0.013020 0.500000 0.629850 0.211395
Ni8   Ni    Ni4+2 0.986980 0.500000 0.370150 0.208614
O1    O     O_3   0.587316 0.690835 0.646499 -0.664406
O2    O     O_3   0.367601 0.319595 0.444410 -0.662393
O3    O     O_3   0.343671 0.842259 0.288383 -0.685926
O4    O     O_3   0.621405 0.344595 0.527409 -0.660009
O5    O     O_3   0.131811 0.172071 0.542483 -0.657013
O6    O     O_3   0.876704 0.735328 0.328215 -0.673881
O7    O     O_3   0.844888 0.205416 0.472407 -0.659568
O8    O     O_3   0.080797 0.784576 0.700201 -0.680650

loop_
_geom_bond_atom_site_label_1
_geom_bond_atom_site_label_2
_ccdc_geom_bond_type
C58   C62   A    
C31   C66   A    
C83   C87   A    
N7    Ni8   S    
C14   H10   S    
N8    Ni7   S    
N10   Ni1   S    
C103  H70   S    
C80   H80   S    
C26   H51   S    
C79   C98   A    
C58   N28   A    
C51   N20   A    
C107  H81   S    
C36   N23   A    
C52   N21   A    
C111  H89   S    
C49   N18   A    
C17   H60   S    
C69   N29   A    
C7    C8    S    
C41   C67   A    
C54   C65   A    
C47   H47   S    
C4    O5    S    
N1    N20   A    
C13   H61   S    
C104  H73   S    
C6    H101  S    
C2    H57   S    
C33   C68   A    
C49   C60   A    
C80   N30   A    
C31   N32   A    
C44   C71   A    
C8    H108  S    
C17   C26   D    
C29   H56   S    
N15   Ni3   S    
N17   Ni4   S    
C111  O4    S    
C1    C57   A    
C39   H21   S    
C5    C6    S    
C92   O8    S    
C53   C64   A    
C14   O8    S    
C78   H43   S    
C13   C57   S    
C41   N10   A    
C51   H33   S    
C15   C16   S    
C3    C112  S    
C55   C62   A    
C76   H41   S    
C53   H35   S    
C91   H91   S    
C4    H98   S    
C108  C109  S    
C43   H26   S    
C42   H24   S    
C103  H68   S    
C42   N11   A    
C39   C74   A    
C9    H109  S    
C53   N22   A    
C101  O1    S    
C101  H66   S    
C43   N13   A    
N9    N32   A    
C79   H44   S    
C12   H8    S    
C7    H106  S    
C109  H85   S    
C9    H110  S    
C36   H36   S    
C83   H48   S    
C111  C112  S    
C25   N12   A    
C8    C9    S    
C56   N26   A    
C55   N25   A    
N14   Ni4   S    
C105  C106  S    
C51   C57   A    
C54   N24   A    
C54   H37   S    
C34   C70   A    
C40   C66   A    
C47   N27   A    
C88   C97   A    
C2    C61   S    
C10   H112  S    
C87   O4    S    
N24   Ni7   S    
C18   H63   S    
N26   N29   A    
C35   C71   A    
C101  C103  S    
C14   H9    S    
C83   C99   A    
N32   Ni5   S    
C45   C72   A    
C42   C68   A    
C110  H86   S    
C64   C80   A    
N6    N15   A    
C37   N6    A    
C1    H1    S    
C86   O3    S    
C22   H50   S    
C60   C102  S    
N21   Ni6   S    
N12   N21   A    
C111  H90   S    
C50   H32   S    
C46   H29   S    
N6    Ni8   S    
C20   C29   D    
N5    Ni7   S    
C73   C98   S    
C5    H99   S    
N31   Ni3   S    
C77   C90   A    
N24   N31   A    
N19   N27   A    
C15   H12   S    
C6    H103  S    
N9    Ni2   S    
C110  H88   S    
N8    N17   A    
C63   C69   A    
C70   C93   S    
C81   H45   S    
C34   H17   S    
C50   N19   A    
C86   C95   A    
N4    N13   A    
C31   H102  S    
C40   N9    A    
N19   Ni5   S    
N22   N30   A    
C24   H52   S    
C78   C92   A    
C105  O2    S    
C82   C86   A    
C40   H22   S    
C45   H28   S    
C68   C94   S    
C4    H97   S    
C89   O6    S    
C13   C24   D    
N7    N16   A    
C35   N5    A    
C90   O7    S    
C38   H20   S    
C105  H74   S    
N28   Ni3   S    
C108  O3    S    
C25   H25   S    
C45   N15   A    
C47   C61   A    
C101  H67   S    
C52   C59   A    
C48   C74   A    
C76   C93   A    
C12   H7    S    
C85   C94   A    
C9    H111  S    
N30   Ni4   S    
C78   C95   A    
N11   Ni1   S    
C21   H64   S    
C87   C96   A    
C2    C23   D    
C33   H13   S    
N18   Ni6   S    
C56   C63   A    
C48   H30   S    
N25   Ni7   S    
C56   H39   S    
C19   C28   D    
C16   H16   S    
C35   H18   S    
N26   Ni8   S    
C38   N7    A    
C15   H11   S    
C28   H53   S    
C17   C59   S    
C32   C67   A    
C12   H6    S    
C19   C65   S    
C108  H83   S    
C104  H72   S    
C67   C95   S    
C32   N2    A    
C44   H27   S    
C23   C27   S    
C10   O7    S    
N13   Ni2   S    
C3    H96   S    
C108  H82   S    
C11   H5    S    
C90   C99   A    
C41   H23   S    
N23   Ni2   S    
N22   Ni8   S    
N4    Ni5   S    
C92   C100  A    
C55   H38   S    
C66   C96   S    
C21   C30   D    
C1    N1    A    
C102  H59   S    
C65   C91   A    
C5    H100  S    
N2    Ni6   S    
N25   N28   A    
C52   H34   S    
C58   H58   S    
C110  H87   S    
C3    H94   S    
C82   C100  A    
C85   O2    S    
C7    O6    S    
C109  H84   S    
C18   C27   D    
C48   N17   A    
C33   N3    A    
C44   N14   A    
C30   H55   S    
C11   C12   S    
C20   H65   S    
C32   H2    S    
C43   C70   A    
C75   H40   S    
N3    N11   A    
C71   C100  S    
C76   C89   A    
C77   C96   A    
N12   Ni2   S    
N18   N23   A    
N2    N10   A    
C11   H4    S    
C89   C98   A    
C3    H95   S    
C105  H75   S    
C19   H62   S    
C106  H76   S    
C39   N8    A    
C112  H93   S    
C109  C110  S    
N27   Ni1   S    
N29   Ni4   S    
C18   C64   S    
C88   O5    S    
C79   C84   A    
C22   C102  D    
C91   N31   A    
C82   H46   S    
C4    C5    S    
C49   H31   S    
C107  H78   S    
C81   C97   A    
C84   O1    S    
C46   N16   A    
C84   C93   A    
N16   Ni3   S    
C20   C62   S    
C34   N4    A    
C16   H15   S    
C24   C30   S    
C21   C63   S    
C10   C11   S    
C10   H3    S    
C27   H54   S    
N1    Ni1   S    
C7    H105  S    
C37   H19   S    
C75   C88   A    
C50   C61   A    
C104  H71   S    
C6    H104  S    
N3    Ni6   S    
C26   C29   S    
C106  C107  S    
C37   C72   A    
C107  H79   S    
C103  C104  S    
C8    H107  S    
C77   H42   S    
C112  H92   S    
C14   C15   S    
C22   C28   S    
N20   Ni5   S    
C25   C59   A    
C106  H77   S    
C36   C60   A    
N5    N14   A    
C16   H14   S    
C72   C99   S    
C46   C73   A    
C81   C85   A    
C74   C97   S    
C75   C94   A    
C69   H69   S    
C23   H49   S    
C38   C73   A    
