data_mof_unit_1829.cif
_audit_creation_date              2013-03-05T16:12:15-0500
_audit_creation_method            fapswitch 2.2
_symmetry_space_group_name_H-M    P1
_symmetry_Int_Tables_number       1
_space_group_crystal_system       triclinic
_cell_length_a                    10.524052
_cell_length_b                    9.8072
_cell_length_c                    19.225978
_cell_angle_alpha                 90.012933
_cell_angle_beta                  90.082479
_cell_angle_gamma                 89.851274
_cell_volume                      1984.33290705

loop_
_atom_site_label
_atom_site_type_symbol
_atom_site_description
_atom_site_fract_x
_atom_site_fract_y
_atom_site_fract_z
_atom_type_partial_charge
O1    O     O_R   0.316770 0.614620 0.500000 -0.613354
O2    O     O_R   0.683230 0.385380 0.500000 -0.604181
O3    O     O_R   0.683230 0.614620 0.500000 -0.601167
O4    O     O_R   0.316770 0.385380 0.500000 -0.609782
C1    C     C_R   0.259698 0.500373 0.509754 0.871130
C2    C     C_R   0.736846 0.499912 0.514651 0.950619
O5    O     O_R   0.499990 0.614700 0.398140 -0.623601
O6    O     O_R   0.500010 0.385300 0.601860 -0.629553
O7    O     O_R   0.500010 0.614700 0.601860 -0.629856
O8    O     O_R   0.499990 0.385300 0.398140 -0.624051
C3    C     C_R   0.500037 0.499988 0.365408 0.945546
C4    C     C_R   0.500232 0.499996 0.634588 0.915129
Zn1   Zn    Zn3+2 0.500000 0.653120 0.500000 0.990238
Zn2   Zn    Zn3+2 0.500000 0.346880 0.500000 0.991237
C5    C     C_R   0.064839 0.377008 0.548696 -0.086495
C6    C     C_R   0.930365 0.625000 0.550730 -0.040691
C7    C     C_R   0.932088 0.376823 0.552718 -0.044907
C8    C     C_R   0.062216 0.627104 0.543461 -0.096843
C9    C     C_R   0.867186 0.500303 0.540381 -0.100657
C10   C     C_R   0.127343 0.501549 0.533299 -0.205534
C11   C     C_R   0.532138 0.071890 0.558557 -0.054083
C12   C     C_R   0.466375 0.928071 0.441660 -0.015614
C13   C     C_R   0.466345 0.072053 0.441666 -0.014126
C14   C     C_R   0.532059 0.928016 0.558566 -0.056173
C15   C     C_R   0.511636 0.623014 0.253541 -0.222001
C16   C     C_R   0.491883 0.376704 0.746355 -0.211640
C17   C     C_R   0.513768 0.622838 0.746410 -0.198628
C18   C     C_R   0.490778 0.376778 0.253498 -0.221159
H1    H     H_    0.517962 0.718625 0.281553 0.194576
H2    H     H_    0.484258 0.281239 0.718310 0.197715
H3    H     H_    0.520369 0.718418 0.718431 0.202742
H4    H     H_    0.483718 0.281245 0.281482 0.193202
C19   C     C_R   0.511178 0.624769 0.181180 0.286474
C20   C     C_R   0.495016 0.374634 0.818679 0.283638
C21   C     C_R   0.513700 0.624553 0.818760 0.276866
C22   C     C_R   0.493453 0.374785 0.181163 0.286655
C23   C     C_R   0.502896 0.499713 0.144902 -0.177940
C24   C     C_R   0.504868 0.499524 0.854995 -0.179840
H5    H     H_    0.557426 0.126002 0.605498 0.183788
H6    H     H_    0.439101 0.873773 0.395059 0.146640
H7    H     H_    0.439023 0.126452 0.395076 0.144564
H8    H     H_    0.557156 0.873851 0.605536 0.183514
N1    N     N_R   0.500000 0.857200 0.500000 -0.097201
N2    N     N_R   0.500000 0.142800 0.500000 -0.095830
C25   C     C_R   0.500683 0.499945 0.289718 -0.157017
C26   C     C_R   0.501800 0.499887 0.710216 -0.137343
N3    N     N_R   0.405607 0.443643 0.034159 -0.086425
N4    N     N_R   0.602720 0.555296 0.965737 -0.081975
N5    N     N_R   0.406119 0.443571 0.965184 -0.089799
N6    N     N_R   0.602202 0.555380 0.034727 -0.085736
C27   C     C_R   0.504663 0.499395 0.930189 0.412485
C28   C     C_R   0.503622 0.499567 0.069712 0.410033
C29   C     C_2   0.138348 0.252083 0.566619 0.446150
H9    H     H_    0.217391 0.258824 0.602807 0.076136
O9    O     O_2   0.115593 0.143110 0.538751 -0.536268
C30   C     C_2   0.860879 0.748170 0.575831 0.453064
H10   H     H_    0.887592 0.849650 0.559161 0.112662
O10   O     O_2   0.774916 0.736711 0.618013 -0.568941
C31   C     C_2   0.862705 0.253437 0.576763 0.459845
H11   H     H_    0.888396 0.152654 0.558478 0.118784
O11   O     O_2   0.776912 0.264013 0.619124 -0.567873
C32   C     C_2   0.130951 0.758425 0.550795 0.449435
H12   H     H_    0.207572 0.767756 0.588354 0.082009
O12   O     O_2   0.106093 0.854485 0.512769 -0.522542
N7    N     N_R   0.515612 0.754008 0.145681 0.233999
O13   O     O_R   0.443820 0.776749 0.091722 -0.278827
O14   O     O_R   0.578340 0.855290 0.172670 -0.300953
N8    N     N_R   0.491453 0.245256 0.854089 0.236971
O15   O     O_R   0.564445 0.222392 0.907551 -0.274195
O16   O     O_R   0.428135 0.144025 0.827463 -0.308161
N9    N     N_R   0.518826 0.753771 0.854273 0.233188
O17   O     O_R   0.446780 0.777160 0.907950 -0.281903
O18   O     O_R   0.582259 0.854569 0.827426 -0.289221
N10   N     N_R   0.490025 0.245427 0.145701 0.234197
O19   O     O_R   0.563239 0.222560 0.092440 -0.278807
O20   O     O_R   0.426575 0.144212 0.172122 -0.302337

loop_
_geom_bond_atom_site_label_1
_geom_bond_atom_site_label_2
_geom_bond_distance
_ccdc_geom_bond_type
C14   H8    1.079926 S    
O3    C2    1.288286 A    
C19   N7    1.440568 S    
N3    N5    1.326129 A    
C1    C10   1.465259 S    
C29   H9    1.085830 S    
O5    C3    1.288926 A    
C2    C9    1.457523 S    
N10   O20   1.301502 A    
O1    C1    1.286558 A    
C5    C29   1.487530 S    
C22   C23   1.413582 A    
N7    O14   1.301491 A    
C30   H10   1.083559 S    
O7    Zn1   1.994360 S    
C32   O12   1.220207 D    
C16   C20   1.391000 A    
N4    C27   1.354002 A    
N8    O15   1.301462 A    
N5    C27   1.353903 A    
N6    C28   1.354063 A    
O3    Zn1   1.963977 S    
N4    N6    1.326425 A    
C21   N9    1.440460 S    
C31   H11   1.082756 S    
O2    C2    1.289218 A    
C29   O9    1.219545 D    
C15   H1    1.083377 S    
C5    C10   1.420218 A    
C18   C25   1.398180 A    
C31   O11   1.221008 D    
N10   O19   1.301463 A    
C17   H3    1.083294 S    
C18   H4    1.083273 S    
C21   C24   1.413738 A    
C4    C26   1.454085 S    
O8    Zn2   1.994360 S    
C20   N8    1.440668 S    
N9    O18   1.301516 A    
C23   C28   1.445639 S    
C8    C32   1.485353 S    
C24   C27   1.445682 S    
C17   C21   1.391108 A    
C19   C23   1.413597 A    
C13   N2    1.365454 A    
C6    C30   1.490965 S    
C32   H12   1.085691 S    
C11   N2    1.365097 A    
C12   N1    1.365415 A    
C11   H5    1.080173 S    
O6    C4    1.288764 A    
C12   H6    1.080975 S    
C22   N10   1.440614 S    
C7    C31   1.488952 S    
C17   C26   1.397926 A    
N8    O16   1.301519 A    
C16   H2    1.083401 S    
C3    C25   1.455257 S    
O1    Zn1   1.965902 S    
C15   C25   1.398261 A    
Zn1   N1    2.001453 S    
Zn2   N2    2.001453 S    
C5    C7    1.399330 A    
O6    Zn2   1.994193 S    
C20   C24   1.413685 A    
O4    C1    1.290146 A    
N3    C28   1.353808 A    
C13   H7    1.080882 S    
N9    O17   1.301443 A    
C6    C9    1.407464 A    
C7    C9    1.408782 A    
C30   O10   1.221252 D    
C8    C10   1.421288 A    
O4    Zn2   1.963978 S    
O2    Zn2   1.965901 S    
O7    C4    1.289063 A    
O8    C3    1.288968 A    
C16   C26   1.397987 A    
O5    Zn1   1.994193 S    
C18   C22   1.391169 A    
C6    C8    1.395032 A    
N7    O13   1.301453 A    
C11   C14   1.411001 A    
C14   N1    1.365209 A    
C12   C13   1.412056 A    
C15   C19   1.391325 A    
