data_mof_unit_3117.cif
_audit_creation_date              2012-12-10T16:56:34-0500
_audit_creation_method            fapswitch 2.2
_symmetry_space_group_name_H-M    P1
_symmetry_Int_Tables_number       1
_space_group_crystal_system       triclinic
_cell_length_a                    7.82873
_cell_length_b                    8.609059
_cell_length_c                    15.723213
_cell_angle_alpha                 91.382011
_cell_angle_beta                  86.540341
_cell_angle_gamma                 92.555712
_cell_volume                      1056.48566628

loop_
_atom_site_label
_atom_site_type_symbol
_atom_type_description
_atom_site_fract_x
_atom_site_fract_y
_atom_site_fract_z
_atom_type_partial_charge
C1    C     C_R   0.543879 0.793702 0.495971 0.889765
C2    C     C_3   0.380598 0.396782 0.029272 0.326733
C3    C     C_1   0.508953 0.498004 0.749938 -0.107920
C4    C     C_1   0.491047 0.501995 0.250062 -0.107861
C5    C     C_3   0.349030 0.535315 0.973429 0.307522
C6    C     C_3   0.650971 0.464683 0.026570 0.307557
C7    C     C_3   0.507332 0.495401 0.915643 -0.017307
C8    C     C_3   0.492669 0.504597 0.084357 -0.017327
C9    C     C_1   0.510498 0.496432 0.824973 0.191923
C10   C     C_1   0.489502 0.503566 0.175027 0.191965
C11   C     C_2   0.415792 0.805499 0.056916 0.477255
C12   C     C_R   0.456121 0.206298 0.504028 0.889516
C13   C     C_2   0.584205 0.194498 0.943084 0.477177
C14   C     C_2   0.021814 0.402202 0.398568 0.750864
C15   C     C_2   0.978076 0.597849 0.601398 0.751217
C16   C     C_R   0.502927 0.499945 0.661590 0.893632
C17   C     C_R   0.497073 0.500055 0.338410 0.893428
C18   C     C_2   0.561342 0.955180 0.482020 0.212932
C19   C     C_2   0.438659 0.044820 0.517979 0.212841
C20   C     C_3   0.460892 0.644561 0.028372 -0.250786
C21   C     C_3   0.539109 0.355436 0.971628 -0.250803
C22   C     C_3   0.619402 0.603216 0.970728 0.326770
H1    H     H_    0.796815 0.759018 0.988647 0.352151
H2    H     H_    0.947332 0.518124 0.653056 0.019050
H3    H     H_    0.203180 0.240984 0.011353 0.352139
H4    H     H_    0.389830 0.890169 0.009951 0.091833
H5    H     H_    0.610162 0.109826 0.990048 0.091842
H6    H     H_    0.879709 0.396780 0.005632 0.364609
H7    H     H_    0.120250 0.603107 0.994381 0.364656
H8    H     H_    0.758291 0.928036 0.400561 0.362806
H9    H     H_    0.241710 0.071955 0.599445 0.362777
H10   H     H_    0.053479 0.482109 0.347098 0.019398
N1    N     N_2   0.950320 0.457950 0.477300 -0.197139
N2    N     N_2   0.049680 0.542050 0.522700 -0.197451
O1    O     O_R   0.389250 0.738570 0.505570 -0.554800
O2    O     O_3   0.253660 0.291384 0.061908 -0.704694
O3    O     O_2   0.407062 0.841841 0.132472 -0.541686
O4    O     O_2   0.592941 0.158158 0.867527 -0.541686
O5    O     O_3   0.809186 0.430419 0.056658 -0.720575
O6    O     O_3   0.190816 0.569584 0.943343 -0.720618
O7    O     O_3   0.690451 0.014152 0.425603 -0.718747
O8    O     O_3   0.309551 0.985849 0.574398 -0.719148
O9    O     O_2   0.038741 0.263075 0.386620 -0.535083
O10   O     O_2   0.959651 0.736866 0.613033 -0.535347
O11   O     O_R   0.610750 0.261430 0.494430 -0.554478
O12   O     O_R   0.678390 0.711630 0.491020 -0.631425
O13   O     O_R   0.321610 0.288370 0.508980 -0.632042
O14   O     O_R   0.355460 0.513480 0.630490 -0.624689
O15   O     O_R   0.644540 0.486520 0.369510 -0.624375
O16   O     O_R   0.644600 0.486540 0.615950 -0.653499
O17   O     O_R   0.355400 0.513460 0.384050 -0.653915
O18   O     O_3   0.746340 0.708614 0.938092 -0.704715
Zn1   Zn    Zn3+2 0.306940 0.517990 0.509710 1.017564
Zn2   Zn    Zn3+2 0.693060 0.482010 0.490290 1.018195

loop_
_geom_bond_atom_site_label_1
_geom_bond_atom_site_label_2
_ccdc_geom_bond_type
C15   O10   D    
H8    O7    S    
C3    C9    T    
H9    O8    S    
O1    Zn1   S    
C7    C22   S    
C15   N2    S    
O12   Zn2   S    
C11   H4    S    
C19   O8    S    
O13   Zn1   S    
C14   O9    D    
C17   O17   A    
C14   N1    S    
N1    N2    D    
C13   O4    D    
C13   C21   S    
C5    C20   S    
O16   Zn2   S    
C16   O14   A    
H1    O18   S    
C8    C20   S    
C2    C21   S    
C12   O13   A    
C4    C17   S    
C12   C19   S    
C22   O18   S    
C15   H2    S    
C16   O16   A    
O11   Zn2   S    
O14   Zn1   S    
C1    O12   A    
C11   C20   S    
C5    O6    S    
C2    C5    S    
H3    O2    S    
C4    C10   T    
O15   Zn2   S    
C6    C22   S    
C7    C9    S    
C2    O2    S    
H7    O6    S    
N2    Zn1   S    
C5    C7    S    
C18   C19   D    
C18   O7    S    
C17   O15   A    
N1    Zn2   S    
C11   O3    D    
C1    O1    A    
C1    C18   S    
C6    O5    S    
C13   H5    S    
C6    C8    S    
H6    O5    S    
C7    C21   S    
C6    C21   S    
C14   H10   S    
C8    C10   S    
C2    C8    S    
C3    C16   S    
C20   C22   S    
C12   O11   A    
O17   Zn1   S    
