data_mof_unit_4784.cif
_audit_creation_date              2013-03-05T15:39:55-0500
_audit_creation_method            fapswitch 2.2
_symmetry_space_group_name_H-M    P1
_symmetry_Int_Tables_number       1
_space_group_crystal_system       triclinic
_cell_length_a                    17.444128
_cell_length_b                    17.275285
_cell_length_c                    17.564313
_cell_angle_alpha                 90.353305
_cell_angle_beta                  89.986718
_cell_angle_gamma                 90.210672
_cell_volume                      5292.90929235

loop_
_atom_site_label
_atom_site_type_symbol
_atom_site_description
_atom_site_fract_x
_atom_site_fract_y
_atom_site_fract_z
_atom_type_partial_charge
C1    C     C_R   0.606192 0.305037 0.104211 -0.081291
C2    C     C_R   0.695022 0.608091 0.101900 -0.084872
C3    C     C_R   0.418694 0.675285 0.138290 -0.091830
C4    C     C_R   0.304643 0.390343 0.098956 -0.062816
C5    C     C_R   0.586993 0.679290 0.866361 -0.045382
C6    C     C_R   0.687952 0.402674 0.878821 -0.037557
C7    C     C_R   0.413255 0.320674 0.865582 -0.047182
C8    C     C_R   0.311255 0.597877 0.880487 -0.060822
C9    C     C_R   0.105898 0.805402 0.605309 -0.081321
C10   C     C_R   0.194848 0.108295 0.602122 -0.087342
C11   C     C_R   0.893228 0.195433 0.603389 -0.088672
C12   C     C_R   0.805361 0.892845 0.603487 -0.086219
C13   C     C_R   0.085058 0.176839 0.363725 -0.051069
C14   C     C_R   0.194880 0.891467 0.398558 -0.060010
C15   C     C_R   0.915880 0.822131 0.364022 -0.062899
C16   C     C_R   0.811093 0.098345 0.380801 -0.036030
H1    H     H_    0.580185 0.248275 0.103495 0.216914
H2    H     H_    0.751423 0.582811 0.098488 0.210472
H3    H     H_    0.454506 0.724251 0.152913 0.204174
H4    H     H_    0.247726 0.412608 0.089860 0.209443
H5    H     H_    0.554391 0.729662 0.852201 0.205064
H6    H     H_    0.742067 0.430914 0.870666 0.216316
H7    H     H_    0.445846 0.270251 0.851032 0.206368
H8    H     H_    0.256640 0.570232 0.873378 0.208212
H9    H     H_    0.079895 0.748630 0.604942 0.225439
H10   H     H_    0.251406 0.083488 0.598551 0.213042
H11   H     H_    0.919084 0.252267 0.602124 0.217784
H12   H     H_    0.748908 0.918050 0.600569 0.212394
H13   H     H_    0.052405 0.227119 0.349311 0.209150
H14   H     H_    0.251890 0.914270 0.406252 0.226564
H15   H     H_    0.951204 0.773276 0.349013 0.205082
H16   H     H_    0.756333 0.070911 0.373924 0.219035
N1    N     N_R   0.574080 0.369570 0.076720 -0.083006
N2    N     N_R   0.630430 0.574080 0.076720 -0.082097
N3    N     N_R   0.425920 0.630430 0.076720 -0.082585
N4    N     N_R   0.369570 0.425920 0.076720 -0.088716
N5    N     N_R   0.574080 0.630430 0.923280 -0.085508
N6    N     N_R   0.630430 0.425920 0.923280 -0.087614
N7    N     N_R   0.425920 0.369570 0.923280 -0.086145
N8    N     N_R   0.369570 0.574080 0.923280 -0.085497
N9    N     N_R   0.074080 0.869570 0.576720 -0.084059
N10   N     N_R   0.130430 0.074080 0.576720 -0.081637
N11   N     N_R   0.925920 0.130430 0.576720 -0.083692
N12   N     N_R   0.869570 0.925920 0.576720 -0.083436
N13   N     N_R   0.074080 0.130430 0.423280 -0.086588
N14   N     N_R   0.130430 0.925920 0.423280 -0.085858
N15   N     N_R   0.925920 0.869570 0.423280 -0.083040
N16   N     N_R   0.869570 0.074080 0.423280 -0.088464
C17   C     C_R   0.604518 0.698048 0.096305 0.471976
C18   C     C_R   0.324355 0.587079 0.136905 0.496536
C19   C     C_R   0.396159 0.301828 0.096467 0.505651
C20   C     C_R   0.696526 0.395928 0.097863 0.509104
C21   C     C_R   0.599362 0.309644 0.882528 0.459620
C22   C     C_R   0.318514 0.407302 0.869583 0.461814
C23   C     C_R   0.400197 0.690619 0.884131 0.473179
C24   C     C_R   0.682027 0.592898 0.870432 0.468941
C25   C     C_R   0.104037 0.198009 0.596918 0.508133
C26   C     C_R   0.803122 0.104344 0.596717 0.506845
C27   C     C_R   0.896025 0.802776 0.598589 0.512378
C28   C     C_R   0.196212 0.896506 0.599452 0.499088
C29   C     C_R   0.103714 0.802240 0.401225 0.468434
C30   C     C_R   0.819952 0.907934 0.367987 0.477796
C31   C     C_R   0.900023 0.190969 0.384731 0.458626
C32   C     C_R   0.178088 0.088376 0.365373 0.493078
N17   N     N_R   0.574050 0.630410 0.076720 -0.108701
N18   N     N_R   0.369590 0.574050 0.076720 -0.108545
N19   N     N_R   0.425950 0.369590 0.076720 -0.104678
N20   N     N_R   0.630410 0.425950 0.076720 -0.105185
N21   N     N_R   0.574050 0.369590 0.923280 -0.101495
N22   N     N_R   0.369590 0.425950 0.923280 -0.107776
N23   N     N_R   0.425950 0.630410 0.923280 -0.096266
N24   N     N_R   0.630410 0.574050 0.923280 -0.103952
N25   N     N_R   0.074050 0.130410 0.576720 -0.105062
N26   N     N_R   0.869590 0.074050 0.576720 -0.105364
N27   N     N_R   0.925950 0.869590 0.576720 -0.104558
N28   N     N_R   0.130410 0.925950 0.576720 -0.105941
N29   N     N_R   0.074050 0.869590 0.423280 -0.106620
N30   N     N_R   0.869590 0.925950 0.423280 -0.104243
N31   N     N_R   0.925950 0.130410 0.423280 -0.102013
N32   N     N_R   0.130410 0.074050 0.423280 -0.107239
Ni1   Ni    Ni4+2 0.500000 0.370760 0.000000 0.312167
Ni2   Ni    Ni4+2 0.629240 0.500000 0.000000 0.305827
Ni3   Ni    Ni4+2 0.500000 0.629240 0.000000 0.325320
Ni4   Ni    Ni4+2 0.370760 0.500000 0.000000 0.296247
Ni5   Ni    Ni4+2 1.000000 0.870760 0.500000 0.311018
Ni6   Ni    Ni4+2 0.129240 0.000000 0.500000 0.294704
Ni7   Ni    Ni4+2 0.000000 0.129240 0.500000 0.311820
Ni8   Ni    Ni4+2 0.870760 0.000000 0.500000 0.304925
C33   C     C_R   0.682624 0.320891 0.118633 0.009890
C34   C     C_R   0.679874 0.685627 0.114966 0.038148
C35   C     C_R   0.356840 0.647782 0.178326 0.053972
C36   C     C_R   0.320355 0.313476 0.113651 0.027332
C37   C     C_R   0.652060 0.654645 0.830689 0.057737
C38   C     C_R   0.667617 0.331977 0.850358 0.043418
C39   C     C_R   0.348607 0.345481 0.829368 0.065650
C40   C     C_R   0.331369 0.668628 0.852903 0.045173
C41   C     C_R   0.182199 0.821528 0.620280 0.013541
C42   C     C_R   0.179378 0.185716 0.615558 0.017999
C43   C     C_R   0.816495 0.179884 0.616863 0.008359
C44   C     C_R   0.821030 0.815906 0.618103 0.021118
C45   C     C_R   0.147836 0.149825 0.325045 0.047919
C46   C     C_R   0.179233 0.814607 0.383153 0.043817
C47   C     C_R   0.851524 0.847027 0.326985 0.056685
C48   C     C_R   0.831026 0.169433 0.353639 0.041273
C49   C     C_2   0.719426 0.652980 0.710573 0.264728
C50   C     C_2   0.334312 0.727458 0.729750 0.252456
C51   C     C_2   0.283314 0.348422 0.707840 0.263907
C52   C     C_2   0.663360 0.275958 0.724861 0.254342
C53   C     C_2   0.800132 0.287560 0.185275 0.326284
C54   C     C_2   0.279540 0.189314 0.168333 0.318769
C55   C     C_2   0.287052 0.648682 0.298685 0.256717
C56   C     C_2   0.720377 0.809862 0.170074 0.335690
C57   C     C_2   0.215291 0.149370 0.203442 0.264012
C58   C     C_2   0.834393 0.227581 0.229875 0.257735
C59   C     C_2   0.784441 0.849324 0.206092 0.256977
C60   C     C_2   0.221652 0.689996 0.330001 0.333484
C61   C     C_2   0.299702 0.788019 0.686466 0.333274
C62   C     C_2   0.782680 0.692834 0.674866 0.328887
C63   C     C_2   0.696700 0.215364 0.679468 0.328349
C64   C     C_2   0.219517 0.310126 0.670505 0.330103
C65   C     C_2   0.686918 0.692822 0.767621 -0.256249
C66   C     C_2   0.294425 0.706766 0.791673 -0.252504
C67   C     C_2   0.314244 0.307897 0.764965 -0.252748
C68   C     C_2   0.703621 0.294459 0.787528 -0.252501
C69   C     C_2   0.739905 0.265919 0.142368 -0.289531
C70   C     C_2   0.263431 0.253488 0.128281 -0.298365
C71   C     C_2   0.324086 0.686654 0.243328 -0.261333
C72   C     C_2   0.736794 0.745290 0.130062 -0.312762
C73   C     C_2   0.182462 0.188244 0.261124 -0.242306
C74   C     C_2   0.794421 0.207866 0.292151 -0.251673
C75   C     C_2   0.817851 0.809210 0.262142 -0.268431
C76   C     C_2   0.236595 0.755032 0.370000 -0.319983
C77   C     C_2   0.239653 0.766593 0.643267 -0.306883
C78   C     C_2   0.764890 0.756343 0.634611 -0.305080
C79   C     C_2   0.758579 0.235643 0.638345 -0.291088
C80   C     C_2   0.236119 0.245509 0.630649 -0.301634
H17   H     H_    0.696716 0.754776 0.774414 0.173201
H18   H     H_    0.235685 0.725805 0.800719 0.181303
H19   H     H_    0.303004 0.246191 0.770872 0.172324
H20   H     H_    0.761973 0.274040 0.795785 0.181071
H21   H     H_    0.727304 0.204724 0.133669 0.189391
H22   H     H_    0.204126 0.266509 0.114210 0.180528
H23   H     H_    0.317029 0.748898 0.237107 0.177379
H24   H     H_    0.796159 0.731832 0.116430 0.176351
H25   H     H_    0.192524 0.250091 0.268366 0.175748
H26   H     H_    0.735890 0.227587 0.301055 0.181985
H27   H     H_    0.808490 0.747145 0.267543 0.175113
H28   H     H_    0.295332 0.768402 0.386484 0.178092
H29   H     H_    0.227632 0.705475 0.633254 0.191391
H30   H     H_    0.705305 0.768510 0.620876 0.183273
H31   H     H_    0.772267 0.296599 0.630353 0.189557
H32   H     H_    0.295594 0.231892 0.617621 0.182388
Cl1   Cl    Cl    0.568265 0.784801 0.058563 -0.506633
Cl2   Cl    Cl    0.230002 0.552892 0.146137 -0.528029
Cl3   Cl    Cl    0.433135 0.214950 0.058948 -0.523363
Cl4   Cl    Cl    0.783849 0.430565 0.060742 -0.549291
Cl5   Cl    Cl    0.572643 0.212585 0.896693 -0.501997
Cl6   Cl    Cl    0.220108 0.428094 0.874320 -0.545983
Cl7   Cl    Cl    0.427670 0.787484 0.899380 -0.479881
Cl8   Cl    Cl    0.780474 0.572610 0.876351 -0.522424
Cl9   Cl    Cl    0.068061 0.284708 0.559038 -0.516142
Cl10  Cl    Cl    0.716823 0.068889 0.557538 -0.550636
Cl11  Cl    Cl    0.931010 0.714242 0.563428 -0.501567
Cl12  Cl    Cl    0.284566 0.932624 0.566209 -0.577258
Cl13  Cl    Cl    0.066728 0.713685 0.434125 -0.519006
Cl14  Cl    Cl    0.721379 0.928270 0.370889 -0.516438
Cl15  Cl    Cl    0.928046 0.287625 0.400334 -0.498415
Cl16  Cl    Cl    0.272802 0.055293 0.358321 -0.520400
N33   N     N_R   0.704298 0.572230 0.694877 0.266169
O1    O     O_R   0.638353 0.541584 0.712263 -0.306005
O2    O     O_R   0.751012 0.532939 0.651866 -0.277462
N34   N     N_R   0.410181 0.699986 0.711418 0.255409
O3    O     O_R   0.430707 0.629899 0.728710 -0.319322
O4    O     O_R   0.454065 0.740335 0.666627 -0.295169
N35   N     N_R   0.300532 0.428824 0.693429 0.267840
O5    O     O_R   0.366669 0.458053 0.712694 -0.301748
O6    O     O_R   0.255762 0.469078 0.649749 -0.274258
N36   N     N_R   0.587650 0.304701 0.708160 0.257824
O7    O     O_R   0.567670 0.374202 0.728951 -0.318720
O8    O     O_R   0.543269 0.266390 0.661691 -0.291294
N37   N     N_R   0.811541 0.365363 0.212905 0.267037
O9    O     O_R   0.757377 0.399396 0.251421 -0.347944
O10   O     O_R   0.881019 0.392504 0.218054 -0.219856
N38   N     N_R   0.353470 0.176147 0.202105 0.273058
O11   O     O_R   0.383671 0.228682 0.246404 -0.332801
O12   O     O_R   0.380615 0.106163 0.204141 -0.203128
N39   N     N_R   0.299287 0.567978 0.315393 0.278241
O13   O     O_R   0.363730 0.534698 0.297592 -0.336769
O14   O     O_R   0.251424 0.531268 0.359195 -0.251526
N40   N     N_R   0.646188 0.823395 0.203424 0.272568
O15   O     O_R   0.615551 0.771200 0.247202 -0.349749
O16   O     O_R   0.619027 0.893393 0.205587 -0.208032
N41   N     N_R   0.199501 0.069078 0.186268 0.275768
O17   O     O_R   0.134188 0.037952 0.205125 -0.315373
O18   O     O_R   0.244947 0.030726 0.141137 -0.256077
N42   N     N_R   0.910008 0.199200 0.211810 0.256389
O19   O     O_R   0.929913 0.129130 0.229833 -0.327211
O20   O     O_R   0.954211 0.238607 0.166531 -0.293053
N43   N     N_R   0.799358 0.930254 0.192010 0.267045
O21   O     O_R   0.864811 0.961193 0.211006 -0.322754
O22   O     O_R   0.753283 0.969467 0.148749 -0.277631
N44   N     N_R   0.149132 0.676445 0.293047 0.275215
O23   O     O_R   0.120115 0.729224 0.249135 -0.338088
O24   O     O_R   0.121455 0.606498 0.289518 -0.200753
N45   N     N_R   0.309932 0.865182 0.716314 0.269954
O25   O     O_R   0.254648 0.897974 0.754297 -0.344502
O26   O     O_R   0.379077 0.892706 0.723606 -0.218805
N46   N     N_R   0.856706 0.681735 0.709345 0.271688
O27   O     O_R   0.886428 0.736282 0.751571 -0.344678
O28   O     O_R   0.884455 0.612153 0.714225 -0.209913
N47   N     N_R   0.683126 0.137928 0.706137 0.268277
O29   O     O_R   0.734874 0.103811 0.747322 -0.348624
O30   O     O_R   0.613179 0.111624 0.707841 -0.219346
N48   N     N_R   0.145140 0.324038 0.703234 0.272874
O31   O     O_R   0.114190 0.272255 0.747267 -0.340066
O32   O     O_R   0.118412 0.394217 0.705083 -0.208796

loop_
_geom_bond_atom_site_label_1
_geom_bond_atom_site_label_2
_geom_bond_distance
_ccdc_geom_bond_type
N16   Ni8   1.864276 S    
C4    N4    1.345616 A    
N40   O15   1.301817 A    
C1    C33   1.383287 A    
N8    N23   1.381011 A    
C5    N5    1.331011 A    
C10   N10   1.342867 A    
C45   C73   1.439367 S    
C32   N32   1.337409 A    
N33   O1    1.301618 A    
N8    Ni4   1.864276 S    
C21   Cl5   1.757802 S    
C8    C40   1.362278 A    
C15   N15   1.331957 A    
C17   C34   1.372797 A    
C61   C77   1.343136 D    
C16   N16   1.334287 A    
C56   N40   1.439739 S    
N31   Ni7   1.867133 S    
N36   O7    1.301543 A    
N44   O24   1.300716 A    
N4    N19   1.386098 A    
C9    H9    1.079035 S    
C14   N14   1.344737 A    
C59   C75   1.341901 D    
N45   O25   1.301956 A    
C19   Cl3   1.759992 S    
C35   C71   1.440143 S    
C12   H12   1.079561 S    
N15   Ni5   1.867213 S    
N16   N31   1.381011 A    
C11   C43   1.384868 A    
N13   Ni7   1.866962 S    
C37   C65   1.427424 S    
C49   N33   1.443663 S    
C61   N45   1.439887 S    
C52   N36   1.443490 S    
N39   O14   1.301146 A    
N48   O32   1.300735 A    
C74   H26   1.088509 S    
C14   C46   1.379729 A    
C2    H2    1.079420 S    
C63   N47   1.438881 S    
C64   N48   1.439389 S    
C6    H6    1.070998 S    
C42   C80   1.451253 S    
N38   O11   1.301748 A    
C3    C35   1.372737 A    
C65   H17   1.089042 S    
C8    N8    1.332662 A    
C10   C42   1.384222 A    
N25   Ni7   1.866848 S    
N32   Ni6   1.863804 S    
C8    H8    1.071130 S    
C17   N17   1.325404 A    
C16   C48   1.364066 A    
N35   O5    1.301649 A    
C69   H21   1.088831 S    
N46   O27   1.301852 A    
C24   N24   1.334006 A    
C60   C76   1.346104 D    
C46   C76   1.455449 S    
N40   O16   1.300693 A    
C6    N6    1.332910 A    
C3    H3    1.079489 S    
C55   C60   1.454077 S    
N10   Ni6   1.852726 S    
C34   C72   1.451804 S    
C51   C67   1.341504 D    
N22   Ni4   1.852371 S    
C73   H25   1.088805 S    
C62   C78   1.346141 D    
C4    C36   1.382759 A    
C5    C37   1.364569 A    
C10   H10   1.078755 S    
N11   N26   1.380999 A    
N37   O10   1.300873 A    
N6    N21   1.381011 A    
C54   N38   1.439089 S    
N43   O21   1.301582 A    
C48   C74   1.423807 S    
N6    Ni2   1.852827 S    
C27   C44   1.371632 A    
N33   O2    1.301136 A    
C52   C63   1.436532 S    
C20   C33   1.369583 A    
C32   C45   1.385886 A    
C57   N41   1.443221 S    
C52   C68   1.342130 D    
N2    N17   1.386098 A    
C31   Cl15  1.758012 S    
C80   H32   1.088622 S    
C44   C78   1.448454 S    
N23   Ni3   1.867133 S    
N45   O26   1.300941 A    
C41   C77   1.442239 S    
C50   N34   1.443271 S    
C12   C44   1.383527 A    
N44   O23   1.301787 A    
C43   C79   1.446856 S    
C76   H28   1.088395 S    
C77   H29   1.088951 S    
C66   H18   1.088640 S    
N35   O6    1.301133 A    
C28   C41   1.369217 A    
C29   N29   1.330538 A    
N3    Ni3   1.866884 S    
N48   O31   1.301800 A    
C23   C40   1.371537 A    
C33   C69   1.444343 S    
N3    N18   1.380999 A    
C6    C38   1.362621 A    
C21   N21   1.331843 A    
C14   H14   1.076553 S    
C59   N43   1.443983 S    
C70   H22   1.088329 S    
C63   C79   1.345198 D    
C36   C70   1.456568 S    
C64   C80   1.346350 D    
N18   Ni4   1.852465 S    
N37   O9    1.301897 A    
N12   N27   1.386098 A    
C62   N46   1.440366 S    
C25   Cl9   1.760437 S    
C19   C36   1.371547 A    
C22   Cl6   1.756913 S    
C72   H24   1.088457 S    
C3    N3    1.332734 A    
C60   N44   1.439724 S    
N47   O29   1.301917 A    
C22   N22   1.334797 A    
C11   H11   1.079310 S    
C31   C48   1.371051 A    
C50   C66   1.340689 D    
N41   O18   1.301104 A    
C49   C65   1.339202 D    
C71   H23   1.088928 S    
C11   N11   1.343044 A    
C18   N18   1.337447 A    
C54   C57   1.453211 S    
N7    Ni1   1.867213 S    
C22   C39   1.381927 A    
C57   C73   1.341481 D    
C53   C58   1.435002 S    
C54   C70   1.347176 D    
N21   Ni1   1.866520 S    
C18   Cl2   1.754428 S    
C53   C69   1.343691 D    
C24   C37   1.382692 A    
C30   Cl14  1.756966 S    
N19   Ni1   1.866597 S    
C50   C61   1.432377 S    
C55   C71   1.340703 D    
C67   H19   1.088739 S    
C49   C62   1.443700 S    
C16   H16   1.071310 S    
C13   H13   1.072122 S    
C13   C45   1.370439 A    
C26   Cl10  1.761671 S    
C27   N27   1.324099 A    
C51   C64   1.447683 S    
N9    Ni5   1.867498 S    
N34   O3    1.301609 A    
C26   N26   1.320463 A    
N27   Ni5   1.866597 S    
C30   C47   1.387017 A    
C17   Cl1   1.762066 S    
C38   C68   1.423462 S    
N30   Ni8   1.852371 S    
N10   N25   1.386098 A    
C9    C41   1.383774 A    
C2    C34   1.383989 A    
N47   O30   1.300864 A    
C21   C38   1.372862 A    
C25   N25   1.324279 A    
C30   N30   1.335848 A    
C68   H20   1.088540 S    
C26   C43   1.369189 A    
N34   O4    1.301294 A    
N42   O19   1.301510 A    
C20   N20   1.320620 A    
C23   Cl7   1.757900 S    
N14   N29   1.381011 A    
N36   O8    1.301306 A    
C15   H15   1.078202 S    
C31   N31   1.330343 A    
C9    N9    1.341847 A    
C20   Cl4   1.761015 S    
C7    C39   1.366473 A    
C58   C74   1.342073 D    
C55   N39   1.443153 S    
N38   O12   1.300743 A    
C40   C66   1.420617 S    
C24   Cl8   1.757213 S    
N20   Ni2   1.863914 S    
C47   C75   1.434327 S    
C29   C46   1.371286 A    
N11   Ni7   1.866884 S    
N39   O13   1.301683 A    
C12   N12   1.341799 A    
N46   O28   1.300821 A    
N9    N28   1.380999 A    
C13   N13   1.335204 A    
C2    N2    1.342580 A    
C19   N19   1.327082 A    
C7    H7    1.071505 S    
C51   N35   1.443865 S    
N4    Ni4   1.864164 S    
C79   H31   1.088834 S    
C25   C42   1.372114 A    
C53   N37   1.439341 S    
C28   Cl12  1.761469 S    
N7    N22   1.386086 A    
C28   N28   1.320128 A    
C58   N42   1.443458 S    
N13   N32   1.386086 A    
C29   Cl13  1.758968 S    
N24   Ni2   1.863804 S    
C56   C72   1.346430 D    
N42   O20   1.301168 A    
N17   Ni3   1.866848 S    
C1    N1    1.342069 A    
N29   Ni5   1.866520 S    
C4    H4    1.078371 S    
C15   C47   1.369609 A    
C18   C35   1.391598 A    
C5    H5    1.071871 S    
C1    H1    1.078925 S    
C32   Cl16  1.754338 S    
N41   O17   1.301705 A    
N5    N24   1.386086 A    
N28   Ni6   1.863914 S    
N43   O22   1.301117 A    
C27   Cl11  1.757313 S    
C7    N7    1.333227 A    
N5    Ni3   1.866962 S    
C75   H27   1.088676 S    
N2    Ni2   1.852726 S    
N15   N30   1.386086 A    
N26   Ni8   1.852465 S    
N12   Ni8   1.864164 S    
N1    Ni1   1.867498 S    
C56   C59   1.450264 S    
C23   N23   1.330000 A    
N1    N20   1.380999 A    
C39   C67   1.431396 S    
N14   Ni6   1.852827 S    
C78   H30   1.088631 S    
