data_mof_unit_4446.cif
_audit_creation_date              2013-03-05T16:48:18-0500
_audit_creation_method            fapswitch 2.2
_symmetry_space_group_name_H-M    P1
_symmetry_Int_Tables_number       1
_space_group_crystal_system       triclinic
_cell_length_a                    23.207284
_cell_length_b                    8.911757
_cell_length_c                    8.083394
_cell_angle_alpha                 90.17356
_cell_angle_beta                  89.971346
_cell_angle_gamma                 88.548729
_cell_volume                      1671.2445468

loop_
_atom_site_label
_atom_site_type_symbol
_atom_site_description
_atom_site_fract_x
_atom_site_fract_y
_atom_site_fract_z
_atom_type_partial_charge
O1    O     O_R   0.500000 0.285350 0.636850 -0.610293
O2    O     O_R   0.500000 0.714650 0.363150 -0.619957
O3    O     O_R   0.500000 0.714650 0.636850 -0.607258
O4    O     O_R   0.500000 0.285350 0.363150 -0.622862
H1    H     H_    0.959449 0.122506 0.295359 0.176966
H2    H     H_    0.040443 0.889093 0.394479 0.182069
H3    H     H_    0.935949 0.876245 0.369665 0.198598
H4    H     H_    0.063692 0.139280 0.269585 0.191212
C1    C     C_R   0.498616 0.218054 0.499862 1.005232
C2    C     C_R   0.501677 0.781898 0.500162 1.003271
O5    O     O_R   0.416160 0.500000 0.636910 -0.567374
O6    O     O_R   0.583840 0.500000 0.363090 -0.580579
O7    O     O_R   0.583840 0.500000 0.636910 -0.569211
O8    O     O_R   0.416160 0.500000 0.363090 -0.586037
C3    C     C_R   0.208451 0.522026 0.412536 0.125431
C4    C     C_R   0.792365 0.476182 0.419162 0.114441
C5    C     C_R   0.388575 0.503559 0.499694 1.054066
C6    C     C_R   0.611453 0.495363 0.499503 1.044526
Zn1   Zn    Zn3+2 0.500000 0.500000 0.682780 1.132695
Zn2   Zn    Zn3+2 0.500000 0.500000 0.317220 1.109761
C7    C     C_R   0.302014 0.632175 0.385356 0.350175
C8    C     C_R   0.698043 0.373978 0.373592 0.342248
C9    C     C_R   0.289108 0.419506 0.575282 0.320284
C10   C     C_R   0.711416 0.565211 0.589266 0.337986
C11   C     C_R   0.325488 0.521501 0.493522 -0.377976
C12   C     C_R   0.674539 0.475483 0.492796 -0.383165
C13   C     C_R   0.875700 0.621792 0.349980 0.527639
C14   C     C_R   0.124412 0.390811 0.318049 0.557237
C15   C     C_R   0.885362 0.354535 0.363200 0.538237
C16   C     C_R   0.115323 0.650447 0.391566 0.529613
N1    N     N_R   0.852131 0.483995 0.373416 -0.312362
N2    N     N_R   0.148359 0.521962 0.369511 -0.311540
C17   C     C_R   0.944270 0.361641 0.329171 -0.026527
C18   C     C_R   0.055995 0.649489 0.362203 -0.022729
C19   C     C_R   0.935538 0.634400 0.343198 -0.039161
C20   C     C_R   0.064543 0.380216 0.309101 -0.035139
C21   C     C_R   0.969928 0.502644 0.331441 -0.021473
C22   C     C_R   0.030241 0.511199 0.331171 -0.018446
C23   C     C_R   0.978553 0.231650 0.303044 -0.158335
C24   C     C_R   0.021491 0.781051 0.372751 -0.163773
C25   C     C_R   0.961735 0.773912 0.358145 -0.159535
C26   C     C_R   0.038191 0.241414 0.287979 -0.160231
C27   C     C_1   0.499557 0.065208 0.499820 -0.058810
C28   C     C_1   0.500855 0.934737 0.500249 -0.063682
C29   C     C_R   0.245057 0.619862 0.330959 0.120141
C30   C     C_R   0.755214 0.390950 0.322093 0.126555
C31   C     C_R   0.229373 0.427200 0.539836 0.102474
C32   C     C_R   0.771380 0.552375 0.562137 0.111006
N3    N     N_1   0.500000 0.500000 0.073640 0.031645
N4    N     N_1   0.500000 0.500000 0.926360 0.023253
O9    O     O_2   0.841440 0.746006 0.339068 -0.523728
O10   O     O_2   0.158421 0.270063 0.281687 -0.533898
O11   O     O_2   0.862028 0.219948 0.392094 -0.547049
O12   O     O_2   0.139438 0.777229 0.447202 -0.555851
N5    N     N_2   0.223648 0.701047 0.191285 -0.286518
H5    H     H_    0.213007 0.812636 0.210122 0.309269
C33   C     C_3   0.249978 0.665552 0.033165 -0.623102
H6    H     H_    0.217381 0.681190 0.933983 0.224399
H7    H     H_    0.266354 0.547371 0.029643 0.262650
H8    H     H_    0.285980 0.741805 0.008270 0.288978
N6    N     N_2   0.776227 0.327385 0.171057 -0.291238
H9    H     H_    0.781004 0.212390 0.168476 0.312695
C34   C     C_3   0.752156 0.392158 0.021975 -0.609230
H10   H     H_    0.773553 0.340067 0.912635 0.227326
H11   H     H_    0.759144 0.514995 0.020100 0.277742
H12   H     H_    0.705461 0.370776 0.013330 0.300846
N7    N     N_2   0.189220 0.335857 0.622726 -0.263676
H13   H     H_    0.196373 0.221659 0.615212 0.322185
C35   C     C_3   0.167123 0.393720 0.778057 -0.663743
H14   H     H_    0.131672 0.322381 0.821558 0.243540
H15   H     H_    0.149680 0.510032 0.761960 0.226742
H16   H     H_    0.201590 0.392611 0.872951 0.278380
N8    N     N_2   0.810067 0.622044 0.673926 -0.236225
H17   H     H_    0.820640 0.730882 0.646649 0.309430
C36   C     C_3   0.855832 0.530389 0.746770 -0.742214
H18   H     H_    0.898024 0.559890 0.692666 0.226650
H19   H     H_    0.848965 0.408692 0.726821 0.248764
H20   H     H_    0.857394 0.552446 0.881843 0.260459
S1    S     S_3+6 0.342078 0.793656 0.333676 0.038030
O13   O     O_2   0.303241 0.923904 0.286168 -0.267773
O14   O     O_2   0.376382 0.838758 0.482289 -0.317503
O15   O     O_3   0.386889 0.753044 0.175332 -0.545337
H21   H     H_    0.408639 0.845828 0.157448 0.380767
S2    S     S_3+6 0.657792 0.217568 0.304206 0.041668
O16   O     O_2   0.696330 0.090444 0.245238 -0.267387
O17   O     O_2   0.622916 0.161993 0.446819 -0.321509
O18   O     O_3   0.613366 0.269931 0.149331 -0.543492
H22   H     H_    0.589810 0.180970 0.126989 0.382657
S3    S     S_3+6 0.319331 0.285689 0.718122 0.045176
O19   O     O_2   0.366444 0.196935 0.631920 -0.283886
O20   O     O_2   0.344969 0.369524 0.860737 -0.293762
O21   O     O_3   0.272218 0.163884 0.795169 -0.542647
H23   H     H_    0.295030 0.099610 0.872032 0.406747
S4    S     S_3+6 0.682507 0.697442 0.736171 0.057745
O22   O     O_2   0.637778 0.795296 0.651965 -0.282295
O23   O     O_2   0.654388 0.614202 0.874675 -0.296190
O24   O     O_3   0.732721 0.808875 0.817222 -0.523069
H24   H     H_    0.712028 0.870473 0.901616 0.408171

loop_
_geom_bond_atom_site_label_1
_geom_bond_atom_site_label_2
_geom_bond_distance
_ccdc_geom_bond_type
N5    H5    1.029431 S    
C34   H11   1.110839 S    
N8    H17   1.030971 S    
C20   C26   1.403708 A    
C6    C12   1.471224 S    
S2    O18   1.681819 S    
C3    C31   1.411995 A    
O18   H22   0.990542 S    
C4    C32   1.418404 A    
O24   H24   0.990662 S    
C3    N2    1.437468 S    
C4    N1    1.438711 S    
C16   O12   1.349528 S    
O5    Zn1   1.980898 S    
Zn2   N3    1.968953 S    
O7    C6    1.282080 A    
C18   C24   1.405289 A    
C19   C21   1.405864 A    
S2    O17   1.500723 D    
C33   H7    1.110859 S    
C15   C17   1.397391 A    
N6    C34   1.444318 S    
C35   H15   1.111231 S    
C9    S3    1.792782 S    
O3    Zn1   1.949708 S    
S3    O20   1.503059 D    
N6    H9    1.028140 S    
C9    C11   1.420485 A    
C34   H12   1.107226 S    
N8    C36   1.449658 S    
O8    C5    1.276001 A    
C7    S1    1.783523 S    
S4    O22   1.503251 D    
C31   N7    1.421610 S    
C13   O9    1.349590 S    
C23   C26   1.394257 A    
C7    C29   1.400082 A    
C1    C27   1.361750 S    
C9    C31   1.415730 A    
O7    Zn1   1.980531 S    
C30   N6    1.424941 S    
O2    Zn2   1.947500 S    
N7    H13   1.028605 S    
C10   C32   1.410394 A    
O8    Zn2   1.980534 S    
C14   N2    1.370452 A    
O1    C1    1.258513 A    
S2    O16   1.501839 D    
C4    C30   1.402211 A    
S1    O14   1.500893 D    
C16   C18   1.397502 A    
C33   H8    1.108958 S    
S4    O24   1.681923 S    
C13   C19   1.397113 A    
O1    Zn1   1.947501 S    
C13   N1    1.370548 A    
C17   C21   1.404173 A    
S1    O13   1.502393 D    
N7    C35   1.444802 S    
C8    S2    1.786572 S    
C35   H16   1.108406 S    
C36   H18   1.110162 S    
C21   C22   1.403694 A    
C10   S4    1.788739 S    
O6    Zn2   1.980896 S    
C17   C23   1.404019 A    
S3    O21   1.680810 S    
S4    O23   1.502801 D    
C36   H19   1.111460 S    
C29   N5    1.425598 S    
C24   C25   1.394896 A    
C8    C30   1.402327 A    
O15   H21   0.990554 S    
N5    C33   1.447086 S    
C27   C28   1.162370 T    
H2    C24   1.082532 S    
C3    C29   1.398996 A    
O2    C2    1.258758 A    
C7    C11   1.418641 A    
O5    C5    1.281007 A    
C18   C22   1.405184 A    
C32   N8    1.426107 S    
C10   C12   1.418259 A    
H4    C26   1.082873 S    
S1    O15   1.681534 S    
C5    C11   1.469633 S    
H1    C23   1.080742 S    
O4    C1    1.259722 A    
C15   N1    1.373661 A    
O3    C2    1.259618 A    
C16   N2    1.372894 A    
C14   O10   1.349850 S    
Zn1   N4    1.968953 S    
C33   H6    1.109237 S    
C15   O11   1.349392 S    
C2    C28   1.361714 S    
C20   C22   1.406986 A    
O21   H23   0.990716 S    
H3    C25   1.081780 S    
C35   H14   1.110082 S    
C19   C25   1.402665 A    
C36   H20   1.109585 S    
C34   H10   1.108449 S    
O4    Zn2   1.949709 S    
C14   C20   1.396897 A    
N3    N4    1.190521 T    
C8    C12   1.418975 A    
O6    C6    1.275896 A    
S3    O19   1.502895 D    
