data_mof_unit_1259.cif
_audit_creation_date              2012-12-10T16:57:43-0500
_audit_creation_method            fapswitch 2.2
_symmetry_space_group_name_H-M    P1
_symmetry_Int_Tables_number       1
_space_group_crystal_system       triclinic
_cell_length_a                    7.761665
_cell_length_b                    8.576467
_cell_length_c                    18.868471
_cell_angle_alpha                 90.907107
_cell_angle_beta                  85.267497
_cell_angle_gamma                 93.6712
_cell_volume                      1249.10896434

loop_
_atom_site_label
_atom_site_type_symbol
_atom_type_description
_atom_site_fract_x
_atom_site_fract_y
_atom_site_fract_z
_atom_type_partial_charge
C1    C     C_R   0.545869 0.794819 0.498292 1.006767
C2    C     C_R   0.595438 0.356485 0.174763 -0.190664
C3    C     C_R   0.439032 0.395166 0.853548 0.055892
C4    C     C_R   0.434772 0.372958 0.147852 0.054955
C5    C     C_R   0.559344 0.319898 0.807878 -0.125850
C6    C     C_R   0.301602 0.437342 0.190961 -0.137713
C7    C     C_R   0.587750 0.363988 0.737278 -0.190000
C8    C     C_R   0.328308 0.484359 0.259995 -0.193588
C9    C     C_R   0.497165 0.484457 0.711553 -0.100903
C10   C     C_R   0.488689 0.468773 0.287728 -0.126645
C11   C     C_R   0.415459 0.345368 0.072115 0.308642
C12   C     C_R   0.454138 0.205186 0.501984 0.955884
C13   C     C_R   0.418314 0.357916 0.929146 0.305107
C14   C     C_2   0.296525 0.706277 0.735049 0.917376
C15   C     C_2   0.803554 0.396804 0.265005 0.902380
C16   C     C_2   0.570051 0.958275 0.497459 -0.347831
C17   C     C_2   0.429964 0.041748 0.503347 -0.369344
C18   C     C_R   0.501258 0.501721 0.634939 0.919955
C19   C     C_R   0.498520 0.496631 0.364548 0.867601
C20   C     C_R   0.381893 0.566993 0.757949 -0.041357
C21   C     C_R   0.625916 0.407394 0.243447 -0.003527
C22   C     C_R   0.351658 0.518730 0.828465 -0.191552
H1    H     H_    0.264604 0.581925 0.864596 0.186972
H2    H     H_    0.986245 0.618184 0.552911 0.200500
H3    H     H_    0.305529 0.891729 0.669881 0.342266
H4    H     H_    0.003125 0.261297 0.274703 0.337374
H5    H     H_    0.701124 0.311247 0.141016 0.174644
H6    H     H_    0.629795 0.225615 0.826472 0.162919
H7    H     H_    0.176906 0.453249 0.171158 0.177850
H8    H     H_    0.674899 0.299060 0.701920 0.163611
H9    H     H_    0.221717 0.531924 0.292095 0.212013
H10   H     H_    0.702325 0.009388 0.491829 0.179824
H11   H     H_    0.297694 0.990633 0.509060 0.181267
H12   H     H_    0.013772 0.381969 0.447008 0.198875
N1    N     N_R   0.545455 0.288882 0.959696 -0.160314
N2    N     N_R   0.283280 0.406221 0.041417 -0.164016
N3    N     N_R   0.544140 0.282943 0.029993 -0.161040
N4    N     N_R   0.284727 0.412446 0.971167 -0.161282
N5    N     N_2   0.950330 0.457950 0.481240 -0.161386
N6    N     N_2   0.049670 0.542050 0.518760 -0.168833
O1    O     O_R   0.389250 0.738570 0.504600 -0.602084
O2    O     O_R   0.376063 0.800519 0.680333 -0.813535
O3    O     O_2   0.883917 0.513586 0.285819 -0.630924
O4    O     O_R   0.881916 0.254485 0.258121 -0.803176
O5    O     O_R   0.610750 0.261430 0.495400 -0.615804
O6    O     O_R   0.678400 0.711620 0.492580 -0.622624
O7    O     O_R   0.321600 0.288380 0.507420 -0.632415
O8    O     O_R   0.355380 0.513500 0.607880 -0.599471
O9    O     O_R   0.644620 0.486500 0.392120 -0.578337
O10   O     O_R   0.644530 0.486550 0.595850 -0.627531
O11   O     O_R   0.355470 0.513450 0.404150 -0.627329
O12   O     O_2   0.158491 0.741063 0.765268 -0.620455
Zn1   Zn    Zn3+2 0.306930 0.517990 0.508030 0.972227
Zn2   Zn    Zn3+2 0.693070 0.482010 0.491970 0.984625

loop_
_geom_bond_atom_site_label_1
_geom_bond_atom_site_label_2
_ccdc_geom_bond_type
C12   C17   S    
H3    O2    S    
C2    C4    A    
C2    H5    S    
C19   O11   A    
O8    Zn1   S    
C16   H10   S    
C5    H6    S    
C5    C7    A    
C19   O9    A    
C9    C20   A    
C3    C13   S    
C14   O2    S    
C10   C19   S    
O7    Zn1   S    
O6    Zn2   S    
C2    C21   A    
N2    N4    A    
C3    C5    A    
H4    O4    S    
C7    H8    S    
C4    C11   S    
O1    Zn1   S    
C13   N4    A    
O10   Zn2   S    
C17   H11   S    
C12   O7    A    
C4    C6    A    
C11   N2    A    
N1    N3    A    
C20   C22   A    
O5    Zn2   S    
C13   N1    A    
C7    C9    A    
C10   C21   A    
C15   O4    S    
C1    O6    A    
N5    Zn2   S    
C15   O3    D    
H12   N5    S    
C14   C20   S    
C9    C18   S    
C15   C21   S    
C6    H7    S    
C18   O10   A    
C8    C10   A    
N6    Zn1   S    
C1    C16   S    
C1    O1    A    
N5    N6    D    
C11   N3    A    
C22   H1    S    
C16   C17   D    
C3    C22   A    
C6    C8    A    
H2    N6    S    
C8    H9    S    
C14   O12   D    
O9    Zn2   S    
C12   O5    A    
O11   Zn1   S    
C18   O8    A    
