data_mof_unit_4279.cif
_audit_creation_date              2012-12-11T16:48:35-0500
_audit_creation_method            fapswitch 2.2
_symmetry_space_group_name_H-M    P1
_symmetry_Int_Tables_number       1
_space_group_crystal_system       triclinic
_cell_length_a                    17.144395
_cell_length_b                    24.280115
_cell_length_c                    15.001087
_cell_angle_alpha                 89.652824
_cell_angle_beta                  125.577852
_cell_angle_gamma                 90.220308
_cell_volume                      5078.69503267

loop_
_atom_site_label
_atom_site_type_symbol
_atom_type_description
_atom_site_fract_x
_atom_site_fract_y
_atom_site_fract_z
_atom_type_partial_charge
C1    C     C_R   0.355411 0.346378 0.911313 -0.157691
C2    C     C_R   0.692560 0.380505 0.092208 -0.134766
C3    C     C_R   0.855491 0.846352 0.911368 -0.156876
C4    C     C_R   0.192443 0.880153 0.092621 -0.141259
C5    C     C_R   0.371843 0.680967 0.997174 0.077870
C6    C     C_R   0.692643 0.635327 0.003637 0.065915
C7    C     C_R   0.872467 0.181224 0.997114 0.078602
C8    C     C_R   0.192628 0.135279 0.003608 0.066112
C9    C     C_R   0.448211 0.499296 0.275367 0.130777
C10   C     C_R   0.435581 0.499487 0.634040 0.132295
C11   C     C_R   0.948678 0.999454 0.275829 0.131167
C12   C     C_R   0.935565 0.999636 0.634087 0.135426
C13   C     C_R   0.175228 0.498524 0.731464 0.136202
C14   C     C_R   0.803227 0.499427 0.365831 0.137788
C15   C     C_R   0.675019 0.998534 0.730265 0.131043
C16   C     C_R   0.300555 0.999483 0.367599 0.120820
C17   C     C_2   0.919044 0.456911 0.545376 -0.121255
C18   C     C_2   0.019224 0.454296 0.642204 -0.115153
C19   C     C_2   0.418372 0.956159 0.545199 -0.112928
C20   C     C_2   0.519113 0.954160 0.640817 -0.121560
C21   C     C_2   0.885171 0.501531 0.480006 -0.199322
C22   C     C_2   0.073481 0.499554 0.685932 -0.187251
C23   C     C_2   0.380721 0.001592 0.482757 -0.188757
C24   C     C_2   0.573135 0.999555 0.683933 -0.181849
C25   C     C_R   0.366608 0.756644 0.098560 0.004022
C26   C     C_R   0.769263 0.675705 0.916548 -0.033801
C27   C     C_R   0.868534 0.257707 0.098352 0.001442
C28   C     C_R   0.269026 0.175767 0.916339 -0.034966
C29   C     C_R   0.346872 0.737617 0.000645 0.086394
C30   C     C_R   0.772086 0.661982 0.009109 0.036654
C31   C     C_R   0.847772 0.238044 0.000244 0.088926
C32   C     C_R   0.271935 0.162015 0.008965 0.039933
C33   C     C_R   0.301778 0.773628 0.910290 -0.181421
C34   C     C_R   0.846990 0.685859 0.108849 -0.171915
C35   C     C_R   0.800830 0.273395 0.908764 -0.181273
C36   C     C_R   0.346723 0.185954 0.108664 -0.173605
C37   C     C_R   0.761410 0.322875 0.913882 -0.159090
C38   C     C_R   0.394040 0.232702 0.107896 -0.182306
C39   C     C_R   0.263105 0.823216 0.916221 -0.158128
C40   C     C_R   0.894254 0.732647 0.108076 -0.177011
C41   C     C_R   0.771944 0.337453 0.011416 0.037981
C42   C     C_R   0.366105 0.256640 0.007406 0.063387
C43   C     C_R   0.272768 0.837184 0.013549 0.029599
C44   C     C_R   0.866315 0.756589 0.007574 0.061219
C45   C     C_R   0.438876 0.650640 0.088767 -0.188140
C46   C     C_R   0.601119 0.623817 0.910853 -0.153318
C47   C     C_R   0.939282 0.150811 0.088710 -0.185812
C48   C     C_R   0.101088 0.123826 0.910847 -0.154338
C49   C     C_R   0.842745 0.309565 0.108761 -0.032006
C50   C     C_R   0.309053 0.224238 0.914237 -0.091203
C51   C     C_R   0.342926 0.808719 0.110872 -0.027870
C52   C     C_R   0.809368 0.724144 0.914458 -0.091962
C53   C     C_3   0.844479 0.289461 0.206296 0.260047
C54   C     C_3   0.248893 0.226079 0.791547 0.304290
C55   C     C_3   0.344931 0.787758 0.208321 0.284787
C56   C     C_3   0.749476 0.725858 0.791796 0.304858
C57   C     C_3   0.346745 0.729967 0.172914 0.287183
C58   C     C_3   0.706337 0.670536 0.793556 0.278826
C59   C     C_3   0.849506 0.231502 0.173999 0.291890
C60   C     C_3   0.205897 0.170702 0.793303 0.279510
C61   C     C_R   0.394340 0.450620 0.466591 -0.124113
C62   C     C_R   0.381566 0.450253 0.367112 -0.083903
C63   C     C_R   0.893870 0.950943 0.466319 -0.126020
C64   C     C_R   0.881347 0.950633 0.366975 -0.083170
C65   C     C_R   0.396109 0.498704 0.517522 -0.197788
C66   C     C_R   0.401475 0.499598 0.333151 -0.196775
C67   C     C_R   0.896268 0.999034 0.517652 -0.194350
C68   C     C_R   0.901929 0.999898 0.333535 -0.195071
C69   C     C_R   0.371359 0.547324 0.454860 0.420855
C70   C     C_R   0.391294 0.549534 0.376181 0.421406
C71   C     C_R   0.872569 0.047795 0.455658 0.417393
C72   C     C_R   0.892412 0.049873 0.376946 0.420620
C73   C     C_3   0.412848 0.389994 0.384819 0.284096
C74   C     C_3   0.437362 0.394493 0.499901 0.379814
C75   C     C_3   0.912128 0.890304 0.384305 0.284393
C76   C     C_3   0.936586 0.894721 0.499362 0.378785
C77   C     C_R   0.478221 0.453477 0.247079 -0.168690
C78   C     C_R   0.450270 0.453858 0.697072 -0.100482
C79   C     C_R   0.978259 0.953555 0.247166 -0.169998
C80   C     C_R   0.950276 0.953928 0.697032 -0.100602
C81   C     C_R   0.231173 0.544833 0.754439 -0.154096
C82   C     C_R   0.755752 0.545018 0.302544 -0.153480
C83   C     C_R   0.731073 0.044858 0.753791 -0.149807
C84   C     C_R   0.254369 0.045021 0.303491 -0.151833
C85   C     C_R   0.477288 0.545096 0.245148 -0.134937
C86   C     C_R   0.453615 0.545241 0.698334 -0.191182
C87   C     C_R   0.978118 0.045204 0.245951 -0.133991
C88   C     C_R   0.953635 0.045322 0.698489 -0.188723
C89   C     C_R   0.232425 0.452783 0.754933 -0.133069
C90   C     C_R   0.753688 0.453764 0.303725 -0.154292
C91   C     C_R   0.732336 0.952774 0.754291 -0.134001
C92   C     C_R   0.252170 0.953831 0.304640 -0.139954
C93   C     C_R   0.346079 0.650419 0.906768 -0.138247
C94   C     C_R   0.692428 0.622622 0.093875 -0.115737
C95   C     C_R   0.846347 0.150494 0.906753 -0.139922
C96   C     C_R   0.192501 0.122494 0.093897 -0.115664
C97   C     C_R   0.444966 0.347478 0.092853 -0.153999
C98   C     C_R   0.601084 0.376517 0.910068 -0.111058
C99   C     C_R   0.944985 0.847485 0.092899 -0.154035
C100  C     C_R   0.101390 0.876298 0.910543 -0.110200
C101  C     C_R   0.385063 0.314831 0.002923 0.066648
C102  C     C_R   0.693120 0.366120 0.003924 0.063904
C103  C     C_R   0.885163 0.814805 0.003008 0.066932
C104  C     C_R   0.193326 0.865697 0.004860 0.069003
H1    H     H_    0.923659 0.540252 0.504910 0.133273
H2    H     H_    0.041362 0.539840 0.673010 0.132581
H3    H     H_    0.415614 0.041282 0.510133 0.132127
H4    H     H_    0.541304 0.039859 0.671339 0.130526
H5    H     H_    0.287767 0.761402 0.832965 0.119183
H6    H     H_    0.861924 0.673588 0.186648 0.123014
H7    H     H_    0.785964 0.260674 0.831277 0.118901
H8    H     H_    0.361608 0.173718 0.186457 0.125072
H9    H     H_    0.712691 0.345222 0.838541 0.132673
H10   H     H_    0.443163 0.252915 0.185349 0.118652
H11   H     H_    0.215341 0.846133 0.841376 0.131826
H12   H     H_    0.943329 0.752887 0.185513 0.116620
H13   H     H_    0.405769 0.703570 0.238462 0.069135
H14   H     H_    0.627499 0.673176 0.749540 0.034294
H15   H     H_    0.909387 0.206220 0.241160 0.065445
H16   H     H_    0.127075 0.173332 0.749422 0.034773
H17   H     H_    0.475944 0.377491 0.386813 0.038363
H18   H     H_    0.394972 0.366047 0.514698 0.093516
H19   H     H_    0.975172 0.877617 0.386351 0.038011
H20   H     H_    0.894031 0.866313 0.513971 0.094882
H21   H     H_    0.462681 0.411106 0.249518 0.084531
H22   H     H_    0.428039 0.412204 0.668726 0.102490
H23   H     H_    0.962516 0.911207 0.249462 0.084700
H24   H     H_    0.928162 0.912269 0.668660 0.103661
H25   H     H_    0.208468 0.587095 0.745820 0.101869
H26   H     H_    0.766915 0.586942 0.331699 0.094256
H27   H     H_    0.708370 0.087135 0.745019 0.100908
H28   H     H_    0.264846 0.086976 0.332333 0.093916
H29   H     H_    0.461447 0.587520 0.244939 0.143348
H30   H     H_    0.439626 0.587828 0.673457 0.151918
H31   H     H_    0.963661 0.087723 0.246903 0.142609
H32   H     H_    0.939788 0.087948 0.674048 0.153145
H33   H     H_    0.307199 0.665001 0.823067 0.086247
H34   H     H_    0.750755 0.626355 0.179201 0.093221
H35   H     H_    0.807519 0.164992 0.823009 0.086369
H36   H     H_    0.250926 0.126001 0.179272 0.093498
H37   H     H_    0.493190 0.334208 0.177103 0.086613
H38   H     H_    0.575679 0.370918 0.825842 0.120997
H39   H     H_    0.993185 0.834244 0.177172 0.086158
H40   H     H_    0.076359 0.870731 0.826427 0.120937
H41   H     H_    0.879976 0.418295 0.517409 0.127560
H42   H     H_    0.052314 0.414036 0.661903 0.130230
H43   H     H_    0.382157 0.916826 0.514938 0.121041
H44   H     H_    0.552624 0.914031 0.660336 0.124834
N1    N     N_R   0.395410 0.396350 0.944340 -0.041258
N2    N     N_R   0.604590 0.396350 0.055660 -0.035530
N3    N     N_R   0.895410 0.896350 0.944340 -0.041323
N4    N     N_R   0.104590 0.896350 0.055660 -0.036108
N5    N     N_R   0.449930 0.602500 0.055880 -0.036910
N6    N     N_R   0.550070 0.602500 0.944120 -0.037634
N7    N     N_R   0.949930 0.102500 0.055880 -0.037105
N8    N     N_R   0.050070 0.102500 0.944120 -0.037612
N9    N     N_R   0.525080 0.471030 0.205650 -0.036827
N10   N     N_R   0.474920 0.471030 0.794350 -0.048840
N11   N     N_R   0.025080 0.971030 0.205650 -0.037091
N12   N     N_R   0.974920 0.971030 0.794350 -0.049205
N13   N     N_R   0.320260 0.527820 0.794570 -0.041060
N14   N     N_R   0.679740 0.527820 0.205430 -0.038963
N15   N     N_R   0.820260 0.027820 0.794570 -0.040778
N16   N     N_R   0.179740 0.027820 0.205430 -0.038613
N17   N     N_R   0.524590 0.527840 0.205200 -0.047935
N18   N     N_R   0.475410 0.527840 0.794800 -0.046405
N19   N     N_R   0.024590 0.027840 0.205200 -0.048169
N20   N     N_R   0.975410 0.027840 0.794800 -0.047103
N21   N     N_R   0.320750 0.471000 0.795020 -0.044856
N22   N     N_R   0.679250 0.471000 0.204980 -0.039251
N23   N     N_R   0.820750 0.971000 0.795020 -0.043411
N24   N     N_R   0.179250 0.971000 0.204980 -0.039877
N25   N     N_R   0.393620 0.602490 0.942710 -0.034620
N26   N     N_R   0.606380 0.602490 0.057290 -0.039550
N27   N     N_R   0.893620 0.102490 0.942710 -0.034718
N28   N     N_R   0.106380 0.102490 0.057290 -0.039663
N29   N     N_R   0.451720 0.396350 0.057510 -0.034511
N30   N     N_R   0.548280 0.396350 0.942490 -0.042193
N31   N     N_R   0.951720 0.896350 0.057510 -0.034610
N32   N     N_R   0.048280 0.896350 0.942490 -0.042142
Ni1   Ni    Ni4+2 0.435420 0.434270 0.870230 0.209051
Ni2   Ni    Ni4+2 0.564580 0.434270 0.129770 0.209590
Ni3   Ni    Ni4+2 0.935420 0.934270 0.870230 0.210969
Ni4   Ni    Ni4+2 0.064580 0.934270 0.129770 0.208661
Ni5   Ni    Ni4+2 0.563430 0.564580 0.128740 0.207420
Ni6   Ni    Ni4+2 0.436570 0.564580 0.871260 0.203306
Ni7   Ni    Ni4+2 0.063430 0.064580 0.128740 0.206512
Ni8   Ni    Ni4+2 0.936570 0.064580 0.871260 0.203777
H45   H     H_    0.321771 0.331583 0.828995 0.146343
H46   H     H_    0.752854 0.382280 0.176182 0.075562
H47   H     H_    0.821944 0.831538 0.829087 0.147076
H48   H     H_    0.252692 0.882169 0.176261 0.088890
O1    O     O_3   0.932418 0.301951 0.307933 -0.677759
C105  C     C_3   0.941728 0.358963 0.330295 0.192165
H49   H     H_    0.896315 0.370496 0.357717 0.085551
H50   H     H_    0.921311 0.384143 0.257412 0.111687
C106  C     C_3   0.046465 0.371728 0.422709 -0.242182
H51   H     H_    0.062685 0.356551 0.501849 0.186281
H52   H     H_    0.094523 0.350147 0.407155 0.217424
C107  C     C_3   0.067622 0.433391 0.431706 -1.030141
H53   H     H_    0.059320 0.448566 0.356609 0.268427
H54   H     H_    0.142486 0.441244 0.503274 0.274020
H55   H     H_    0.018208 0.456557 0.442647 0.283376
O2    O     O_3   0.180620 0.269629 0.737360 -0.688371
C108  C     C_3   0.129655 0.283857 0.781931 0.179733
H56   H     H_    0.158946 0.323408 0.826301 0.135979
H57   H     H_    0.134131 0.252959 0.839552 0.095851
C109  C     C_3   0.023688 0.291676 0.688301 -0.283645
H58   H     H_    0.016689 0.319859 0.625479 0.196059
H59   H     H_    0.992210 0.251350 0.648858 0.195086
C110  C     C_3   0.967202 0.315118 0.728963 -1.032195
H60   H     H_    0.968631 0.285928 0.787175 0.272141
H61   H     H_    0.891431 0.321657 0.658341 0.270469
H62   H     H_    0.997799 0.355280 0.770132 0.274205
O3    O     O_3   0.435136 0.797197 0.309532 -0.684393
C111  C     C_3   0.443364 0.850137 0.352429 0.212396
H63   H     H_    0.496803 0.846943 0.442628 0.129415
H64   H     H_    0.376661 0.864090 0.340518 0.054097
C112  C     C_3   0.481017 0.891705 0.308319 -0.289719
H65   H     H_    0.540222 0.872569 0.309097 0.220181
H66   H     H_    0.422818 0.903218 0.222609 0.187689
C113  C     C_3   0.518815 0.943988 0.377078 -0.995343
H67   H     H_    0.459592 0.966073 0.371177 0.280216
H68   H     H_    0.549769 0.971509 0.345784 0.265051
H69   H     H_    0.575717 0.934062 0.464301 0.269494
O4    O     O_3   0.681342 0.769436 0.737340 -0.687275
C114  C     C_3   0.629927 0.783715 0.781322 0.184351
H70   H     H_    0.659172 0.823237 0.825819 0.135747
H71   H     H_    0.633963 0.752830 0.838707 0.094311
C115  C     C_3   0.524175 0.791653 0.687136 -0.285151
H72   H     H_    0.517794 0.819782 0.624580 0.192025
H73   H     H_    0.492671 0.751354 0.647553 0.194296
C116  C     C_3   0.467203 0.815252 0.727047 -1.032807
H74   H     H_    0.468093 0.786115 0.784981 0.271997
H75   H     H_    0.391613 0.821879 0.656037 0.270024
H76   H     H_    0.497814 0.855389 0.768328 0.274788
H77   H     H_    0.780551 0.294694 0.206951 0.086662
H78   H     H_    0.294034 0.222892 0.760710 0.105536
H79   H     H_    0.281946 0.793875 0.210591 0.073939
H80   H     H_    0.794826 0.722566 0.761247 0.106562
O5    O     O_3   0.252482 0.707709 0.110232 -0.670667
C117  C     C_3   0.253025 0.650956 0.130416 0.215517
H81   H     H_    0.258215 0.645320 0.207170 0.149969
H82   H     H_    0.312874 0.629359 0.136492 0.126754
C118  C     C_3   0.159326 0.625316 0.035816 -0.276162
H83   H     H_    0.098320 0.642705 0.033607 0.206229
H84   H     H_    0.148807 0.635473 0.957102 0.213180
C119  C     C_3   0.160446 0.562758 0.047764 -1.000800
H85   H     H_    0.218773 0.544483 0.045822 0.274006
H86   H     H_    0.090876 0.545463 0.978984 0.272660
H87   H     H_    0.171549 0.551312 0.126127 0.262418
O6    O     O_3   0.737629 0.627486 0.758040 -0.665996
C120  C     C_3   0.699461 0.576135 0.760566 0.223795
H88   H     H_    0.678592 0.553277 0.686059 0.087238
H89   H     H_    0.632563 0.579660 0.755596 0.086346
C121  C     C_3   0.775459 0.542162 0.861210 -0.282825
H90   H     H_    0.824608 0.522776 0.844936 0.195070
H91   H     H_    0.819481 0.569022 0.933800 0.216075
C122  C     C_3   0.730088 0.497411 0.889407 -0.991368
H92   H     H_    0.687707 0.516330 0.915696 0.280282
H93   H     H_    0.787206 0.471530 0.957699 0.268435
H94   H     H_    0.682310 0.470636 0.817839 0.265376
O7    O     O_3   0.756017 0.208104 0.111759 -0.671624
C123  C     C_3   0.757980 0.151495 0.133525 0.218853
H95   H     H_    0.760769 0.146306 0.208812 0.148304
H96   H     H_    0.819616 0.130509 0.142931 0.128841
C124  C     C_3   0.666472 0.124550 0.037854 -0.278553
H97   H     H_    0.603545 0.141069 0.032668 0.205929
H98   H     H_    0.657814 0.134573 0.960111 0.213432
C125  C     C_3   0.669917 0.062012 0.051357 -0.997774
H99   H     H_    0.730285 0.044586 0.052382 0.274443
H100  H     H_    0.601875 0.043761 0.981649 0.272012
H101  H     H_    0.679211 0.050651 0.128783 0.262413
O8    O     O_3   0.237068 0.127733 0.757474 -0.665808
C126  C     C_3   0.199049 0.076327 0.760035 0.222681
H102  H     H_    0.178153 0.053489 0.685487 0.086965
H103  H     H_    0.132191 0.079785 0.755162 0.086569
C127  C     C_3   0.275170 0.042343 0.860595 -0.281942
H104  H     H_    0.324065 0.022866 0.844027 0.194916
H105  H     H_    0.319447 0.069207 0.933126 0.216701
C128  C     C_3   0.229930 0.997677 0.889153 -0.990886
H106  H     H_    0.187986 0.016682 0.915943 0.280434
H107  H     H_    0.287093 0.971701 0.957194 0.268410
H108  H     H_    0.181746 0.970982 0.817589 0.264834
O9    O     O_3   0.348671 0.595837 0.482877 -0.675395
C129  C     C_3   0.257032 0.591181 0.462041 0.171958
H109  H     H_    0.252972 0.622401 0.513045 0.122914
H110  H     H_    0.244914 0.550421 0.486857 0.105261
C130  C     C_3   0.177640 0.603267 0.341161 -0.286906
H111  H     H_    0.189778 0.644505 0.318698 0.208154
H112  H     H_    0.179681 0.571924 0.288991 0.185066
C131  C     C_3   0.078676 0.602093 0.318769 -1.012885
H113  H     H_    0.064806 0.561090 0.340193 0.272228
H114  H     H_    0.022986 0.610154 0.230383 0.278869
H115  H     H_    0.073464 0.634304 0.367348 0.262288
O10   O     O_3   0.410433 0.600619 0.352333 -0.699174
C132  C     C_3   0.501840 0.619737 0.441656 0.229431
H116  H     H_    0.550591 0.620356 0.415594 0.102123
H117  H     H_    0.538276 0.592996 0.516389 0.048767
C133  C     C_3   0.492605 0.677887 0.473736 -0.257090
H118  H     H_    0.424281 0.697327 0.406762 0.226755
H119  H     H_    0.491174 0.675220 0.546677 0.183206
C134  C     C_3   0.575880 0.714534 0.499728 -0.892820
H120  H     H_    0.645158 0.695860 0.566036 0.271680
H121  H     H_    0.568834 0.755664 0.525917 0.292410
H122  H     H_    0.575450 0.719813 0.425844 0.264934
O11   O     O_3   0.851821 0.096493 0.485122 -0.678330
C135  C     C_3   0.758365 0.093866 0.459618 0.173544
H123  H     H_    0.755780 0.122900 0.514808 0.123225
H124  H     H_    0.739858 0.052443 0.475091 0.100877
C136  C     C_3   0.683925 0.112018 0.340798 -0.285663
H125  H     H_    0.703259 0.153473 0.327441 0.208636
H126  H     H_    0.683811 0.082526 0.284480 0.186212
C137  C     C_3   0.583385 0.114354 0.313822 -1.016287
H127  H     H_    0.562516 0.073448 0.327140 0.269397
H128  H     H_    0.531356 0.126245 0.226518 0.281690
H129  H     H_    0.580390 0.145364 0.365897 0.263178
O12   O     O_3   0.911242 0.100887 0.352520 -0.701624
C138  C     C_3   0.001888 0.120779 0.441944 0.228232
H130  H     H_    0.050874 0.122120 0.416226 0.101784
H131  H     H_    0.038850 0.094165 0.516849 0.050921
C139  C     C_3   0.990584 0.178691 0.473141 -0.248079
H132  H     H_    0.921516 0.197375 0.405912 0.224821
H133  H     H_    0.989408 0.175786 0.546231 0.184627
C140  C     C_3   0.072361 0.216477 0.498407 -0.906508
H134  H     H_    0.142386 0.198568 0.564789 0.273110
H135  H     H_    0.063727 0.257266 0.524264 0.293671
H136  H     H_    0.071527 0.222222 0.424353 0.262551
O13   O     O_3   0.333673 0.354021 0.323765 -0.667226
C141  C     C_3   0.302080 0.351602 0.213821 0.207020
H137  H     H_    0.357258 0.331328 0.208516 0.088013
H138  H     H_    0.286154 0.393515 0.176436 0.116340
C142  C     C_3   0.210203 0.317328 0.150724 -0.220576
H139  H     H_    0.226236 0.274658 0.184250 0.196889
H140  H     H_    0.156570 0.335472 0.161205 0.206679
C143  C     C_3   0.167374 0.315237 0.029126 -1.062304
H141  H     H_    0.147279 0.357208 0.992592 0.273686
H142  H     H_    0.102351 0.288862 0.986712 0.277904
H143  H     H_    0.220046 0.297366 0.017416 0.273227
O14   O     O_3   0.537680 0.391091 0.586411 -0.681084
C144  C     C_3   0.596263 0.431671 0.583566 0.192026
H144  H     H_    0.595944 0.469597 0.624016 0.099338
H145  H     H_    0.572468 0.442867 0.499579 0.094456
C145  C     C_3   0.698878 0.409780 0.644682 -0.286324
H146  H     H_    0.731825 0.407840 0.733807 0.199340
H147  H     H_    0.697478 0.367457 0.615885 0.208465
C146  C     C_3   0.761030 0.446046 0.625809 -1.007965
H148  H     H_    0.732002 0.446610 0.537507 0.269501
H149  H     H_    0.835140 0.429360 0.673297 0.279129
H150  H     H_    0.763818 0.488775 0.653209 0.267437
O15   O     O_3   0.832613 0.854592 0.322865 -0.666800
C147  C     C_3   0.801517 0.852084 0.213099 0.206594
H151  H     H_    0.856557 0.831288 0.208204 0.088587
H152  H     H_    0.786614 0.894006 0.175908 0.115955
C148  C     C_3   0.708928 0.818451 0.149312 -0.219934
H153  H     H_    0.723754 0.775846 0.183069 0.197701
H154  H     H_    0.655189 0.837353 0.158814 0.204730
C149  C     C_3   0.667119 0.815921 0.028015 -1.062906
H155  H     H_    0.648715 0.857882 0.991324 0.273508
H156  H     H_    0.601199 0.790286 0.985003 0.277946
H157  H     H_    0.719702 0.796980 0.017250 0.273331
O16   O     O_3   0.036895 0.891148 0.585899 -0.680765
C150  C     C_3   0.095696 0.931643 0.583222 0.192607
H158  H     H_    0.095334 0.969636 0.623485 0.098713
H159  H     H_    0.072143 0.942738 0.499288 0.094654
C151  C     C_3   0.198316 0.909719 0.644701 -0.286859
H160  H     H_    0.231192 0.908133 0.733817 0.198790
H161  H     H_    0.196978 0.867257 0.616503 0.208770
C152  C     C_3   0.260509 0.945707 0.625453 -1.007447
H162  H     H_    0.231774 0.945728 0.537250 0.269777
H163  H     H_    0.334727 0.929169 0.673564 0.279509
H164  H     H_    0.262897 0.988616 0.651815 0.267047
H165  H     H_    0.486604 0.665779 0.171595 0.090531
H166  H     H_    0.573154 0.630122 0.826702 0.081895
H167  H     H_    0.987066 0.165936 0.171538 0.088109
H168  H     H_    0.073084 0.130184 0.826710 0.081871
H169  H     H_    0.212530 0.409994 0.748234 0.111029
H170  H     H_    0.762040 0.411951 0.333031 0.081871
H171  H     H_    0.712496 0.909974 0.747557 0.108447
H172  H     H_    0.258981 0.912180 0.333959 0.080066

loop_
_geom_bond_atom_site_label_1
_geom_bond_atom_site_label_2
_ccdc_geom_bond_type
C105  H50   S    
C139  H133  S    
C19   C20   S    
C111  C112  S    
C134  H121  S    
C142  H139  S    
C128  H108  S    
C25   C57   S    
C14   C21   S    
N23   Ni3   S    
C38   H10   S    
C105  C106  S    
C63   C76   S    
N29   Ni2   S    
C121  C122  S    
N5    N25   A    
C16   C84   A    
C149  H157  S    
O8    C126  S    
C106  H52   S    
C95   N27   A    
C14   C90   A    
N27   Ni8   S    
C149  H155  S    
C86   H30   S    
C87   N19   A    
C74   O14   S    
C88   N20   A    
C117  H82   S    
C135  C136  S    
C152  H164  S    
C144  H145  S    
C118  H83   S    
C41   C49   A    
C119  H86   S    
C25   C29   A    
C117  C118  S    
C141  H137  S    
C27   C31   A    
C28   C32   A    
O14   C144  S    
C54   H78   S    
C100  H40   S    
C30   C34   A    
C137  H127  S    
C98   C102  A    
C17   C21   D    
N4    N32   A    
C19   C23   D    
C75   C76   S    
C83   H27   S    
N13   Ni6   S    
N3    N31   A    
C114  H70   S    
C68   C72   A    
C23   H3    S    
C147  H151  S    
C9    C77   A    
C115  H73   S    
C11   C79   A    
C72   O12   S    
O10   C132  S    
C6    C30   S    
C39   H11   S    
C55   C57   S    
C125  H100  S    
N9    Ni2   S    
C53   H77   S    
C1    C101  A    
C77   H21   S    
C133  H118  S    
C46   H166  S    
C142  C143  S    
C3    C103  A    
C79   H23   S    
C129  C130  S    
N18   Ni6   S    
C56   H80   S    
C2    H46   S    
C143  H141  S    
C122  H93   S    
C61   C74   S    
C80   H24   S    
C95   H35   S    
C91   N23   A    
C85   N17   A    
C131  H114  S    
C89   N21   A    
N7    Ni7   S    
C129  H110  S    
C66   C70   A    
C92   N24   A    
C49   C53   S    
C4    C104  A    
C93   N25   A    
C84   H28   S    
C51   C55   S    
N12   N20   A    
C69   C70   A    
C15   C91   A    
C139  C140  S    
C61   C65   A    
C107  H54   S    
O1    C105  S    
C118  C119  S    
O6    C120  S    
C2    N2    A    
C138  H131  S    
C29   C33   A    
O15   C147  S    
C100  C104  A    
C10   C78   A    
N6    Ni6   S    
C60   O8    S    
C64   C68   A    
C59   O7    S    
C111  H64   S    
C26   C52   A    
C55   O3    S    
C120  H88   S    
C124  C125  S    
C54   O2    S    
C112  H66   S    
O16   C150  S    
C2    C102  A    
C147  C148  S    
C41   C102  S    
O5    C117  S    
C140  H135  S    
C43   C104  S    
C9    C85   A    
C99   H39   S    
C78   N10   A    
C11   C87   A    
C123  H95   S    
C121  H91   S    
C20   H44   S    
C62   C73   S    
C98   N30   A    
C116  H74   S    
C133  C134  S    
N13   N21   A    
C44   C52   A    
N19   Ni7   S    
N22   Ni2   S    
C132  H117  S    
C90   N22   A    
C140  H134  S    
C89   H169  S    
C143  H143  S    
C44   C103  S    
C135  H124  S    
C130  H111  S    
C28   C60   S    
C4    N4    A    
C62   C66   A    
C76   H20   S    
C126  C127  S    
C99   C103  A    
N9    N17   A    
C82   N14   A    
C113  H69   S    
C6    C94   A    
C141  C142  S    
N15   Ni8   S    
C149  H156  S    
C12   C88   A    
C17   C18   S    
C75   O15   S    
C113  H68   S    
C151  C152  S    
C42   C50   A    
C15   C24   S    
C148  H154  S    
C26   C30   A    
C16   C23   S    
C136  H126  S    
C34   H6    S    
C150  C151  S    
N16   N24   A    
C100  N32   A    
C42   C101  S    
C11   C68   S    
N31   Ni4   S    
C10   C86   A    
C114  H71   S    
C18   C22   D    
C96   H36   S    
N14   Ni5   S    
C124  H97   S    
N3    Ni3   S    
C128  H107  S    
C47   H167  S    
C71   C72   A    
C112  C113  S    
C90   H170  S    
C123  C124  S    
C64   C75   S    
C56   C58   S    
C105  H49   S    
C37   C41   A    
C106  H51   S    
C116  H76   S    
C63   C64   A    
C40   C44   A    
C110  H62   S    
O2    C108  S    
O4    C114  S    
C127  H104  S    
C27   C49   A    
C152  H163  S    
C1    H45   S    
C69   O9    S    
N20   Ni8   S    
C53   O1    S    
C73   C74   S    
C4    H48   S    
C126  H102  S    
C86   N18   A    
O7    C123  S    
N2    Ni2   S    
C50   C54   S    
C141  H138  S    
N26   Ni5   S    
C79   N11   A    
C80   N12   A    
C37   H9    S    
C137  H128  S    
C13   C81   A    
C130  C131  S    
O13   C141  S    
C151  H160  S    
C57   O5    S    
C73   O13   S    
C109  H58   S    
C127  C128  S    
C147  H152  S    
C36   H8    S    
C150  H158  S    
C1    N1    A    
C24   H4    S    
N11   Ni4   S    
N15   N23   A    
N12   Ni3   S    
C122  H94   S    
C137  H129  S    
C142  H140  S    
C139  H132  S    
C48   N8    A    
N1    Ni1   S    
C125  H101  S    
C133  H119  S    
C134  H122  S    
N8    Ni8   S    
C46   N6    A    
O11   C135  S    
C87   H31   S    
C88   H32   S    
C143  H142  S    
C71   O11   S    
C112  H65   S    
C15   C83   A    
C144  H144  S    
C5    C45   A    
C19   H43   S    
C144  C145  S    
C7    C47   A    
C106  C107  S    
C17   H41   S    
C8    C48   A    
C99   N31   A    
O9    C129  S    
C120  C121  S    
C97   C101  A    
C97   N29   A    
C110  H60   S    
N14   N22   A    
C145  C146  S    
C117  H81   S    
C48   H168  S    
C26   C58   S    
C97   H37   S    
C74   H18   S    
C16   C92   A    
C118  H84   S    
C94   H34   S    
C31   C35   A    
C45   N5    A    
C14   C82   A    
C78   H22   S    
C32   C36   A    
C146  H148  S    
C119  H85   S    
N10   N18   A    
N28   Ni7   S    
C57   H13   S    
N7    N27   A    
C83   N15   A    
N8    N28   A    
C59   H15   S    
C96   N28   A    
C126  H103  S    
C81   N13   A    
C36   C38   A    
C124  H98   S    
C43   C51   A    
C109  C110  S    
C65   C69   A    
C13   C22   S    
C60   H16   S    
C67   C71   A    
C115  H72   S    
N30   Ni1   S    
C138  H130  S    
C123  H96   S    
C125  H99   S    
C91   H171  S    
C21   H1    S    
C85   H29   S    
C146  H150  S    
N4    Ni4   S    
C136  H125  S    
C132  H116  S    
C58   O6    S    
C8    C96   A    
O3    C111  S    
N16   Ni7   S    
C53   C59   S    
C54   C60   S    
C108  H56   S    
C33   C39   A    
C47   N7    A    
C75   H19   S    
C131  H113  S    
C35   C37   A    
C38   C42   A    
C129  H109  S    
C148  C149  S    
C58   H14   S    
C115  C116  S    
C45   H165  S    
C9    C66   S    
C76   O16   S    
C28   C50   A    
C148  H153  S    
C107  H53   S    
C108  C109  S    
C70   O10   S    
C82   H26   S    
C84   N16   A    
N32   Ni3   S    
N2    N30   A    
C138  C139  S    
C134  H120  S    
C150  H159  S    
C61   C62   A    
N11   N19   A    
N10   Ni1   S    
C5    C29   S    
C12   C67   S    
C63   C67   A    
N25   Ni6   S    
C7    C31   S    
C8    C32   S    
C20   C24   D    
C111  H63   S    
C120  H89   S    
C39   C43   A    
C128  H106  S    
C22   H2    S    
N17   Ni5   S    
C140  H136  S    
C25   C51   A    
O12   C138  S    
C3    H47   S    
C146  H149  S    
N24   Ni4   S    
N21   Ni1   S    
C121  H90   S    
C114  C115  S    
N1    N29   A    
C145  H146  S    
C116  H75   S    
C94   N26   A    
C110  H61   S    
C145  H147  S    
C92   H172  S    
C81   H25   S    
C132  C133  S    
C127  H105  S    
C33   H5    S    
C122  H92   S    
C35   H7    S    
C135  H123  S    
C152  H162  S    
C10   C65   S    
C6    C46   A    
C13   C89   A    
C131  H115  S    
C3    N3    A    
C18   H42   S    
C5    C93   A    
C119  H87   S    
C7    C95   A    
C73   H17   S    
C56   O4    S    
C27   C59   S    
C40   H12   S    
N5    Ni5   S    
C107  H55   S    
C12   C80   A    
C130  H112  S    
C113  H67   S    
C151  H161  S    
C93   H33   S    
N6    N26   A    
C109  H59   S    
C136  C137  S    
C34   C40   A    
C55   H79   S    
C108  H57   S    
C98   H38   S    
C52   C56   S    
C77   N9    A    
