data_mof_unit_818.cif
_audit_creation_date              2012-10-26T18:25:37-0400
_audit_creation_method            fapswitch 2.2
_symmetry_space_group_name_H-M    P1
_symmetry_Int_Tables_number       1
_space_group_crystal_system       triclinic
_cell_length_a                    7.621537
_cell_length_b                    8.704403
_cell_length_c                    11.023918
_cell_angle_alpha                 86.414169
_cell_angle_beta                  71.935913
_cell_angle_gamma                 103.290769
_cell_volume                      669.55113574

loop_
_atom_site_label
_atom_site_type_symbol
_atom_type_description
_atom_site_fract_x
_atom_site_fract_y
_atom_site_fract_z
_atom_type_partial_charge
C1    C     C_R   0.451735 0.199910 0.503977 0.541567
C2    C     C_2   0.575126 0.969230 0.488754 -0.163065
C3    C     C_3   0.891962 0.309741 0.614902 -0.047354
C4    C     C_3   0.922417 0.269453 0.743019 -0.297452
C5    C     C_3   0.757072 0.134106 0.831676 -0.505242
C6    C     C_3   0.113077 0.644013 0.347320 -0.047093
C7    C     C_3   0.070442 0.802654 0.315637 -0.296696
C8    C     C_3   0.238549 0.913516 0.207072 -0.502391
C9    C     C_R   0.548599 0.800161 0.494483 0.541475
C10   C     C_R   0.422198 0.490646 0.742630 0.549577
C11   C     C_R   0.577499 0.506823 0.257541 0.549524
C12   C     C_2   0.378711 0.480866 0.881602 -0.138927
C13   C     C_2   0.620704 0.509877 0.118990 -0.133751
C14   C     C_2   0.519769 0.494094 0.931381 -0.167796
C15   C     C_2   0.478705 0.482917 0.069753 -0.168155
C16   C     C_2   0.425415 0.030929 0.506898 -0.160118
Cu1   Cu    Cu3+1 0.688910 0.517800 0.485820 0.905183
Cu2   Cu    Cu3+1 0.311090 0.482200 0.514180 0.905447
H1    H     H_    0.330182 0.453710 0.131605 0.148767
H2    H     H_    0.053941 0.228377 0.725985 0.203957
H3    H     H_    0.931332 0.375885 0.793707 0.172930
H4    H     H_    0.746567 0.318414 0.644619 0.200733
H5    H     H_    0.905030 0.208787 0.559263 0.121308
H6    H     H_    0.367294 0.945223 0.236958 0.154321
H7    H     H_    0.272149 0.855102 0.118972 0.152199
H8    H     H_    0.200991 0.025179 0.183968 0.155171
H9    H     H_    0.945453 0.781891 0.282090 0.202085
H10   H     H_    0.044102 0.864404 0.402206 0.178227
H11   H     H_    0.253437 0.681024 0.355079 0.201461
H12   H     H_    0.667795 0.515142 0.869762 0.158912
H13   H     H_    0.118684 0.576073 0.265001 0.118041
H14   H     H_    0.769126 0.536216 0.056776 0.095057
H15   H     H_    0.231111 0.461701 0.943520 0.093393
H16   H     H_    0.281439 0.956824 0.525301 0.128401
H17   H     H_    0.719218 0.043128 0.468552 0.114866
H18   H     H_    0.620985 0.170329 0.857442 0.155755
H19   H     H_    0.741337 0.025738 0.783609 0.158140
H20   H     H_    0.786036 0.104808 0.921901 0.151199
N1    N     N_2   0.027170 0.455360 0.535550 -0.144778
N2    N     N_2   0.972830 0.544640 0.464450 -0.144386
O1    O     O_R   0.622710 0.286400 0.490790 -0.528700
O2    O     O_R   0.377290 0.713600 0.509210 -0.515341
O3    O     O_R   0.303660 0.256330 0.514730 -0.511881
O4    O     O_R   0.696340 0.743670 0.485270 -0.515142
O5    O     O_R   0.600900 0.509520 0.671740 -0.515038
O6    O     O_R   0.399100 0.490480 0.328260 -0.528914
O7    O     O_R   0.281840 0.479450 0.695690 -0.513964
O8    O     O_R   0.718160 0.520550 0.304310 -0.511514

loop_
_geom_bond_atom_site_label_1
_geom_bond_atom_site_label_2
_ccdc_geom_bond_type
C2    H17   S    
Cu2   N1    S    
C6    C7    S    
C8    H7    S    
C5    H19   S    
C2    C16   D    
C3    H4    S    
C13   H14   S    
C3    H5    S    
Cu1   O8    S    
Cu2   O7    S    
C10   O5    A    
C13   C15   D    
Cu1   Cu2   S    
C11   O8    A    
Cu1   O4    S    
C3    N1    S    
C7    C8    S    
C1    C16   S    
C5    H20   S    
C15   H1    S    
C4    H3    S    
C11   C13   S    
C9    O2    A    
C10   C12   S    
C14   H12   S    
Cu2   O6    S    
C1    O1    A    
C8    H6    S    
C12   C14   D    
C6    H13   S    
Cu1   O1    S    
Cu2   O2    S    
C6    N2    S    
C3    C4    S    
C4    H2    S    
C5    H18   S    
N1    N2    D    
C6    H11   S    
C8    H8    S    
Cu2   O3    S    
C10   O7    A    
C7    H9    S    
C11   O6    A    
C16   H16   S    
C12   H15   S    
C14   C15   S    
C2    C9    S    
C1    O3    A    
C7    H10   S    
Cu1   O5    S    
C4    C5    S    
C9    O4    A    
Cu1   N2    S    
