data_mof_unit_1313.cif
_audit_creation_date              2012-12-10T18:50:53-0500
_audit_creation_method            fapswitch 2.2
_symmetry_space_group_name_H-M    P1
_symmetry_Int_Tables_number       1
_space_group_crystal_system       triclinic
_cell_length_a                    10.62474
_cell_length_b                    9.837291
_cell_length_c                    15.764932
_cell_angle_alpha                 91.065072
_cell_angle_beta                  89.706397
_cell_angle_gamma                 91.009709
_cell_volume                      1647.17010307

loop_
_atom_site_label
_atom_site_type_symbol
_atom_type_description
_atom_site_fract_x
_atom_site_fract_y
_atom_site_fract_z
_atom_type_partial_charge
C1    C     C_R   0.259577 0.498487 0.509656 0.981181
C2    C     C_R   0.941890 0.626935 0.492792 0.220911
C3    C     C_R   0.874805 0.504615 0.475945 -0.373522
C4    C     C_R   0.124099 0.494174 0.519700 -0.354918
C5    C     C_R   0.478339 0.073507 0.573114 0.044374
C6    C     C_R   0.478655 0.929832 0.573148 0.031955
C7    C     C_R   0.500474 0.498673 0.338328 0.885604
C8    C     C_R   0.521482 0.926491 0.426810 0.056329
C9    C     C_R   0.521227 0.070179 0.426778 0.034808
C10   C     C_R   0.739863 0.501261 0.489047 0.992084
C11   C     C_R   0.499404 0.501316 0.661681 0.925051
C12   C     C_3   0.651082 0.475885 0.944033 0.541245
C13   C     C_3   0.463557 0.637941 0.053787 0.075636
C14   C     C_3   0.416235 0.389636 0.047458 0.147350
C15   C     C_3   0.421062 0.384276 0.948459 0.614160
C16   C     C_3   0.468156 0.646070 0.954686 0.626053
C17   C     C_1   0.501289 0.504868 0.750251 -0.132639
C18   C     C_3   0.517537 0.496651 0.083389 -0.457566
C19   C     C_3   0.510969 0.503507 0.917029 -0.116699
C20   C     C_3   0.657437 0.470527 0.045307 0.578192
C21   C     C_1   0.504730 0.506524 0.825329 0.136171
C22   C     C_1   0.513234 0.494089 0.174721 0.281607
C23   C     C_1   0.506780 0.495292 0.249817 0.027294
C24   C     C_R   0.057549 0.371373 0.501269 0.189598
C25   C     C_R   0.061717 0.618808 0.526504 0.284487
C26   C     C_R   0.936900 0.379873 0.468459 0.305737
H1    H     H_    0.539272 0.871374 0.368175 0.194393
H2    H     H_    0.304631 0.868801 0.104525 0.371223
H3    H     H_    0.446480 0.247651 0.858201 0.356000
H4    H     H_    0.537087 0.768581 0.868836 0.363631
H5    H     H_    0.843063 0.657970 0.210955 0.404334
H6    H     H_    0.705900 0.108031 0.015885 0.418756
H7    H     H_    0.817263 0.546771 0.908761 0.397418
H8    H     H_    0.706418 0.364599 0.845473 0.353176
H9    H     H_    0.209331 0.196463 0.415222 0.358109
H10   H     H_    0.252255 0.767734 0.698350 0.380705
H11   H     H_    0.943622 0.100739 0.310996 0.413775
H12   H     H_    0.538811 0.122848 0.368200 0.188972
H13   H     H_    0.050143 0.831879 0.376636 0.347342
H14   H     H_    0.361545 0.634350 0.069147 0.122653
H15   H     H_    0.322727 0.433126 0.061936 0.153067
H16   H     H_    0.460454 0.128635 0.631735 0.152602
H17   H     H_    0.461134 0.877165 0.631712 0.135561
H18   H     H_    0.327082 0.769211 0.943474 0.363580
H19   H     H_    0.247199 0.321175 0.931882 0.384969
H20   H     H_    0.230749 0.159967 0.182593 0.399272
N1    N     N_R   0.499970 0.857200 0.499980 -0.096060
N2    N     N_R   0.499970 0.142800 0.499980 -0.099039
O1    O     O_R   0.316750 0.614620 0.499990 -0.573750
O2    O     O_3   0.298636 0.402264 0.916201 -0.703923
O3    O     O_2   0.368223 0.113604 0.039928 -0.185507
O4    O     O_2   0.480772 0.197230 0.166263 -0.201075
O5    O     O_3   0.245185 0.247734 0.153974 -0.541288
O6    O     O_2   0.580469 0.774703 0.188682 -0.211053
O7    O     O_2   0.550131 0.905534 0.061159 -0.112798
O8    O     O_3   0.357057 0.850465 0.154659 -0.523784
O9    O     O_3   0.465786 0.257438 0.919582 -0.633275
O10   O     O_3   0.552898 0.749702 0.929467 -0.624877
O11   O     O_2   0.904371 0.556767 0.058572 -0.235460
O12   O     O_R   0.316750 0.385380 0.499990 -0.601538
O13   O     O_2   0.751388 0.735235 0.056501 -0.164025
O14   O     O_3   0.773159 0.595444 0.194025 -0.499078
O15   O     O_2   0.855156 0.296183 0.048373 -0.212423
O16   O     O_2   0.717963 0.295051 0.172088 -0.188035
O17   O     O_3   0.641151 0.174302 0.033305 -0.380316
O18   O     O_3   0.729907 0.580750 0.912166 -0.688043
O19   O     O_3   0.690433 0.351253 0.906890 -0.692754
O20   O     O_2   0.196001 0.232328 0.612617 -0.265873
O21   O     O_2   0.002706 0.122390 0.563271 -0.109775
O22   O     O_3   0.192941 0.128907 0.459869 -0.440528
O23   O     O_R   0.499990 0.614720 0.377140 -0.612196
O24   O     O_2   0.194124 0.854646 0.541611 -0.212167
O25   O     O_2   0.016122 0.822634 0.639026 -0.181681
O26   O     O_3   0.218759 0.687917 0.665953 -0.546658
O27   O     O_2   0.806381 0.142170 0.457557 -0.204756
O28   O     O_2   0.780432 0.302273 0.342448 -0.260054
O29   O     O_3   0.987662 0.169029 0.347642 -0.497891
O30   O     O_2   0.801930 0.763768 0.380858 -0.300690
O31   O     O_2   0.818604 0.859512 0.524810 -0.171595
O32   O     O_3   0.010507 0.883845 0.423773 -0.400473
O33   O     O_R   0.499990 0.385280 0.377140 -0.614920
O34   O     O_R   0.683220 0.614710 0.500000 -0.561764
O35   O     O_R   0.683220 0.385290 0.500000 -0.575086
O36   O     O_R   0.499980 0.614620 0.622860 -0.617537
O37   O     O_R   0.499980 0.385380 0.622860 -0.627259
O38   O     O_3   0.346899 0.675269 0.924166 -0.720605
S1    S     S_3+6 0.382902 0.230500 0.101951 0.118092
S2    S     S_3+6 0.494677 0.795149 0.114877 0.140453
S3    S     S_3+6 0.774218 0.594534 0.087310 0.140795
S4    S     S_3+6 0.720454 0.306692 0.077336 0.182345
S5    S     S_3+6 0.112092 0.210816 0.536857 0.174353
S6    S     S_3+6 0.122073 0.752722 0.593425 0.128571
S7    S     S_3+6 0.872916 0.245323 0.403536 0.129309
S8    S     S_3+6 0.888444 0.786015 0.455225 0.136897
Zn1   Zn    Zn3+2 0.499980 0.653120 0.500000 1.075251
Zn2   Zn    Zn3+2 0.499980 0.346880 0.500000 1.059518

loop_
_geom_bond_atom_site_label_1
_geom_bond_atom_site_label_2
_ccdc_geom_bond_type
C5    H16   S    
C14   C18   S    
O22   S5    S    
O16   S4    D    
C4    C25   A    
H2    O8    S    
C15   C19   S    
C13   C18   S    
C20   S4    S    
C19   C21   S    
C24   C26   A    
C14   S1    S    
C7    O23   A    
C5    C6    A    
C4    C24   A    
O37   Zn2   S    
C7    C23   S    
O8    S2    S    
O23   Zn1   S    
O14   S3    S    
C10   O35   A    
O20   S5    D    
C13   S2    S    
O15   S4    D    
O11   S3    D    
C15   O2    S    
O26   S6    S    
O7    S2    D    
C13   H14   S    
H9    O22   S    
C8    C9    A    
C26   S7    S    
C16   O38   S    
C15   O9    S    
H5    O14   S    
H18   O38   S    
C22   C23   T    
C12   O19   S    
O13   S3    D    
H7    O18   S    
C3    C26   A    
O17   S4    S    
C5    N2    A    
C6    N1    A    
C2    S8    S    
O31   S8    D    
C1    O12   A    
O3    S1    D    
O33   Zn2   S    
C12   O18   S    
C10   O34   A    
C17   C21   T    
O36   Zn1   S    
O28   S7    D    
C12   C20   S    
O5    S1    S    
C16   O10   S    
O1    Zn1   S    
H10   O26   S    
C14   H15   S    
O12   Zn2   S    
C7    O33   A    
H3    O9    S    
C6    H17   S    
O32   S8    S    
C24   S5    S    
O27   S7    D    
C11   C17   S    
C25   S6    S    
O34   Zn1   S    
N2    Zn2   S    
C18   C22   S    
O4    S1    D    
O25   S6    D    
H8    O19   S    
C12   C19   S    
O30   S8    D    
C11   O36   A    
C20   S3    S    
C1    C4    S    
H13   O32   S    
C2    C3    A    
C8    N1    A    
C3    C10   S    
O6    S2    D    
H11   O29   S    
H19   O2    S    
C11   O37   A    
C16   C19   S    
O24   S6    D    
O35   Zn2   S    
H4    O10   S    
H20   O5    S    
O29   S7    S    
C9    H12   S    
C2    C25   A    
C18   C20   S    
C9    N2    A    
C13   C16   S    
C8    H1    S    
N1    Zn1   S    
C14   C15   S    
O21   S5    D    
C1    O1    A    
H6    O17   S    
