data_mof_unit_3196.cif
_audit_creation_date              2012-12-11T15:39:12-0500
_audit_creation_method            fapswitch 2.2
_symmetry_space_group_name_H-M    P1
_symmetry_Int_Tables_number       1
_space_group_crystal_system       triclinic
_cell_length_a                    14.308045
_cell_length_b                    14.785312
_cell_length_c                    33.169424
_cell_angle_alpha                 97.902854
_cell_angle_beta                  90.652765
_cell_angle_gamma                 118.487052
_cell_volume                      6084.87955147

loop_
_atom_site_label
_atom_site_type_symbol
_atom_type_description
_atom_site_fract_x
_atom_site_fract_y
_atom_site_fract_z
_atom_type_partial_charge
C1    C     C_R   0.616640 0.909942 0.437005 0.559741
C2    C     C_R   0.750825 0.421302 0.187185 -0.001918
C3    C     C_R   0.718470 0.896594 0.655408 0.235132
C4    C     C_R   0.635685 0.799982 0.662947 0.049298
C5    C     C_R   0.633376 0.862781 0.586824 -0.069920
C6    C     C_R   0.054832 0.782490 0.063246 0.557200
C7    C     C_R   0.744173 0.486104 0.066079 0.544926
C8    C     C_R   0.741630 0.790154 0.066030 0.562219
C9    C     C_R   0.020987 0.731716 0.947200 0.565999
C10   C     C_R   0.710623 0.434190 0.949951 0.539865
C11   C     C_R   0.710566 0.739597 0.950066 0.530335
C12   C     C_R   0.828020 0.418185 0.161524 0.023114
C13   C     C_R   0.819011 0.427024 0.119993 0.285326
C14   C     C_R   0.742896 0.320928 0.242473 -0.129508
C15   C     C_R   0.734467 0.308373 0.283271 -0.129703
C16   C     C_R   0.735531 0.386552 0.312867 0.047764
C17   C     C_R   0.750344 0.480994 0.301526 0.015853
C18   C     C_R   0.759109 0.492731 0.260318 -0.097168
C19   C     C_R   0.754039 0.412574 0.230752 0.015385
C20   C     C_R   0.610554 0.345669 0.367065 -0.106645
C21   C     C_R   0.593487 0.205027 0.456345 0.554789
C22   C     C_R   0.574373 0.302219 0.402492 0.265468
C23   C     C_R   0.738215 0.292571 0.411878 -0.174597
C24   C     C_R   0.773848 0.337156 0.377016 -0.139699
C25   C     C_R   0.708940 0.361124 0.353893 -0.018880
C26   C     C_R   0.636422 0.270191 0.424040 0.023433
C27   C     C_R   0.244099 0.879134 0.393264 0.010588
C28   C     C_R   0.258114 0.969316 0.378483 -0.164464
C29   C     C_R   0.235193 0.966986 0.337217 -0.007827
C30   C     C_R   0.194084 0.871942 0.310357 -0.003935
C31   C     C_R   0.170536 0.779918 0.325236 -0.132503
C32   C     C_R   0.294875 0.892599 0.434425 0.561994
C33   C     C_R   0.197569 0.782508 0.366672 0.263957
C34   C     C_R   0.203885 0.807998 0.161789 -0.111811
C35   C     C_R   0.181973 0.792467 0.119377 -0.037167
C36   C     C_R   0.101885 0.906452 0.129202 0.248474
C37   C     C_R   0.124149 0.920383 0.171434 -0.095347
C38   C     C_R   0.170076 0.867199 0.187669 -0.025783
C39   C     C_1   0.177718 0.869046 0.230878 -0.034031
C40   C     C_1   0.183357 0.869308 0.267053 -0.032483
C41   C     C_R   0.120153 0.833200 0.103072 0.025084
C42   C     C_R   0.633783 0.879087 0.394701 -0.021322
C43   C     C_R   0.614258 0.905022 0.551574 0.546636
C44   C     C_R   0.544078 0.821351 0.366169 -0.170295
C45   C     C_R   0.555386 0.815140 0.324250 0.270136
C46   C     C_R   0.657820 0.862672 0.310638 -0.003672
C47   C     C_R   0.748047 0.913361 0.338733 -0.153183
C48   C     C_R   0.736935 0.920862 0.380858 0.258959
C49   C     C_R   0.770976 0.932710 0.172719 -0.104307
C50   C     C_R   0.783725 0.918417 0.130934 0.278589
C51   C     C_R   0.611766 0.758436 0.120849 -0.054809
C52   C     C_R   0.600049 0.776015 0.162590 -0.112501
C53   C     C_R   0.681794 0.859147 0.188606 -0.031193
C54   C     C_R   0.589158 0.198307 0.571348 0.534320
C55   C     C_1   0.676301 0.864282 0.231835 -0.020149
C56   C     C_1   0.669719 0.864397 0.267883 0.011057
C57   C     C_R   0.709705 0.824857 0.105342 0.030301
C58   C     C_R   0.619821 0.243914 0.615232 0.004575
C59   C     C_R   0.553670 0.273579 0.637973 -0.109092
C60   C     C_R   0.565413 0.291278 0.680902 0.014200
C61   C     C_R   0.645321 0.279802 0.701336 0.052447
C62   C     C_R   0.716481 0.258406 0.678751 -0.135552
C63   C     C_R   0.703944 0.240488 0.636082 -0.138450
C64   C     C_R   0.743599 0.309309 0.848489 -0.135138
C65   C     C_R   0.290346 0.888150 0.548832 0.549821
C66   C     C_R   0.755512 0.337717 0.891048 0.201911
C67   C     C_R   0.579828 0.325472 0.888565 0.243582
C68   C     C_R   0.567298 0.294954 0.845821 0.011428
C69   C     C_R   0.653253 0.294337 0.825582 -0.047292
C70   C     C_1   0.653529 0.287126 0.781693 -0.037780
C71   C     C_1   0.651539 0.284110 0.745129 -0.035773
C72   C     C_R   0.679878 0.360228 0.910554 -0.006968
C73   C     C_R   0.066693 0.754255 0.907809 0.029206
C74   C     C_R   0.126627 0.859271 0.901492 0.263119
C75   C     C_R   0.158209 0.881262 0.862180 0.037567
C76   C     C_R   0.738839 0.447722 0.105290 0.009804
C77   C     C_R   0.118581 0.798590 0.829056 0.035205
C78   C     C_R   0.061848 0.695682 0.835594 -0.110948
C79   C     C_R   0.037004 0.672132 0.874471 -0.093581
C80   C     C_R   0.182768 0.775160 0.761707 0.229781
C81   C     C_R   0.181818 0.779480 0.720203 -0.122826
C82   C     C_R   0.128242 0.824869 0.702813 -0.017582
C83   C     C_R   0.070590 0.863795 0.727100 0.032717
C84   C     C_R   0.070773 0.858928 0.769216 0.248141
C85   C     C_R   0.128001 0.815485 0.786419 0.024964
C86   C     C_R   0.205306 0.942719 0.651712 0.287534
C87   C     C_R   0.660858 0.445882 0.130867 -0.182841
C88   C     C_R   0.246754 0.956055 0.613666 -0.115521
C89   C     C_R   0.163967 0.768686 0.592498 -0.143014
C90   C     C_R   0.122117 0.754294 0.630180 -0.174456
C91   C     C_R   0.146297 0.840704 0.660342 0.040197
C92   C     C_R   0.229279 0.869694 0.584639 -0.019402
C93   C     C_R   0.660945 0.745917 0.912064 0.002494
C94   C     C_R   0.568438 0.660502 0.891018 -0.117223
C95   C     C_R   0.535155 0.661674 0.851045 0.034802
C96   C     C_R   0.598854 0.748198 0.831590 0.049878
C97   C     C_R   0.684967 0.836348 0.854411 -0.164729
C98   C     C_R   0.666582 0.432280 0.171164 -0.156100
C99   C     C_R   0.714969 0.835681 0.894087 -0.145319
C100  C     C_R   0.592600 0.836641 0.774260 -0.194198
C101  C     C_R   0.607412 0.852000 0.733978 -0.099976
C102  C     C_R   0.619546 0.780029 0.705480 0.054642
C103  C     C_R   0.610439 0.688811 0.717384 -0.057916
C104  C     C_R   0.595590 0.672583 0.758128 0.281105
C105  C     C_R   0.588213 0.748250 0.787098 0.022306
C106  C     C_R   0.559096 0.730087 0.631084 0.235609
C107  C     C_R   0.557215 0.763057 0.593580 -0.128688
C108  C     C_R   0.717881 0.926107 0.616754 -0.138153
Cr1   Cr    Cr6+3 0.424820 0.846020 0.489780 1.023862
Cr2   Cr    Cr6+3 0.657880 0.078580 0.505700 1.028366
Cr3   Cr    Cr6+3 0.417280 0.075360 0.504550 1.017039
Cr4   Cr    Cr6+3 0.903360 0.812540 0.006510 1.041469
Cr5   Cr    Cr6+3 0.914630 0.587050 0.006280 1.055162
Cr6   Cr    Cr6+3 0.673560 0.582680 0.008540 1.007874
H1    H     H_    0.597770 0.460072 0.120383 0.139170
H2    H     H_    0.788485 0.270651 0.428087 0.149507
H3    H     H_    0.244205 0.770925 0.174689 0.118708
H4    H     H_    0.134444 0.707082 0.304098 0.109586
H5    H     H_    0.293619 0.043789 0.398649 0.174421
H6    H     H_    0.101212 0.969327 0.191549 0.130650
H7    H     H_    0.832838 0.999382 0.192873 0.120633
H8    H     H_    0.827048 0.950331 0.328055 0.124893
H9    H     H_    0.464237 0.787657 0.376134 0.148099
H10   H     H_    0.528900 0.721927 0.175230 0.132841
H11   H     H_    0.849812 0.348249 0.366911 0.130157
H12   H     H_    0.807518 0.303506 0.833187 0.135620
H13   H     H_    0.779254 0.251332 0.694178 0.096207
H14   H     H_    0.756290 0.217783 0.619547 0.127158
H15   H     H_    0.488820 0.277083 0.622354 0.114455
H16   H     H_    0.076922 0.675812 0.636939 0.121354
H17   H     H_    0.722033 0.235272 0.291557 0.113593
H18   H     H_    0.225609 0.749220 0.701546 0.144054
H19   H     H_    0.300496 0.034062 0.608133 0.133760
H20   H     H_    0.032945 0.633205 0.809577 0.143519
H21   H     H_    0.149711 0.701344 0.570380 0.140532
H22   H     H_    0.523968 0.591809 0.905084 0.144177
H23   H     H_    0.737385 0.257944 0.219827 0.109665
H24   H     H_    0.785332 0.903845 0.909672 0.126268
H25   H     H_    0.610292 0.921002 0.725072 0.126362
H26   H     H_    0.587617 0.895771 0.795940 0.104687
H27   H     H_    0.616254 0.630927 0.695316 0.124917
H28   H     H_    0.491452 0.712953 0.570741 0.143383
H29   H     H_    0.733936 0.904460 0.840650 0.109602
H30   H     H_    0.606241 0.433227 0.190416 0.125438
H31   H     H_    0.779552 0.000783 0.610854 0.133543
H32   H     H_    0.768056 0.563809 0.251072 0.118187
H33   H     H_    0.559132 0.361988 0.348596 0.121253
O1    O     O_R   0.318160 0.824460 0.443680 -0.463645
O2    O     O_R   0.645130 0.163230 0.552140 -0.501007
O3    O     O_R   0.498360 0.178430 0.555780 -0.527488
O4    O     O_R   0.328690 0.978040 0.538950 -0.508944
O5    O     O_3   0.499990 0.999990 0.500010 -0.247935
O6    O     O_R   0.828710 0.851830 0.052170 -0.440300
O7    O     O_R   0.005980 0.823990 0.047210 -0.448600
O8    O     O_R   0.031900 0.688850 0.050170 -0.507699
O9    O     O_R   0.830940 0.518420 0.048680 -0.446261
O10   O     O_R   0.668160 0.499860 0.053480 -0.540724
O11   O     O_R   0.689170 0.693840 0.050110 -0.515271
O12   O     O_R   0.525040 0.857250 0.449830 -0.523336
O13   O     O_R   0.803860 0.812940 0.962540 -0.541110
O14   O     O_R   0.982950 0.787950 0.964120 -0.484790
O15   O     O_R   0.007050 0.649970 0.960540 -0.521832
O16   O     O_R   0.807910 0.482370 0.965590 -0.469901
O17   O     O_R   0.643310 0.460980 0.963840 -0.475006
O18   O     O_R   0.666140 0.657800 0.967020 -0.496467
O19   O     O_3   0.830520 0.660760 0.007110 -0.258001
O20   O     O_R   0.684760 0.998800 0.456360 -0.452928
O21   O     O_R   0.647540 0.166310 0.470260 -0.514451
O22   O     O_R   0.500960 0.181750 0.467450 -0.463285
O23   O     O_R   0.331100 0.981120 0.457080 -0.515644
O24   O     O_R   0.315560 0.821140 0.532010 -0.506554
O25   O     O_R   0.522630 0.854180 0.531710 -0.500456
O26   O     O_R   0.682160 0.995480 0.544690 -0.515950
O27   O     O_3   0.473025 0.279383 0.412843 -0.563049
C109  C     C_3   0.475514 0.372560 0.431027 -0.122894
H34   H     H_    0.492726 0.427205 0.408753 0.102429
H35   H     H_    0.534518 0.411083 0.458363 0.114653
H36   H     H_    0.395692 0.353284 0.441439 0.139287
C110  C     C_3   0.923069 0.410677 0.177493 -0.371489
H37   H     H_    0.931300 0.418539 0.211206 0.122971
H38   H     H_    0.916345 0.334589 0.164026 0.119546
H39   H     H_    0.997695 0.474479 0.168813 0.163113
C111  C     C_3   0.222486 0.729462 0.093000 -0.381098
H40   H     H_    0.304772 0.751212 0.104727 0.111817
H41   H     H_    0.169781 0.645097 0.093455 0.167851
H42   H     H_    0.226774 0.744851 0.061064 0.144893
O28   O     O_3   0.174893 0.692674 0.382683 -0.547733
C112  C     C_3   0.199933 0.624920 0.356548 -0.116373
H43   H     H_    0.275665 0.667455 0.342199 0.134690
H44   H     H_    0.132748 0.574446 0.332910 0.114326
H45   H     H_    0.210900 0.572958 0.374972 0.141932
O29   O     O_3   0.050186 0.955221 0.114516 -0.495557
C113  C     C_3   0.128056 0.049370 0.103380 -0.076383
H46   H     H_    0.182012 0.103544 0.130437 0.092107
H47   H     H_    0.087216 0.088135 0.090624 0.153060
H48   H     H_    0.175189 0.035233 0.079233 0.096628
O30   O     O_3   0.895019 0.424806 0.095044 -0.552204
C114  C     C_3   0.851846 0.324442 0.071495 -0.125823
H49   H     H_    0.782274 0.307341 0.050432 0.102865
H50   H     H_    0.828655 0.263176 0.091213 0.087855
H51   H     H_    0.913788 0.321287 0.052459 0.126783
C115  C     C_3   0.258949 0.066755 0.322036 -0.384653
H52   H     H_    0.290411 0.134324 0.347280 0.158004
H53   H     H_    0.319597 0.083699 0.299504 0.137206
H54   H     H_    0.184791 0.058633 0.307191 0.132104
O31   O     O_3   0.874532 0.991265 0.116337 -0.504453
C116  C     C_3   0.857846 0.074427 0.109048 -0.126134
H55   H     H_    0.847836 0.115949 0.137907 0.095759
H56   H     H_    0.787913 0.047021 0.086430 0.099996
H57   H     H_    0.929150 0.131490 0.095976 0.124085
O32   O     O_3   0.826491 0.977385 0.408272 -0.541795
C117  C     C_3   0.874789 0.914978 0.412353 -0.116666
H58   H     H_    0.905943 0.898261 0.383289 0.111183
H59   H     H_    0.818544 0.840898 0.422915 0.107392
H60   H     H_    0.943684 0.958294 0.435811 0.146112
C118  C     C_3   0.519523 0.667456 0.094389 -0.384534
H61   H     H_    0.533946 0.599530 0.089160 0.165026
H62   H     H_    0.443636 0.643005 0.109130 0.106740
H63   H     H_    0.508139 0.689606 0.064789 0.133132
O33   O     O_3   0.465888 0.762292 0.296618 -0.572480
C119  C     C_3   0.425280 0.830439 0.291258 -0.129845
H64   H     H_    0.483577 0.898268 0.277692 0.125308
H65   H     H_    0.402527 0.858009 0.320513 0.118110
H66   H     H_    0.352264 0.787561 0.269717 0.139492
O34   O     O_3   0.847932 0.355262 0.912182 -0.563923
C120  C     C_3   0.822634 0.272577 0.934187 -0.113612
H67   H     H_    0.788246 0.196301 0.913339 0.106875
H68   H     H_    0.767175 0.270255 0.957779 0.099763
H69   H     H_    0.897212 0.285051 0.950301 0.129615
C121  C     C_3   0.462738 0.266701 0.822872 -0.348791
H70   H     H_    0.457831 0.235340 0.790180 0.126746
H71   H     H_    0.395718 0.205444 0.836347 0.143191
H72   H     H_    0.451901 0.336637 0.825143 0.151048
O35   O     O_3   0.495491 0.327876 0.907819 -0.551145
C122  C     C_3   0.451858 0.245355 0.930727 -0.112520
H73   H     H_    0.502884 0.264537 0.959456 0.127491
H74   H     H_    0.440369 0.170534 0.913068 0.094531
H75   H     H_    0.372434 0.233439 0.939164 0.139670
C123  C     C_3   0.489476 0.317362 0.704261 -0.396929
H76   H     H_    0.437058 0.330932 0.683785 0.114003
H77   H     H_    0.438299 0.252088 0.720370 0.153629
H78   H     H_    0.534999 0.389298 0.726880 0.176103
O36   O     O_3   0.155765 0.939371 0.934265 -0.579119
C124  C     C_3   0.091193 0.987223 0.931329 -0.100315
H79   H     H_    0.005870 0.930160 0.921325 0.135366
H80   H     H_    0.122478 0.045525 0.910382 0.107971
H81   H     H_    0.093505 0.029439 0.961998 0.124263
C125  C     C_3   0.970359 0.559214 0.878505 -0.337158
H82   H     H_    0.894257 0.547092 0.890863 0.166136
H83   H     H_    0.950257 0.506709 0.848673 0.118411
H84   H     H_    0.014853 0.536517 0.898881 0.202241
O37   O     O_3   0.230684 0.724224 0.777668 -0.567633
C126  C     C_3   0.340549 0.794278 0.786407 -0.111639
H85   H     H_    0.355108 0.863923 0.808814 0.111529
H86   H     H_    0.379694 0.818355 0.758061 0.127835
H87   H     H_    0.377993 0.754168 0.800462 0.149983
C127  C     C_3   0.234914 0.990713 0.855555 -0.374875
H88   H     H_    0.273888 0.043303 0.884779 0.146457
H89   H     H_    0.299340 0.990539 0.837292 0.107823
H90   H     H_    0.192797 0.023284 0.839279 0.174482
C128  C     C_3   0.007075 0.908551 0.709082 -0.300125
H91   H     H_    0.007812 0.903513 0.675474 0.127648
H92   H     H_    0.922147 0.864784 0.715195 0.153187
H93   H     H_    0.039444 0.991581 0.723035 0.178807
O38   O     O_3   0.021098 0.903493 0.793847 -0.582077
C129  C     C_3   0.917551 0.825849 0.799184 -0.134424
H94   H     H_    0.920056 0.776052 0.820867 0.116304
H95   H     H_    0.872715 0.776896 0.769796 0.098829
H96   H     H_    0.872684 0.864636 0.812580 0.148136
O39   O     O_3   0.235725 0.026921 0.682996 -0.566118
C130  C     C_3   0.218335 0.105073 0.669897 -0.146847
H97   H     H_    0.140662 0.072200 0.651205 0.108086
H98   H     H_    0.285134 0.154909 0.652852 0.114395
H99   H     H_    0.216197 0.156105 0.697298 0.141101
O40   O     O_3   0.799980 0.958284 0.686156 -0.580175
C131  C     C_3   0.819777 0.062531 0.692227 -0.141177
H100  H     H_    0.744905 0.068070 0.690385 0.109936
H101  H     H_    0.874849 0.106633 0.670219 0.113823
H102  H     H_    0.860010 0.100297 0.723352 0.142936
C132  C     C_3   0.432138 0.571000 0.830817 -0.352650
H103  H     H_    0.366769 0.559423 0.850735 0.115596
H104  H     H_    0.409063 0.583933 0.800974 0.166624
H105  H     H_    0.439699 0.499094 0.826128 0.160763
O41   O     O_3   0.580567 0.579537 0.768644 -0.589638
C133  C     C_3   0.680511 0.587536 0.778315 -0.150215
H106  H     H_    0.723787 0.648436 0.805397 0.120666
H107  H     H_    0.729194 0.601913 0.751641 0.101989
H108  H     H_    0.667266 0.512350 0.786574 0.148634
O42   O     O_3   0.476222 0.637009 0.638984 -0.561346
C134  C     C_3   0.481115 0.553054 0.615000 -0.130954
H109  H     H_    0.562172 0.560388 0.618181 0.102019
H110  H     H_    0.455896 0.545459 0.582348 0.110779
H111  H     H_    0.424814 0.479853 0.625821 0.141331
C135  C     C_3   0.756577 0.569901 0.331886 -0.410562
H112  H     H_    0.756485 0.556158 0.363912 0.139401
H113  H     H_    0.831615 0.642316 0.329517 0.134629
H114  H     H_    0.687689 0.582191 0.325056 0.127672

loop_
_geom_bond_atom_site_label_1
_geom_bond_atom_site_label_2
_ccdc_geom_bond_type
C51   C118  S    
C65   C92   S    
C21   C26   S    
C78   C79   A    
C67   O35   S    
C93   C94   A    
C89   H21   S    
C64   H12   S    
C130  H99   S    
C134  H111  S    
C52   H10   S    
C73   C74   A    
C104  C105  A    
C95   C96   A    
C132  H105  S    
C55   C56   T    
Cr2   O2    S    
C8    O11   A    
Cr3   O5    S    
C96   C105  S    
C81   C82   A    
C101  H25   S    
C116  H55   S    
C54   O3    A    
C77   C78   A    
C27   C33   A    
Cr4   O14   S    
C100  C105  A    
C37   C38   A    
C21   O21   A    
C115  H53   S    
C65   O24   A    
C112  H45   S    
C106  C107  A    
C27   C28   A    
C36   C37   A    
C123  H76   S    
C118  H62   S    
C88   H19   S    
C127  H88   S    
C119  H66   S    
Cr2   O5    S    
C86   C91   A    
C111  H41   S    
C54   C58   S    
C128  H91   S    
C34   C35   A    
C86   C88   A    
C117  H59   S    
C20   C25   A    
C1    O20   A    
C50   C57   A    
C35   C111  S    
O36   C124  S    
C21   O22   A    
C16   C25   S    
C1    C42   S    
C18   C19   A    
C124  H79   S    
C121  H72   S    
C112  H44   S    
C134  H109  S    
C23   C26   A    
O27   C109  S    
Cr6   O11   S    
C100  H26   S    
C127  H90   S    
C22   O27   S    
Cr5   O15   S    
Cr2   O21   S    
C66   C72   A    
C7    O9    A    
C88   C92   A    
C68   C121  S    
C16   C17   A    
C113  H47   S    
C6    C41   S    
C4    C102  S    
C17   C18   A    
C84   O38   S    
C116  H57   S    
C94   H22   S    
C122  H73   S    
C131  H102  S    
C99   H24   S    
C114  H49   S    
C51   C57   A    
O29   C113  S    
C123  H78   S    
C29   C30   A    
O38   C129  S    
C93   C99   A    
C87   H1    S    
C63   H14   S    
C113  H46   S    
C125  H84   S    
C47   C48   A    
C110  H39   S    
C98   H30   S    
C11   C93   S    
C34   H3    S    
C36   O29   S    
C23   H2    S    
C2    C12   A    
C59   C60   A    
C117  H58   S    
Cr4   O7    S    
C122  H74   S    
C36   C41   A    
O30   C114  S    
C42   C44   A    
Cr5   O8    S    
C125  H82   S    
C103  H27   S    
O33   C119  S    
C97   C99   A    
C125  H83   S    
C11   O13   A    
Cr6   O19   S    
C109  H36   S    
C17   C135  S    
C53   C55   S    
C106  O42   S    
C10   O17   A    
C38   C39   S    
C61   C62   A    
C74   C75   A    
C51   C52   A    
C101  C102  A    
C75   C127  S    
C1    O12   A    
Cr1   O5    S    
C84   C85   A    
C86   O39   S    
C135  H114  S    
C109  H35   S    
C115  H52   S    
C111  H42   S    
C39   C40   T    
C128  H92   S    
O31   C116  S    
C68   C69   A    
C47   H8    S    
C18   H32   S    
C58   C59   A    
C45   C46   A    
C4    C106  A    
C115  H54   S    
C82   C91   S    
C67   C68   A    
C60   C61   A    
C127  H89   S    
C123  H77   S    
C64   C66   A    
C65   O4    A    
C121  H71   S    
C111  H40   S    
C31   H4    S    
C80   C85   A    
C126  H85   S    
C8    C57   S    
Cr5   O16   S    
C119  H64   S    
C75   C77   A    
Cr2   O20   S    
C13   O30   S    
C13   C76   A    
Cr6   O17   S    
O32   C117  S    
C48   O32   S    
C30   C31   A    
C23   C24   A    
C118  H61   S    
C49   H7    S    
C96   C97   A    
C12   C110  S    
C62   C63   A    
C31   C33   A    
O42   C134  S    
C73   C79   A    
C20   H33   S    
C30   C40   S    
C94   C95   A    
C33   O28   S    
C60   C123  S    
C42   C48   A    
C64   C69   A    
C24   C25   A    
C89   C92   A    
C9    O14   A    
C8    O6    A    
C78   H20   S    
C76   C87   A    
C70   C71   T    
C129  H95   S    
C9    O15   A    
C7    O10   A    
C74   O36   S    
C50   O31   S    
O40   C131  S    
C131  H101  S    
C49   C50   A    
Cr6   O10   S    
C120  H68   S    
Cr4   O6    S    
C80   O37   S    
C24   H11   S    
C122  H75   S    
C83   C84   A    
Cr1   O1    S    
O35   C122  S    
C20   C22   A    
Cr5   O9    S    
C90   C91   A    
C3    C4    A    
Cr1   O12   S    
Cr3   O3    S    
Cr5   O19   S    
C67   C72   A    
C52   C53   A    
Cr3   O23   S    
Cr6   O18   S    
C126  H86   S    
C108  H31   S    
C5    C107  A    
Cr2   O26   S    
C58   C63   A    
C130  H98   S    
C32   O23   A    
C46   C47   A    
C28   C29   A    
C14   H23   S    
C107  H28   S    
C29   C115  S    
Cr4   O13   S    
O34   C120  S    
C2    C19   S    
C34   C38   A    
C117  H60   S    
C14   C19   A    
C9    C73   S    
C44   C45   A    
C6    O8    A    
C132  H104  S    
C80   C81   A    
C81   H18   S    
C28   H5    S    
Cr3   O4    S    
C133  H106  S    
C116  H56   S    
C43   O25   A    
Cr1   O25   S    
C3    O40   S    
C7    C76   S    
C32   O1    A    
C3    C108  A    
C133  H108  S    
C120  H69   S    
C44   H9    S    
C132  H103  S    
C128  H93   S    
C124  H81   S    
C95   C132  S    
C118  H63   S    
C79   C125  S    
C87   C98   A    
C126  H87   S    
C59   H15   S    
C121  H70   S    
C133  H107  S    
C109  H34   S    
C82   C83   A    
C104  O41   S    
C113  H48   S    
C135  H113  S    
C131  H100  S    
C43   O26   A    
C61   C71   S    
C6    O7    A    
C135  H112  S    
C37   H6    S    
C129  H96   S    
C49   C53   A    
C15   C16   A    
C66   O34   S    
C97   H29   S    
C100  C101  A    
C124  H80   S    
Cr4   O19   S    
C114  H51   S    
C134  H110  S    
C5    C43   S    
C102  C103  A    
C35   C41   A    
C69   C70   S    
C83   C128  S    
C129  H94   S    
C27   C32   S    
C77   C85   S    
C110  H37   S    
C90   H16   S    
Cr1   O24   S    
C62   H13   S    
O28   C112  S    
O41   C133  S    
C15   H17   S    
C12   C13   A    
C2    C98   A    
C119  H65   S    
C120  H67   S    
C22   C26   A    
C46   C56   S    
C103  C104  A    
C11   O18   A    
C45   O33   S    
C14   C15   A    
C112  H43   S    
C114  H50   S    
Cr3   O22   S    
C89   C90   A    
C5    C108  A    
O39   C130  S    
C54   O2    A    
C130  H97   S    
O37   C126  S    
C110  H38   S    
C10   O16   A    
C10   C72   S    
