data_mof_unit_4291.cif
_audit_creation_date              2013-03-05T15:45:31-0500
_audit_creation_method            fapswitch 2.2
_symmetry_space_group_name_H-M    P1
_symmetry_Int_Tables_number       1
_space_group_crystal_system       triclinic
_cell_length_a                    9.878642
_cell_length_b                    11.102544
_cell_length_c                    13.396976
_cell_angle_alpha                 95.590871
_cell_angle_beta                  81.244566
_cell_angle_gamma                 111.752009
_cell_volume                      1347.48116551

loop_
_atom_site_label
_atom_site_type_symbol
_atom_site_description
_atom_site_fract_x
_atom_site_fract_y
_atom_site_fract_z
_atom_type_partial_charge
O1    O     O_R   0.426290 0.668220 0.490680 -0.518567
O2    O     O_R   0.659360 0.703290 0.520190 -0.528211
C1    C     C_R   0.558104 0.745420 0.503845 0.896317
O3    O     O_R   0.326580 0.473880 0.629020 -0.516658
O4    O     O_R   0.559660 0.508940 0.658530 -0.594021
C2    C     C_R   0.419448 0.467939 0.687860 0.864560
Cu1   Cu    Cu3+1 0.362000 0.479240 0.482530 1.111349
Cu2   Cu    Cu3+1 0.638000 0.520760 0.517470 1.099236
O5    O     O_R   0.340640 0.296710 0.479810 -0.534726
O6    O     O_R   0.573710 0.331780 0.509320 -0.598696
O7    O     O_R   0.440340 0.491060 0.341470 -0.572858
O8    O     O_R   0.673420 0.526120 0.370980 -0.551197
C3    C     C_R   0.444853 0.255322 0.488859 0.831229
C4    C     C_R   0.578347 0.513752 0.309328 0.849853
C5    C     C_R   0.807466 0.544709 0.051392 0.229546
H1    H     H_    0.835520 0.480961 0.852263 0.233709
C6    C     C_R   0.624202 0.518065 0.199198 -0.198079
C7    C     C_R   0.218025 0.368415 0.829855 0.289866
C8    C     C_R   0.175341 0.351014 0.934032 0.287515
C9    C     C_R   0.280720 0.389136 0.000821 -0.211096
C10   C     C_R   0.432484 0.430968 0.965248 0.066015
C11   C     C_R   0.473830 0.430587 0.859420 0.030219
C12   C     C_R   0.544825 0.468734 0.030603 0.078375
C13   C     C_R   0.693935 0.496857 0.988963 0.007905
C14   C     C_R   0.726140 0.472539 0.885859 -0.089851
C15   C     C_R   0.617013 0.433825 0.823459 -0.066307
C16   C     C_R   0.513734 0.481499 0.135740 -0.210887
C17   C     C_R   0.772647 0.553925 0.156614 0.278756
C18   C     C_R   0.369358 0.421048 0.793069 -0.237146
H2    H     H_    0.402859 0.462976 0.170375 0.194346
H3    H     H_    0.239266 0.375269 0.079605 0.186755
H4    H     H_    0.646785 0.401815 0.747510 0.215328
C19   C     C_2   0.586306 0.884501 0.508241 -0.342173
C20   C     C_2   0.497270 0.930205 0.468997 0.264570
C21   C     C_2   0.426894 0.121908 0.457667 0.056248
C22   C     C_2   0.487040 0.057137 0.507264 0.186212
H5    H     H_    0.668742 0.946001 0.554576 0.207352
H6    H     H_    0.857747 0.389635 0.460504 0.117665
N1    N     N_2   0.845330 0.551960 0.543750 -0.058062
C23   C     C_2   0.916769 0.478453 0.501232 0.070429
H7    H     H_    0.109845 0.392987 0.394685 0.195468
N2    N     N_2   0.154690 0.448120 0.456210 -0.297589
C24   C     C_2   0.073035 0.502061 0.516143 0.426369
N3    N     N_R   0.888747 0.603025 0.219133 0.166181
O9    O     O_R   0.972338 0.537613 0.225447 -0.306656
O10   O     O_R   0.914582 0.715747 0.266804 -0.255665
N4    N     N_R   0.402409 0.850136 0.397652 0.171062
O11   O     O_R   0.260612 0.809447 0.421384 -0.240194
O12   O     O_R   0.457692 0.805350 0.314490 -0.300582
Br1   Br    Br    0.356719 0.071856 0.327326 -0.303395
Br2   Br    Br    0.141059 0.603704 0.636810 -0.297931
Br3   Br    Br    0.950117 0.733450 0.555934 -0.172962
Br4   Br    Br    0.012063 0.609368 0.994594 -0.318574
N5    N     N_R   0.109570 0.319592 0.761098 0.167058
O13   O     O_R   0.991437 0.347911 0.776211 -0.301159
O14   O     O_R   0.122561 0.236789 0.688036 -0.289943
Br5   Br    Br    0.973632 0.266738 0.989015 -0.314273
N6    N     N_R   0.536363 0.109614 0.603665 0.103432
O15   O     O_R   0.676093 0.166291 0.610544 -0.339510
O16   O     O_R   0.441673 0.118969 0.680054 -0.315964

loop_
_geom_bond_atom_site_label_1
_geom_bond_atom_site_label_2
_geom_bond_distance
_ccdc_geom_bond_type
O4    Cu2   1.927486 S    
Cu1   O7    1.927486 S    
C12   C13   1.421731 A    
O6    C3    1.294641 A    
C13   C14   1.392579 A    
C15   H4    1.078881 S    
Cu2   N1    2.027001 S    
C12   C16   1.399998 A    
O2    C1    1.304110 A    
H7    N2    1.030630 S    
C20   C22   1.485963 S    
C8    C9    1.395229 A    
Cu2   O8    1.943126 S    
C21   Br1   1.931952 S    
C19   C20   1.353180 D    
C14   C15   1.380809 A    
Cu1   Cu2   2.698217 S    
N4    O12   1.301866 A    
C7    C18   1.415480 A    
C10   C11   1.414474 A    
C9    C10   1.414222 A    
C16   H2    1.074330 S    
H6    C23   1.084416 S    
C4    C6    1.475994 S    
C24   Br2   1.936889 S    
C5    C17   1.402242 A    
C21   C22   1.357065 D    
O3    Cu1   1.943128 S    
C5    Br4   1.934480 S    
Cu2   O6    1.950992 S    
C5    C13   1.413133 A    
C11   C18   1.430533 A    
O8    C4    1.304453 A    
C19   H5    1.083459 S    
C3    C21   1.451665 S    
C22   N6    1.442001 S    
C10   C12   1.432976 A    
O4    C2    1.296902 A    
O7    C4    1.302066 A    
N5    O14   1.301383 A    
N2    C24   1.311951 D    
C1    C19   1.460792 S    
N6    O16   1.301140 A    
C6    C16   1.401885 A    
N1    C23   1.304784 D    
C2    C18   1.497412 S    
N3    O9    1.301618 A    
O3    C2    1.320046 A    
C7    C8    1.405686 A    
C11   C15   1.411491 A    
Cu1   N2    2.027171 S    
O2    Cu2   1.955442 S    
H1    C14   1.078946 S    
Cu1   O5    1.955444 S    
C7    N5    1.436285 S    
N5    O13   1.299748 A    
O5    C3    1.298134 A    
C20   N4    1.439320 S    
N3    O10   1.302469 A    
N6    O15   1.301322 A    
O1    Cu1   1.950990 S    
C6    C17   1.411113 A    
C17   N3    1.433232 S    
C23   C24   1.508432 S    
C8    Br5   1.922023 S    
N4    O11   1.300257 A    
N1    Br3   1.897309 S    
O1    C1    1.294055 A    
C9    H3    1.076456 S    
