data_mof_unit_2361.cif
_audit_creation_date              2012-12-10T16:57:47-0500
_audit_creation_method            fapswitch 2.2
_symmetry_space_group_name_H-M    P1
_symmetry_Int_Tables_number       1
_space_group_crystal_system       triclinic
_cell_length_a                    7.819232
_cell_length_b                    8.569377
_cell_length_c                    19.123222
_cell_angle_alpha                 91.638622
_cell_angle_beta                  86.094029
_cell_angle_gamma                 93.129513
_cell_volume                      1276.08865842

loop_
_atom_site_label
_atom_site_type_symbol
_atom_type_description
_atom_site_fract_x
_atom_site_fract_y
_atom_site_fract_z
_atom_type_partial_charge
C1    C     C_R   0.545182 0.794365 0.498272 0.986387
C2    C     C_R   0.454818 0.205635 0.501728 0.986387
C3    C     C_2   0.569141 0.957624 0.497259 -0.359555
C4    C     C_2   0.430859 0.042376 0.502741 -0.359555
C5    C     C_R   0.501741 0.497227 0.634366 0.875706
C6    C     C_R   0.498259 0.502773 0.365634 0.875707
C7    C     C_R   0.354938 0.508219 0.752679 -0.189285
C8    C     C_R   0.645062 0.491781 0.247321 -0.189285
C9    C     C_R   0.356568 0.495772 0.824495 -0.174585
C10   C     C_R   0.643432 0.504228 0.175505 -0.174586
C11   C     C_R   0.507224 0.459750 0.854666 0.070306
C12   C     C_R   0.492776 0.540251 0.145334 0.070306
C13   C     C_R   0.656782 0.427537 0.812006 0.006635
C14   C     C_R   0.343219 0.572464 0.187994 0.006635
C15   C     C_R   0.653363 0.441648 0.739688 -0.269124
C16   C     C_R   0.346638 0.558353 0.260311 -0.269125
C17   C     C_R   0.504166 0.484202 0.709999 -0.011380
C18   C     C_R   0.495834 0.515798 0.290001 -0.011380
C19   C     C_R   0.492598 0.525509 0.069758 0.347019
C20   C     C_R   0.507402 0.474492 0.930242 0.347018
H1    H     H_    0.237516 0.539293 0.730838 0.152512
H2    H     H_    0.762484 0.460706 0.269162 0.152512
H3    H     H_    0.700183 0.007578 0.491998 0.206093
H4    H     H_    0.299817 0.992422 0.508002 0.206092
N1    N     N_R   0.632980 0.562943 0.960067 -0.116348
N2    N     N_R   0.367020 0.437057 0.039933 -0.116348
N3    N     N_R   0.626672 0.586700 0.029002 -0.137225
N4    N     N_R   0.373328 0.413301 0.970998 -0.137225
N5    N     N_2   0.950330 0.457950 0.481240 -0.178793
N6    N     N_2   0.049670 0.542050 0.518760 -0.178794
O1    O     O_R   0.389250 0.738570 0.504600 -0.622608
O2    O     O_R   0.610750 0.261430 0.495400 -0.622608
O3    O     O_R   0.678400 0.711620 0.492580 -0.589823
O4    O     O_R   0.321600 0.288380 0.507420 -0.589824
O5    O     O_R   0.355380 0.513500 0.607880 -0.655182
O6    O     O_R   0.644620 0.486500 0.392120 -0.655182
O7    O     O_R   0.644530 0.486550 0.595850 -0.633701
O8    O     O_R   0.355470 0.513450 0.404150 -0.633701
Zn1   Zn    Zn3+2 0.306930 0.517990 0.508030 0.974944
Zn2   Zn    Zn3+2 0.693070 0.482010 0.491970 0.974944
H5    H     H_    0.241588 0.520895 0.856860 0.168960
H6    H     H_    0.758412 0.479105 0.143140 0.168960
C21   C     C_2   0.816636 0.374918 0.839545 0.414455
H7    H     H_    0.935868 0.382194 0.806903 0.050239
O9    O     O_2   0.816623 0.317243 0.897177 -0.532741
C22   C     C_2   0.183365 0.625084 0.160455 0.414455
H8    H     H_    0.064133 0.617810 0.193098 0.050240
O10   O     O_2   0.183378 0.682757 0.102823 -0.532741
H9    H     H_    0.766461 0.416021 0.706465 0.138939
H10   H     H_    0.233540 0.583980 0.293535 0.138939
C23   C     C_2   0.021307 0.403265 0.415940 0.712785
H11   H     H_    0.016816 0.473623 0.370008 -0.038963
O11   O     O_2   0.076027 0.272629 0.409985 -0.595665
C24   C     C_2   0.978693 0.596735 0.584060 0.712785
H12   H     H_    0.983185 0.526377 0.629992 -0.038963
O12   O     O_2   0.923972 0.727370 0.590015 -0.595665

loop_
_geom_bond_atom_site_label_1
_geom_bond_atom_site_label_2
_ccdc_geom_bond_type
O5    Zn1   S    
C21   H7    S    
C6    O8    A    
C15   C17   A    
N5    N6    D    
C5    O7    A    
C10   H6    S    
N6    C24   S    
C9    H5    S    
O6    Zn2   S    
C9    C11   A    
C2    O4    A    
C13   C21   S    
C13   C15   A    
C12   C14   A    
C1    O3    A    
C14   C22   S    
C7    H1    S    
N2    N4    A    
C21   O9    D    
C10   C12   A    
C6    C18   S    
C2    C4    S    
C5    O5    A    
N5    Zn2   S    
C16   C18   A    
C19   N3    A    
C6    O6    A    
N6    Zn1   S    
O7    Zn2   S    
C24   O12   D    
C15   H9    S    
C1    O1    A    
O8    Zn1   S    
C4    H4    S    
C14   C16   A    
C11   C20   S    
O3    Zn2   S    
N1    N3    A    
C20   N1    A    
O4    Zn1   S    
C22   O10   D    
C7    C9    A    
C11   C13   A    
O2    Zn2   S    
C5    C17   S    
C12   C19   S    
C2    O2    A    
N5    C23   S    
C1    C3    S    
O1    Zn1   S    
C19   N2    A    
C22   H8    S    
C20   N4    A    
C7    C17   A    
C24   H12   S    
C3    H3    S    
C8    H2    S    
C8    C10   A    
C8    C18   A    
C3    C4    D    
C23   H11   S    
C16   H10   S    
C23   O11   D    
