data_mof_unit_1752.cif
_audit_creation_date              2012-12-10T18:57:40-0500
_audit_creation_method            fapswitch 2.2
_symmetry_space_group_name_H-M    P1
_symmetry_Int_Tables_number       1
_space_group_crystal_system       triclinic
_cell_length_a                    10.941391
_cell_length_b                    10.810894
_cell_length_c                    9.542425
_cell_angle_alpha                 90.030313
_cell_angle_beta                  89.929808
_cell_angle_gamma                 90.141799
_cell_volume                      1128.73290689

loop_
_atom_site_label
_atom_site_type_symbol
_atom_type_description
_atom_site_fract_x
_atom_site_fract_y
_atom_site_fract_z
_atom_type_partial_charge
C1    C     C_R   0.507695 0.262488 0.499725 0.786744
C2    C     C_R   0.526543 0.129323 0.500215 -0.198406
C3    C     C_R   0.570958 0.062675 0.381900 -0.023137
C4    C     C_R   0.562694 0.932858 0.383003 -0.192053
C5    C     C_R   0.517299 0.870464 0.501136 -0.149052
C6    C     C_R   0.497316 0.936938 0.623721 0.127693
C7    C     C_3   0.392415 0.932957 0.723778 -0.455392
C8    C     C_3   0.396210 0.073437 0.723244 -0.455919
C9    C     C_R   0.549560 0.596919 0.073512 0.264165
C10   C     C_R   0.439899 0.411118 0.074484 -0.071481
C11   C     C_R   0.439709 0.411256 0.925586 -0.062449
C12   C     C_R   0.265383 0.500868 0.500135 0.853054
C13   C     C_R   0.549439 0.596920 0.926183 0.257517
C14   C     C_3   0.678220 0.641565 0.919400 -0.491079
C15   C     C_3   0.678761 0.640945 0.078476 -0.498424
C16   C     C_R   0.502577 0.737641 0.500093 0.812505
C17   C     C_R   0.734642 0.498227 0.500122 0.839058
C18   C     C_2   0.933358 0.495190 0.385374 -0.155866
C19   C     C_2   0.866529 0.492124 0.503021 -0.317699
C20   C     C_2   0.067244 0.490856 0.385854 -0.151205
C21   C     C_2   0.133504 0.505614 0.502674 -0.320669
C22   C     C_R   0.500743 0.063781 0.622890 0.150414
Cu1   Cu    Cu3+1 0.499990 0.499980 0.640670 0.945492
Cu2   Cu    Cu3+1 0.500010 0.500020 0.359330 0.938911
H1    H     H_    0.889188 0.499312 0.283827 0.157122
H2    H     H_    0.424665 0.113080 0.825650 0.209578
H3    H     H_    0.393097 0.337900 0.130228 0.146842
H4    H     H_    0.392356 0.338503 0.869882 0.137424
H5    H     H_    0.741564 0.572432 0.873141 0.216335
H6    H     H_    0.684903 0.736001 0.873936 0.205062
H7    H     H_    0.741772 0.570901 0.122726 0.208134
H8    H     H_    0.687002 0.734919 0.124665 0.204857
H9    H     H_    0.906988 0.482460 0.605741 0.146079
H10   H     H_    0.112106 0.476761 0.285483 0.165698
H11   H     H_    0.092674 0.523445 0.603896 0.146183
H12   H     H_    0.590601 0.880615 0.291593 0.188168
H13   H     H_    0.308031 0.893927 0.676018 0.193532
H14   H     H_    0.418579 0.892066 0.826302 0.208841
H15   H     H_    0.313880 0.116334 0.675537 0.190477
N1    N     N_R   0.500780 0.500930 0.147930 -0.193238
N2    N     N_R   0.500780 0.500890 0.852020 -0.188700
O1    O     O_R   0.500000 0.319640 0.618810 -0.572161
O2    O     O_R   0.500010 0.319680 0.381230 -0.602758
O3    O     O_R   0.321940 0.499980 0.618760 -0.585816
O4    O     O_R   0.321950 0.500020 0.381180 -0.576337
O5    O     O_R   0.499990 0.680320 0.618770 -0.578827
O6    O     O_R   0.500000 0.680360 0.381190 -0.583716
O7    O     O_R   0.678050 0.499980 0.618820 -0.585201
O8    O     O_R   0.678060 0.500020 0.381240 -0.588590
C23   C     C_2   0.627262 0.124291 0.258415 0.366976
H16   H     H_    0.666085 0.216302 0.267178 0.098083
O9    O     O_2   0.633625 0.071500 0.145449 -0.566766

loop_
_geom_bond_atom_site_label_1
_geom_bond_atom_site_label_2
_ccdc_geom_bond_type
C10   H3    S    
C2    C22   A    
C8    C22   S    
Cu1   Cu2   S    
C4    H12   S    
C15   H7    S    
C6    C7    S    
C21   H11   S    
C8    H15   S    
C8    H2    S    
C23   O9    D    
Cu1   N2    S    
C17   O7    A    
C20   H10   S    
C13   N2    A    
C2    C3    A    
C7    H13   S    
C15   H8    S    
C12   O3    A    
Cu1   O5    S    
C13   C14   S    
Cu1   O1    S    
C18   H1    S    
C11   H4    S    
C14   H6    S    
Cu2   O4    S    
C16   O6    A    
C17   C19   S    
C7    H14   S    
C1    O2    A    
C11   N2    A    
C18   C20   S    
C9    C15   S    
C5    C6    A    
C10   C11   A    
C14   H5    S    
C16   O5    A    
C3    C4    A    
C6    C22   A    
C1    O1    A    
C7    C8    S    
C20   C21   D    
C10   N1    A    
C1    C2    S    
C19   H9    S    
C17   O8    A    
Cu2   O8    S    
C12   O4    A    
Cu2   O2    S    
C9    C13   A    
C14   C15   S    
C18   C19   D    
C5    C16   S    
Cu1   O7    S    
C23   H16   S    
Cu2   N1    S    
Cu2   O6    S    
C12   C21   S    
C3    C23   S    
C9    N1    A    
Cu1   O3    S    
C4    C5    A    
