data_mof_unit_2632.cif
_audit_creation_date              2013-03-05T15:49:18-0500
_audit_creation_method            fapswitch 2.2
_symmetry_space_group_name_H-M    P1
_symmetry_Int_Tables_number       1
_space_group_crystal_system       triclinic
_cell_length_a                    10.69352
_cell_length_b                    11.992833
_cell_length_c                    12.847809
_cell_angle_alpha                 93.648003
_cell_angle_beta                  90.670443
_cell_angle_gamma                 85.099347
_cell_volume                      1638.29271137

loop_
_atom_site_label
_atom_site_type_symbol
_atom_site_description
_atom_site_fract_x
_atom_site_fract_y
_atom_site_fract_z
_atom_type_partial_charge
O1    O     O_R   0.506170 0.421690 0.658830 -0.644730
O2    O     O_R   0.491330 0.609320 0.646410 -0.593441
C1    C     C_R   0.495417 0.522430 0.700147 0.923188
O3    O     O_R   0.690660 0.406170 0.506210 -0.651345
O4    O     O_R   0.675810 0.593790 0.493790 -0.584190
C2    C     C_R   0.738704 0.496250 0.484595 0.913308
Zn1   Zn    Zn3+2 0.509910 0.374720 0.508290 1.007560
Zn2   Zn    Zn3+2 0.490090 0.625280 0.491710 1.084539
O5    O     O_R   0.508670 0.390680 0.353590 -0.589081
O6    O     O_R   0.493830 0.578310 0.341170 -0.595945
O7    O     O_R   0.324190 0.406210 0.506210 -0.609846
O8    O     O_R   0.309340 0.593830 0.493790 -0.567651
C3    C     C_R   0.500039 0.477553 0.299735 0.970885
C4    C     C_R   0.258877 0.502119 0.506212 0.994799
C5    C     C_R   0.907912 0.282054 0.478620 -0.153824
C6    C     C_R   0.974406 0.192812 0.526255 0.350282
C7    C     C_R   0.081134 0.214523 0.585590 -0.158684
H1    H     H_    0.131646 0.149150 0.627573 0.195409
C8    C     C_R   0.127080 0.319968 0.587539 -0.119976
H2    H     H_    0.209531 0.333112 0.634832 0.172640
C9    C     C_R   0.067238 0.406212 0.529591 0.078135
C10   C     C_R   0.947951 0.391892 0.489290 0.019894
C11   C     C_R   0.872062 0.488745 0.463539 -0.261028
C12   C     C_R   0.925704 0.587761 0.442965 0.212184
C13   C     C_R   0.051018 0.597205 0.467180 0.236098
C14   C     C_R   0.123192 0.505156 0.508585 -0.228162
C15   C     C_R   0.502656 0.462925 0.188476 -0.178096
C16   C     C_R   0.482375 0.536776 0.810830 -0.179598
C17   C     C_R   0.369090 0.610253 0.963508 -0.121970
C18   C     C_R   0.387298 0.611026 0.857108 0.266185
C19   C     C_R   0.560133 0.466049 0.869772 -0.199040
C20   C     C_R   0.544453 0.466187 0.976643 0.012324
C21   C     C_R   0.445539 0.538061 0.023970 -0.036934
C22   C     C_R   0.423165 0.534166 0.130273 0.271721
C23   C     C_R   0.597591 0.390331 0.142152 -0.221500
C24   C     C_R   0.620878 0.392051 0.036356 0.327258
H3    H     H_    0.659221 0.337670 0.189799 0.208929
H4    H     H_    0.290797 0.663047 0.996611 0.235203
N1    N     N_R   0.523130 0.207800 0.519340 -0.167677
N2    N     N_R   0.476870 0.792180 0.480660 -0.140183
C25   C     C_R   0.384559 0.952918 0.397099 0.224478
C26   C     C_R   0.397382 0.837160 0.408855 0.060158
C27   C     C_R   0.544685 0.858726 0.545708 0.066781
C28   C     C_R   0.535960 0.976026 0.537933 0.019344
C29   C     C_R   0.457650 0.024640 0.460663 -0.147199
C30   C     C_R   0.457190 0.142431 0.450209 0.402156
C31   C     C_R   0.594923 0.161105 0.595906 -0.020920
C32   C     C_R   0.604237 0.045033 0.605519 -0.153234
H5    H     H_    0.646746 0.214039 0.648925 0.160864
H6    H     H_    0.664079 0.009527 0.665767 0.182979
N3    N     N_R   0.852988 0.678655 0.396681 0.256567
O9    O     O_R   0.847536 0.779603 0.440984 -0.262731
O10   O     O_R   0.786669 0.659217 0.312912 -0.333819
N4    N     N_R   0.725163 0.321802 0.992428 0.205456
O11   O     O_R   0.746901 0.219510 0.020392 -0.303177
O12   O     O_R   0.811365 0.365770 0.941664 -0.354535
N5    N     N_R   0.302321 0.680799 0.796854 0.222614
O13   O     O_R   0.268838 0.783271 0.831254 -0.300251
O14   O     O_R   0.240424 0.636421 0.719355 -0.382196
H7    H     H_    0.629916 0.408122 0.830258 0.199358
N6    N     N_R   0.399376 0.191853 0.361374 0.230759
O15   O     O_R   0.452085 0.172629 0.270506 -0.319106
O16   O     O_R   0.286926 0.242224 0.367667 -0.318197
N7    N     N_R   0.290438 0.994959 0.326369 0.255709
O17   O     O_R   0.298963 0.963818 0.227689 -0.236633
O18   O     O_R   0.183040 0.038285 0.363150 -0.276950
H8    H     H_    0.340992 0.782558 0.362249 0.223506
H9    H     H_    0.605671 0.820163 0.603565 0.149649
H10   H     H_    0.826545 0.264736 0.431510 0.200180
N8    N     N_R   0.932344 0.081722 0.516057 0.230879
O19   O     O_R   0.841636 0.058742 0.451913 -0.325803
O20   O     O_R   0.986555 0.001743 0.568797 -0.285715
N9    N     N_R   0.102927 0.701207 0.450548 0.244978
O21   O     O_R   0.132278 0.766337 0.530389 -0.269491
O22   O     O_R   0.100464 0.739357 0.357908 -0.248135
N10   N     N_R   0.319108 0.600219 0.179638 0.204373
O23   O     O_R   0.239029 0.552098 0.233454 -0.348089
O24   O     O_R   0.311027 0.709019 0.179207 -0.332248

loop_
_geom_bond_atom_site_label_1
_geom_bond_atom_site_label_2
_geom_bond_distance
_ccdc_geom_bond_type
C9    C14   1.415896 A    
C25   C26   1.400910 A    
C8    H2    1.081864 S    
C31   H5    1.081833 S    
C29   C30   1.427089 A    
Zn1   O7    1.989832 S    
C20   C24   1.412433 A    
C1    C16   1.428518 S    
C23   H3    1.084698 S    
N10   O24   1.300658 A    
O4    C2    1.297896 A    
O7    C4    1.293662 A    
N5    O14   1.300041 A    
C5    C6    1.403127 A    
C18   N5    1.435707 S    
C17   C21   1.403966 A    
N9    O21   1.301251 A    
N6    O16   1.299760 A    
O5    C3    1.283178 A    
C5    C10   1.417513 A    
C19   C20   1.385081 A    
C6    C7    1.398797 A    
C17   H4    1.079913 S    
C11   C12   1.403165 A    
N8    O19   1.301569 A    
C12   N3    1.439925 S    
N2    C26   1.353221 A    
C9    C10   1.391181 A    
N9    O22   1.301212 A    
O3    Zn1   2.001488 S    
C7    H1    1.082597 S    
N2    C27   1.364214 A    
C15   C22   1.397880 A    
C5    H10   1.081252 S    
N4    O12   1.301542 A    
C30   N6    1.429375 S    
N3    O9    1.301573 A    
C6    N8    1.439873 S    
N10   O23   1.301337 A    
O3    C2    1.282384 A    
C27   H9    1.082867 S    
C15   C23   1.392836 A    
C13   C14   1.420168 A    
C4    C14   1.448917 S    
N3    O10   1.301550 A    
C23   C24   1.386493 A    
N7    O18   1.300672 A    
C19   H7    1.082882 S    
C27   C28   1.411700 A    
C17   C18   1.383787 A    
C31   C32   1.400297 A    
Zn2   O8    2.001485 S    
C21   C22   1.393696 A    
C12   C13   1.384570 A    
N1    C30   1.375449 A    
O8    C4    1.285360 A    
C26   H8    1.077082 S    
C28   C29   1.413331 A    
N1    C31   1.360017 A    
Zn1   O5    2.008618 S    
N4    O11   1.301340 A    
C25   C29   1.424160 A    
C8    C9    1.416805 A    
O1    Zn1   1.979649 S    
C16   C19   1.389544 A    
O2    Zn2   2.008619 S    
O6    C3    1.285768 A    
O4    Zn2   1.989832 S    
C20   C21   1.422706 A    
C16   C18   1.404356 A    
O2    C1    1.283556 A    
N7    O17   1.300688 A    
N5    O13   1.301225 A    
C2    C11   1.448771 S    
C32   H6    1.083410 S    
C7    C8    1.393928 A    
C13   N9    1.436821 S    
N6    O15   1.301058 A    
C24   N4    1.437226 S    
Zn2   O6    1.979649 S    
Zn1   N1    2.008695 S    
C10   C11   1.413783 A    
C3    C15   1.429341 S    
N8    O20   1.301439 A    
Zn2   N2    2.008458 S    
C25   N7    1.429405 S    
O1    C1    1.284803 A    
C28   C32   1.403188 A    
C22   N10   1.438718 S    
