data_mof_unit_1779.cif
_audit_creation_date              2012-12-10T19:47:24-0500
_audit_creation_method            fapswitch 2.2
_symmetry_space_group_name_H-M    P1
_symmetry_Int_Tables_number       1
_space_group_crystal_system       triclinic
_cell_length_a                    10.887157
_cell_length_b                    10.89012
_cell_length_c                    12.719124
_cell_angle_alpha                 91.375871
_cell_angle_beta                  90.975933
_cell_angle_gamma                 90.714615
_cell_volume                      1507.23182381

loop_
_atom_site_label
_atom_site_type_symbol
_atom_type_description
_atom_site_fract_x
_atom_site_fract_y
_atom_site_fract_z
_atom_type_partial_charge
C1    C     C_R   0.262031 0.496762 0.502494 0.809968
C2    C     C_R   0.738176 0.498547 0.497941 0.812623
C3    C     C_R   0.504199 0.871581 0.495939 -0.071269
C4    C     C_R   0.504326 0.128161 0.504274 -0.084391
C5    C     C_R   0.518151 0.937449 0.402653 0.015001
C6    C     C_R   0.500015 0.062374 0.598455 0.025399
C7    C     C_R   0.192522 0.405757 0.855654 -0.203149
C8    C     C_R   0.806009 0.483754 0.131876 -0.200198
C9    C     C_R   0.160072 0.408677 0.749362 -0.089579
C10   C     C_R   0.837565 0.515432 0.235562 -0.098783
C11   C     C_R   0.117726 0.517540 0.705819 0.040777
C12   C     C_R   0.883205 0.426706 0.302819 0.045241
C13   C     C_R   0.110449 0.624128 0.769607 -0.186471
C14   C     C_R   0.899556 0.306098 0.264596 -0.192533
C15   C     C_R   0.144366 0.623628 0.876572 0.527331
C16   C     C_R   0.871911 0.272836 0.159746 0.507757
C17   C     C_R   0.183337 0.511258 0.919547 -0.249385
C18   C     C_R   0.821811 0.363760 0.093781 -0.248212
C19   C     C_R   0.935294 0.520254 0.591569 -0.211852
C20   C     C_R   0.065571 0.465002 0.411376 -0.242485
C21   C     C_R   0.872007 0.496308 0.495987 -0.065388
C22   C     C_R   0.128580 0.491365 0.506088 -0.077563
C23   C     C_R   0.501457 0.261888 0.501893 0.793538
C24   C     C_R   0.502170 0.738014 0.498038 0.828486
C25   C     C_R   0.938499 0.464429 0.405347 0.022892
C26   C     C_R   0.062292 0.513631 0.598778 0.024177
C27   C     C_2   0.465615 0.463824 0.032280 -0.286129
C28   C     C_2   0.529366 0.536880 0.967824 -0.270756
C29   C     C_1   0.522891 0.525880 0.852475 0.232003
C30   C     C_1   0.474712 0.474351 0.147571 0.206190
C31   C     C_R   0.653674 0.219681 0.832600 -0.152306
C32   C     C_R   0.507121 0.860263 0.112767 -0.138767
C33   C     C_R   0.630690 0.173215 0.731276 -0.107522
C34   C     C_R   0.468860 0.887051 0.214964 -0.181317
C35   C     C_R   0.516091 0.119777 0.704315 0.086674
C36   C     C_R   0.552329 0.881999 0.300244 0.106193
C37   C     C_R   0.424901 0.111096 0.781528 0.160584
C38   C     C_R   0.674834 0.847690 0.281838 0.182778
C39   C     C_R   0.450230 0.155321 0.883937 -0.170239
C40   C     C_R   0.711628 0.820124 0.179259 -0.155003
C41   C     C_R   0.564465 0.208791 0.909466 -0.166419
C42   C     C_R   0.628888 0.828687 0.094877 -0.160320
C43   C     C_R   0.496087 0.935239 0.592571 -0.172098
C44   C     C_R   0.513239 0.064542 0.407782 -0.203507
Cu1   Cu    Cu3+1 0.492140 0.492110 0.395880 0.981769
Cu2   Cu    Cu3+1 0.507860 0.507890 0.604120 0.993593
H1    H     H_    0.583927 0.241541 0.989014 0.148941
H2    H     H_    0.659642 0.811973 0.015400 0.132097
H3    H     H_    0.074906 0.707602 0.736524 0.167659
H4    H     H_    0.940074 0.238679 0.315570 0.164977
H5    H     H_    0.885558 0.539734 0.663104 0.164939
H6    H     H_    0.115503 0.443216 0.340339 0.172484
H7    H     H_    0.589324 0.607281 0.001780 0.155588
H8    H     H_    0.405699 0.392557 0.998635 0.163874
H9    H     H_    0.741780 0.262132 0.851285 0.117548
H10   H     H_    0.443438 0.867533 0.047045 0.136887
H11   H     H_    0.702466 0.178563 0.673500 0.133296
H12   H     H_    0.375837 0.917568 0.227171 0.131287
H13   H     H_    0.381472 0.147909 0.944007 0.141266
H14   H     H_    0.805690 0.795661 0.164576 0.124593
H15   H     H_    0.491754 0.885968 0.665543 0.176432
H16   H     H_    0.522947 0.114116 0.335350 0.170901
H17   H     H_    0.204936 0.502239 0.002072 0.135592
H18   H     H_    0.797066 0.345188 0.012612 0.114664
H19   H     H_    0.221769 0.320409 0.889348 0.161963
H20   H     H_    0.773196 0.553557 0.079865 0.147568
H21   H     H_    0.163412 0.324997 0.701767 0.158646
H22   H     H_    0.830363 0.609648 0.262827 0.158790
N1    N     N_1   0.480320 0.480250 0.239400 -0.160648
N2    N     N_1   0.519680 0.519750 0.760600 -0.155899
O1    O     O_R   0.313000 0.493330 0.412070 -0.591496
O2    O     O_R   0.687000 0.506670 0.587930 -0.589967
O3    O     O_R   0.326280 0.506660 0.587930 -0.567290
O4    O     O_R   0.673720 0.493340 0.412070 -0.567169
O5    O     O_R   0.493370 0.312980 0.412070 -0.584675
O6    O     O_R   0.506630 0.687020 0.587930 -0.580631
O7    O     O_R   0.506650 0.326310 0.587930 -0.573819
O8    O     O_R   0.493350 0.673690 0.412070 -0.574043
O9    O     O_3   0.128140 0.733267 0.933658 -0.622731
C45   C     C_3   0.185914 0.739433 0.034166 0.057075
H23   H     H_    0.210620 0.837366 0.050660 0.166189
H24   H     H_    0.274597 0.689849 0.037812 0.139277
C46   C     C_3   0.096131 0.699372 0.118847 -0.389633
H25   H     H_    0.013942 0.758470 0.115826 0.223676
H26   H     H_    0.064902 0.603040 0.104135 0.220468
C47   C     C_3   0.154411 0.710660 0.228581 -0.854981
H27   H     H_    0.236362 0.651258 0.234257 0.265242
H28   H     H_    0.086712 0.681683 0.287626 0.271057
H29   H     H_    0.181678 0.807475 0.246803 0.255456
O10   O     O_3   0.900364 0.152648 0.128454 -0.608499
C48   C     C_3   0.883216 0.127912 0.019786 0.021264
H30   H     H_    0.933814 0.196190 0.972398 0.140673
H31   H     H_    0.783444 0.127221 0.000724 0.160980
C49   C     C_3   0.933433 0.001209 0.991823 -0.291806
H32   H     H_    0.034458 0.001126 0.006047 0.235884
H33   H     H_    0.890889 0.931727 0.042476 0.219127
C50   C     C_3   0.905557 0.966137 0.876843 -0.852744
H34   H     H_    0.804698 0.962551 0.861909 0.243725
H35   H     H_    0.943468 0.874178 0.858309 0.287363
H36   H     H_    0.947883 0.034046 0.824178 0.272490
I1    I     I_    0.248513 0.032682 0.748983 -0.472707
I2    I     I_    0.811777 0.849422 0.402913 -0.438528

loop_
_geom_bond_atom_site_label_1
_geom_bond_atom_site_label_2
_ccdc_geom_bond_type
C38   C40   A    
C8    H20   S    
C40   H14   S    
Cu1   O1    S    
C50   H36   S    
Cu2   O6    S    
C50   H34   S    
C27   H8    S    
C39   C41   A    
Cu1   Cu2   S    
C16   O10   S    
C3    C43   A    
C1    O1    A    
C28   C29   S    
C19   C21   A    
C47   H28   S    
C48   H31   S    
C20   C25   A    
C5    C36   S    
C6    C35   S    
C15   C17   A    
C19   C26   A    
C15   O9    S    
C7    C17   A    
C31   C33   A    
Cu1   O8    S    
Cu2   O2    S    
C2    O4    A    
C40   C42   A    
C1    C22   S    
C27   C30   S    
C3    C24   S    
C45   C46   S    
C2    O2    A    
C50   H35   S    
Cu1   N1    S    
C45   H24   S    
C23   O5    A    
C48   H30   S    
C4    C23   S    
C47   H27   S    
C24   O6    A    
C4    C44   A    
C11   C26   S    
C44   H16   S    
C8    C18   A    
Cu1   O4    S    
C32   C34   A    
C9    H21   S    
C7    H19   S    
C46   H25   S    
C39   H13   S    
C2    C21   S    
C41   H1    S    
C16   C18   A    
C42   H2    S    
C23   O7    A    
C49   H33   S    
C9    C11   A    
C10   C12   A    
C13   H3    S    
C4    C6    A    
C46   H26   S    
C5    C44   A    
C20   C22   A    
C6    C43   A    
C13   C15   A    
C14   C16   A    
C30   N1    T    
C43   H15   S    
C29   N2    T    
C24   O8    A    
C7    C9    A    
C21   C25   A    
C33   H11   S    
C31   C41   A    
C35   C37   A    
C8    C10   A    
C12   C14   A    
C45   H23   S    
C3    C5    A    
C47   H29   S    
Cu2   O7    S    
C28   H7    S    
C10   H22   S    
C20   H6    S    
C49   C50   S    
C12   C25   S    
Cu1   O5    S    
C1    O3    A    
C36   C38   A    
C37   C39   A    
C17   H17   S    
C48   C49   S    
C37   I1    S    
C11   C13   A    
C18   H18   S    
O10   C48   S    
C14   H4    S    
C33   C35   A    
C34   C36   A    
C49   H32   S    
Cu2   N2    S    
O9    C45   S    
C19   H5    S    
C46   C47   S    
C38   I2    S    
C22   C26   A    
C27   C28   D    
C34   H12   S    
C32   C42   A    
C31   H9    S    
C32   H10   S    
Cu2   O3    S    
