data_mof_unit_539.cif
_audit_creation_date              2012-12-11T14:15:41-0500
_audit_creation_method            fapswitch 2.2
_symmetry_space_group_name_H-M    P1
_symmetry_Int_Tables_number       1
_space_group_crystal_system       triclinic
_cell_length_a                    11.179458
_cell_length_b                    12.708954
_cell_length_c                    23.543859
_cell_angle_alpha                 90.630291
_cell_angle_beta                  96.911779
_cell_angle_gamma                 68.241741
_cell_volume                      3082.1478393

loop_
_atom_site_label
_atom_site_type_symbol
_atom_type_description
_atom_site_fract_x
_atom_site_fract_y
_atom_site_fract_z
_atom_type_partial_charge
C1    C     C_R   0.149497 0.616712 0.428836 0.556895
C2    C     C_R   0.639191 0.569935 0.313751 -0.110248
C3    C     C_R   0.708988 0.729855 0.319008 -0.090802
C4    C     C_R   0.695802 0.738263 0.259488 0.058099
C5    C     C_R   0.665069 0.654796 0.227433 0.005478
C6    C     C_R   0.665248 0.657000 0.168740 -0.124933
C7    C     C_R   0.694495 0.836528 0.171454 -0.066773
C8    C     C_R   0.715021 0.826820 0.231213 0.418774
C9    C     C_1   0.234737 0.163971 0.122418 -0.004692
C10   C     C_2   0.175702 0.235801 0.225556 0.011490
C11   C     C_2   0.158692 0.163641 0.263362 0.024176
C12   C     C_R   0.747941 0.605126 0.404493 0.546592
C13   C     C_1   0.134044 0.197564 0.321192 -0.021533
C14   C     C_1   0.207834 0.199727 0.168796 -0.024557
C15   C     C_1   0.116753 0.231180 0.368786 -0.002979
C16   C     C_1   0.168331 0.749179 0.123664 -0.032077
C17   C     C_2   0.144119 0.685332 0.227344 0.385495
C18   C     C_2   0.235288 0.677532 0.271661 -0.096117
C19   C     C_1   0.217338 0.652952 0.329250 0.014933
C20   C     C_1   0.156606 0.718970 0.170516 -0.019137
C21   C     C_1   0.193709 0.634954 0.376165 0.018569
C22   C     C_1   0.627269 0.752843 0.865009 -0.011967
C23   C     C_R   0.101327 0.282091 0.423491 0.550234
C24   C     C_2   0.698760 0.687951 0.763114 -0.051381
C25   C     C_2   0.609542 0.710269 0.716893 -0.086497
C26   C     C_1   0.648795 0.673037 0.661584 -0.023705
C27   C     C_1   0.662284 0.725528 0.818725 -0.035016
C28   C     C_1   0.688947 0.641300 0.616612 0.002435
C29   C     C_R   0.194929 0.182645 0.855389 -0.042656
C30   C     C_R   0.107500 0.237042 0.642819 0.005453
C31   C     C_R   0.029327 0.152268 0.714044 -0.105277
C32   C     C_R   0.030023 0.178611 0.656784 -0.119060
C33   C     C_R   0.180500 0.272192 0.685704 -0.091378
C34   C     C_R   0.108749 0.594409 0.594845 0.544933
C35   C     C_R   0.178117 0.249171 0.742496 -0.012145
C36   C     C_R   0.103548 0.187091 0.757045 -0.028283
C37   C     C_R   0.111097 0.155347 0.814002 -0.207827
C38   C     C_R   0.257990 0.253989 0.841407 0.415342
C39   C     C_R   0.251695 0.285216 0.784887 0.396621
C40   C     C_R   0.117597 0.743294 0.855002 -0.031792
C41   C     C_R   0.137210 0.605312 0.655556 -0.018590
C42   C     C_R   0.286994 0.568616 0.742225 -0.052703
C43   C     C_R   0.262372 0.550888 0.684581 -0.097432
C44   C     C_R   0.036384 0.674551 0.684358 -0.109713
C45   C     C_R   0.749788 0.602521 0.565957 0.533570
C46   C     C_R   0.060495 0.693887 0.741874 0.036174
C47   C     C_R   0.186522 0.639441 0.771047 -0.004348
C48   C     C_R   0.212940 0.662070 0.827604 -0.135273
C49   C     C_R   0.988368 0.794008 0.827046 -0.000070
C50   C     C_R   0.962092 0.770182 0.769840 0.353659
C51   C     C_R   0.265649 0.110244 0.069292 0.547516
C52   C     C_R   0.600214 0.774430 0.081326 0.539707
C53   C     C_R   0.189888 0.787703 0.069878 0.546279
C54   C     C_R   0.240242 0.115882 0.908288 0.581643
C55   C     C_R   0.573408 0.776010 0.918145 0.541777
C56   C     C_R   0.100001 0.279841 0.585399 0.531698
C57   C     C_R   0.162218 0.786032 0.907843 0.549486
C58   C     C_R   0.665345 0.752928 0.140119 -0.048647
C59   C     C_R   0.688888 0.641091 0.345965 -0.027982
C60   C     C_R   0.629737 0.573758 0.254474 -0.012271
Cr1   Cr    Cr6+3 0.189770 0.415650 0.511620 1.037257
Cr2   Cr    Cr6+3 0.930400 0.667320 0.496770 1.046817
Cr3   Cr    Cr6+3 0.879870 0.417010 0.491650 1.034294
Cr4   Cr    Cr6+3 0.149500 0.973980 0.985330 1.030752
Cr5   Cr    Cr6+3 0.457000 0.976510 0.994660 1.072169
Cr6   Cr    Cr6+3 0.411170 0.724270 0.995270 1.045524
H1    H     H_    0.649935 0.589429 0.144451 0.155691
H2    H     H_    0.507623 0.757955 0.720233 0.131051
H3    H     H_    0.800235 0.638826 0.759599 0.153220
H4    H     H_    0.062104 0.100413 0.825075 0.153771
H5    H     H_    0.971538 0.104835 0.724686 0.140377
H6    H     H_    0.970439 0.154084 0.623644 0.132752
H7    H     H_    0.236359 0.321330 0.674854 0.186052
H8    H     H_    0.311540 0.622661 0.848716 0.163264
H9    H     H_    0.695484 0.911127 0.150037 0.152230
H10   H     H_    0.384764 0.528452 0.764004 0.167092
H11   H     H_    0.341582 0.496946 0.662658 0.151361
H12   H     H_    0.939899 0.715230 0.661284 0.184663
H13   H     H_    0.618098 0.504644 0.334925 0.144585
H14   H     H_    0.743135 0.787377 0.344202 0.193629
H15   H     H_    0.321511 0.693934 0.265203 0.066701
O1    O     O_R   0.196340 0.303200 0.448500 -0.502073
O2    O     O_R   0.811960 0.658090 0.547150 -0.512169
O3    O     O_R   0.757930 0.506140 0.547110 -0.503609
O4    O     O_R   0.988670 0.321620 0.556040 -0.498966
O5    O     O_3   0.000020 0.499990 0.500010 -0.274396
O6    O     O_R   0.113660 0.883270 0.047820 -0.502547
O7    O     O_R   0.186930 0.068530 0.043990 -0.497724
O8    O     O_R   0.377770 0.089040 0.054220 -0.496104
O9    O     O_R   0.562800 0.872960 0.056970 -0.502034
O10   O     O_R   0.555390 0.700940 0.062700 -0.518798
O11   O     O_R   0.295020 0.731920 0.049950 -0.494781
O12   O     O_R   0.199310 0.519670 0.454880 -0.492696
O13   O     O_R   0.094290 0.884230 0.921550 -0.524931
O14   O     O_R   0.168980 0.069410 0.926940 -0.515422
O15   O     O_R   0.358400 0.089990 0.927950 -0.442623
O16   O     O_R   0.544850 0.873850 0.939920 -0.493988
O17   O     O_R   0.536020 0.701900 0.936430 -0.503285
O18   O     O_R   0.277070 0.732810 0.932890 -0.495208
O19   O     O_3   0.339220 0.891590 0.991750 -0.260862
O20   O     O_R   0.045660 0.691380 0.441680 -0.487818
O21   O     O_R   0.811930 0.659460 0.430950 -0.498723
O22   O     O_R   0.757900 0.507620 0.421760 -0.512670
O23   O     O_R   0.988630 0.322990 0.439840 -0.487907
O24   O     O_R   0.196380 0.301720 0.573850 -0.522588
O25   O     O_R   0.199350 0.518300 0.571080 -0.503961
O26   O     O_R   0.045700 0.689900 0.567030 -0.501183
F1    F     F_    0.035530 0.665910 0.235550 -0.620882
F2    F     F_    0.335050 0.284853 0.881835 -0.579473
F3    F     F_    0.326445 0.341919 0.771326 -0.633262
C61   C     C_3   0.878979 0.875401 0.856258 -0.317387
H16   H     H_    0.782344 0.888854 0.832472 0.194608
H17   H     H_    0.880497 0.841187 0.899655 0.126133
H18   H     H_    0.887636 0.959559 0.859087 0.161689
F4    F     F_    0.843544 0.827727 0.740120 -0.662427
C62   C     C_3   0.582072 0.491104 0.221579 -0.401760
H19   H     H_    0.553049 0.438313 0.250226 0.136723
H20   H     H_    0.495683 0.538177 0.190615 0.133187
H21   H     H_    0.660141 0.433013 0.198404 0.147291
F5    F     F_    0.744117 0.907930 0.261192 -0.626641
C63   C     C_3   0.170714 0.044880 0.247808 -0.370319
H22   H     H_    0.149785 0.000374 0.283461 0.148816
H23   H     H_    0.100698 0.047745 0.209596 0.150551
H24   H     H_    0.270886 0.995354 0.238379 0.132638
C64   C     C_3   0.164635 0.354303 0.241254 -0.351825
H25   H     H_    0.179016 0.400838 0.204607 0.156232
H26   H     H_    0.066757 0.402538 0.253654 0.169989
H27   H     H_    0.239499 0.350595 0.277579 0.140770

loop_
_geom_bond_atom_site_label_1
_geom_bond_atom_site_label_2
_ccdc_geom_bond_type
Cr2   O2    S    
C1    C21   S    
C23   O1    A    
C6    C58   A    
C52   O9    A    
C35   C36   A    
C9    C51   S    
C24   C27   S    
C4    C8    A    
C17   C20   S    
C7    C8    A    
C32   H6    S    
C11   C63   S    
Cr5   O8    S    
Cr2   O5    S    
C34   O26   A    
C36   C37   A    
C19   C21   T    
C61   H16   S    
C18   C19   S    
Cr1   O1    S    
C5    C6    A    
Cr1   O12   S    
C29   C54   S    
C40   C49   A    
C57   O18   A    
C18   H15   S    
C62   H19   S    
C50   F4    S    
Cr6   O19   S    
C16   C53   S    
C63   H24   S    
C2    H13   S    
C12   C59   S    
C39   F3    S    
C47   C48   A    
C29   C38   A    
C64   H27   S    
C10   C64   S    
Cr1   O24   S    
Cr4   O6    S    
C54   O15   A    
C5    C60   A    
C49   C61   S    
Cr2   O20   S    
C15   C23   S    
C37   H4    S    
Cr3   O4    S    
C41   C43   A    
C45   O2    A    
C25   H2    S    
C53   O6    A    
C3    H14   S    
C44   C46   A    
C24   H3    S    
Cr5   O15   S    
Cr5   O9    S    
C28   C45   S    
Cr1   O5    S    
C34   O25   A    
C48   H8    S    
C24   C25   D    
Cr5   O19   S    
C12   O22   A    
Cr3   O22   S    
C10   C14   S    
C17   F1    S    
C2    C59   A    
Cr3   O23   S    
Cr6   O11   S    
Cr2   O26   S    
C25   C26   S    
C30   C56   S    
Cr6   O18   S    
C35   C39   A    
C9    C14   T    
C12   O21   A    
C23   O23   A    
C16   C20   T    
C55   O16   A    
C53   O11   A    
C17   C18   D    
C54   O14   A    
C61   H17   S    
C38   F2    S    
Cr1   O25   S    
C63   H22   S    
C22   C55   S    
C52   C58   S    
C33   H7    S    
C6    H1    S    
C22   C27   T    
C13   C15   T    
Cr3   O5    S    
C64   H25   S    
C41   C44   A    
C60   C62   S    
C45   O3    A    
C42   C43   A    
C3    C4    A    
C1    O20   A    
C8    F5    S    
C40   C48   A    
C46   C47   A    
C40   C57   S    
C7    C58   A    
C30   C33   A    
C26   C28   T    
C31   C32   A    
Cr4   O14   S    
C4    C5    A    
C51   O7    A    
C7    H9    S    
Cr6   O10   S    
C43   H11   S    
C46   C50   A    
C42   H10   S    
C62   H21   S    
Cr3   O3    S    
C57   O13   A    
Cr6   O17   S    
C44   H12   S    
Cr5   O16   S    
C34   C41   S    
C51   O8    A    
C30   C32   A    
C11   C13   S    
C56   O4    A    
C38   C39   A    
C55   O17   A    
C31   H5    S    
C33   C35   A    
C62   H20   S    
C61   H18   S    
C2    C60   A    
C42   C47   A    
C56   O24   A    
C63   H23   S    
C10   C11   D    
Cr4   O13   S    
Cr4   O19   S    
C1    O12   A    
C49   C50   A    
C29   C37   A    
C64   H26   S    
C31   C36   A    
C52   O10   A    
Cr4   O7    S    
Cr2   O21   S    
C3    C59   A    
