data_mof_unit_2467.cif
_audit_creation_date              2012-12-10T16:32:42-0500
_audit_creation_method            fapswitch 2.2
_symmetry_space_group_name_H-M    P1
_symmetry_Int_Tables_number       1
_space_group_crystal_system       triclinic
_cell_length_a                    16.921886
_cell_length_b                    16.922144
_cell_length_c                    16.921541
_cell_angle_alpha                 65.62148
_cell_angle_beta                  65.620728
_cell_angle_gamma                 65.617487
_cell_volume                      3844.49123747

loop_
_atom_site_label
_atom_site_type_symbol
_atom_type_description
_atom_site_fract_x
_atom_site_fract_y
_atom_site_fract_z
_atom_type_partial_charge
C1    C     C_R   0.588965 0.035947 0.590708 0.149236
C2    C     C_R   0.821595 0.563883 0.033945 0.913072
C3    C     C_R   0.436113 0.966068 0.178405 0.913025
C4    C     C_R   0.563887 0.033931 0.821595 0.913122
C5    C     C_R   0.564899 0.821720 0.031674 0.911656
C6    C     C_R   0.435085 0.178274 0.968367 0.911694
C7    C     C_R   0.031660 0.564902 0.821722 0.911641
C8    C     C_R   0.968341 0.435098 0.178278 0.911658
C9    C     C_R   0.821723 0.031662 0.564902 0.911705
C10   C     C_R   0.178278 0.968337 0.435098 0.911676
C11   C     C_R   0.542317 0.017972 0.544928 -0.122642
C12   C     C_R   0.411034 0.964063 0.409286 0.149231
C13   C     C_R   0.457683 0.982041 0.455063 -0.122647
C14   C     C_R   0.018016 0.544955 0.542261 -0.122735
C15   C     C_R   0.982061 0.455045 0.457691 -0.122741
C16   C     C_R   0.544904 0.542276 0.018087 -0.122677
C17   C     C_R   0.455021 0.457671 0.982130 -0.122671
C18   C     C_R   0.513862 0.085733 0.470341 0.129968
C19   C     C_R   0.486158 0.914272 0.529635 0.129938
C20   C     C_R   0.085822 0.470488 0.513652 0.129970
C21   C     C_R   0.914244 0.529501 0.486322 0.129984
C22   C     C_R   0.470374 0.513757 0.085871 0.129983
C23   C     C_R   0.035974 0.590721 0.588936 0.149249
C24   C     C_R   0.529596 0.486127 0.914371 0.129999
C25   C     C_R   0.471965 0.067733 0.425221 0.135778
C26   C     C_R   0.528045 0.932278 0.574761 0.135746
C27   C     C_R   0.425208 0.471928 0.067838 0.135795
C28   C     C_R   0.574709 0.528023 0.932386 0.135752
C29   C     C_R   0.067801 0.425326 0.471812 0.135807
C30   C     C_R   0.932269 0.574672 0.528145 0.135777
C31   C     C_R   0.546829 0.043277 0.678885 -0.136655
C32   C     C_R   0.453170 0.956730 0.321111 -0.136655
C33   C     C_R   0.043298 0.678894 0.546813 -0.136613
C34   C     C_R   0.964077 0.409274 0.411041 0.149246
C35   C     C_R   0.956745 0.321102 0.453174 -0.136580
C36   C     C_R   0.678870 0.546808 0.043363 -0.136586
C37   C     C_R   0.321102 0.453181 0.956732 -0.136597
C38   C     C_R   0.320549 0.963541 0.449795 -0.132876
C39   C     C_R   0.679452 0.036464 0.550202 -0.132866
C40   C     C_R   0.449743 0.320510 0.963683 -0.132825
C41   C     C_R   0.550172 0.679422 0.036557 -0.132900
C42   C     C_R   0.963556 0.449785 0.320551 -0.132921
C43   C     C_R   0.036485 0.550207 0.679428 -0.132918
C44   C     C_R   0.595997 0.049665 0.725148 -0.066552
C45   C     C_R   0.590683 0.588933 0.036051 0.149242
C46   C     C_R   0.404003 0.950334 0.274851 -0.066525
C47   C     C_R   0.049673 0.725150 0.595995 -0.066544
C48   C     C_R   0.950346 0.274850 0.404001 -0.066538
C49   C     C_R   0.725142 0.595989 0.049710 -0.066564
C50   C     C_R   0.274853 0.404013 0.950320 -0.066539
C51   C     C_R   0.274532 0.954154 0.402305 -0.065853
C52   C     C_R   0.725470 0.045844 0.597695 -0.065859
C53   C     C_R   0.402285 0.274519 0.954216 -0.065821
C54   C     C_R   0.597681 0.725458 0.045892 -0.065861
C55   C     C_R   0.954162 0.402304 0.274531 -0.065865
C56   C     C_R   0.409248 0.411018 0.964150 0.149218
C57   C     C_R   0.045849 0.597695 0.725463 -0.065868
C58   C     C_R   0.681796 0.057991 0.682021 -0.243992
C59   C     C_R   0.318206 0.942003 0.317981 -0.244015
C60   C     C_R   0.057990 0.682020 0.681799 -0.243989
C61   C     C_R   0.942012 0.317983 0.318203 -0.243994
C62   C     C_R   0.682015 0.681794 0.058024 -0.244012
C63   C     C_R   0.317985 0.318211 0.942001 -0.244068
C64   C     C_R   0.966072 0.178406 0.436111 0.913069
C65   C     C_R   0.033935 0.821595 0.563886 0.913071
C66   C     C_R   0.178407 0.436121 0.966049 0.913044
H1    H     H_    0.478426 0.037782 0.712950 0.166787
H2    H     H_    0.483829 0.714449 0.025830 0.167090
H3    H     H_    0.974314 0.516104 0.285516 0.167107
H4    H     H_    0.025747 0.483879 0.714449 0.167102
H5    H     H_    0.718072 0.064465 0.717963 0.183822
H6    H     H_    0.281932 0.935524 0.282041 0.183810
H7    H     H_    0.064453 0.717960 0.718083 0.183819
H8    H     H_    0.935530 0.282048 0.281926 0.183816
H9    H     H_    0.717964 0.718080 0.064468 0.183815
H10   H     H_    0.282061 0.281947 0.935485 0.183799
H11   H     H_    0.521571 0.962229 0.287045 0.166793
H12   H     H_    0.037811 0.712961 0.478406 0.166790
H13   H     H_    0.962248 0.287034 0.521576 0.166793
H14   H     H_    0.712936 0.478401 0.037881 0.166808
H15   H     H_    0.287042 0.521601 0.962187 0.166785
H16   H     H_    0.285517 0.974286 0.516123 0.167125
H17   H     H_    0.714484 0.025724 0.483872 0.167137
H18   H     H_    0.516040 0.285443 0.974527 0.167154
I1    I     I_    0.571594 0.829333 0.687747 -0.229365
I2    I     I_    0.429413 0.530811 0.217136 -0.224797
I3    I     I_    0.782967 0.570403 0.469364 -0.224795
I4    I     I_    0.217109 0.429496 0.530713 -0.224830
I5    I     I_    0.428435 0.170674 0.312221 -0.229430
I6    I     I_    0.829325 0.687654 0.571688 -0.229383
I7    I     I_    0.170765 0.312347 0.428231 -0.229334
I8    I     I_    0.687698 0.571539 0.829462 -0.229343
I9    I     I_    0.312162 0.428486 0.170731 -0.229424
I10   I     I_    0.468862 0.783046 0.570810 -0.225073
I11   I     I_    0.531253 0.216917 0.429096 -0.225072
I12   I     I_    0.570866 0.468721 0.783152 -0.224970
O1    O     O_R   0.982940 0.138950 0.510160 -0.629013
O2    O     O_R   0.982940 0.510160 0.138950 -0.629488
O3    O     O_R   0.861050 0.017060 0.489840 -0.629492
O4    O     O_R   0.138950 0.982940 0.510160 -0.629500
O5    O     O_R   0.867700 0.025880 0.612340 -0.630810
O6    O     O_R   0.132300 0.974120 0.387660 -0.630818
O7    O     O_R   0.025880 0.612340 0.867700 -0.630816
O8    O     O_R   0.974120 0.387660 0.132300 -0.630804
O9    O     O_R   0.612340 0.867700 0.025880 -0.630812
O10   O     O_R   0.387660 0.132300 0.974120 -0.630817
O11   O     O_R   0.387660 0.974120 0.132300 -0.629440
O12   O     O_R   0.017060 0.861050 0.489840 -0.629012
O13   O     O_R   0.612340 0.025880 0.867700 -0.629402
O14   O     O_R   0.132300 0.387660 0.974120 -0.629408
O15   O     O_R   0.867700 0.612340 0.025880 -0.629432
O16   O     O_R   0.974120 0.132300 0.387660 -0.629415
O17   O     O_R   0.025880 0.867700 0.612340 -0.629425
O18   O     O_R   0.138950 0.510160 0.982940 -0.628988
O19   O     O_R   0.861050 0.489840 0.017060 -0.628976
O20   O     O_R   0.510160 0.982940 0.138950 -0.629013
O21   O     O_R   0.489840 0.017060 0.861050 -0.628988
O22   O     O_R   0.489840 0.861050 0.017060 -0.629480
O23   O     O_R   0.510160 0.138950 0.982940 -0.629501
O24   O     O_R   0.017060 0.489840 0.861050 -0.629478
Zn1   Zn    Zn3+2 0.004880 0.004880 0.583590 0.984168
Zn2   Zn    Zn3+2 0.995120 0.995120 0.416410 0.984167
Zn3   Zn    Zn3+2 0.004880 0.583590 0.004880 0.984152
Zn4   Zn    Zn3+2 0.995120 0.416410 0.995120 0.984185
Zn5   Zn    Zn3+2 0.583590 0.004880 0.004880 0.984177
Zn6   Zn    Zn3+2 0.416410 0.995120 0.995120 0.984158

loop_
_geom_bond_atom_site_label_1
_geom_bond_atom_site_label_2
_ccdc_geom_bond_type
C16   C28   A    
C4    O13   A    
C21   I3    S    
C11   C18   A    
C50   C63   A    
C46   C59   A    
C40   C56   A    
C40   H18   S    
C34   C42   A    
C30   I6    S    
O7    Zn3   S    
C5    O9    A    
C31   H1    S    
C18   C25   A    
C34   C35   A    
C3    O20   A    
C24   I12   S    
C58   H5    S    
C48   C64   S    
C63   H10   S    
C35   C48   A    
C55   C61   A    
C60   H7    S    
C1    C31   A    
C23   C43   A    
O4    Zn1   S    
C19   C26   A    
C8    O2    A    
O1    Zn1   S    
O14   Zn4   S    
C47   C60   A    
C37   C56   A    
C44   C58   A    
C23   C33   A    
C1    C11   S    
C49   C62   A    
O21   Zn6   S    
C15   C34   S    
C59   H6    S    
C39   C52   A    
C32   H11   S    
C9    O3    A    
C7    O7    A    
C12   C32   A    
C18   I11   S    
C37   H15   S    
C9    C52   S    
C32   C46   A    
C14   C30   A    
C10   C51   S    
C8    C55   S    
C15   C29   A    
C41   H2    S    
C20   C29   A    
O2    Zn3   S    
C2    O15   A    
C17   C24   A    
C31   C44   A    
C13   C19   A    
O15   Zn3   S    
C17   C27   A    
C14   C20   A    
C5    C54   S    
C10   O6    A    
C36   H14   S    
C1    C39   A    
C57   C60   A    
C38   C51   A    
C4    C44   S    
C11   C26   A    
C3    O11   A    
C33   H12   S    
C42   H3    S    
O5    Zn1   S    
C14   C23   S    
O16   Zn2   S    
C2    C49   S    
C42   C55   A    
C8    O8    A    
C2    O19   A    
C6    O10   A    
C36   C45   A    
C28   I8    S    
C65   O12   A    
C66   O14   A    
C10   O4    A    
C50   C66   S    
C17   C56   S    
C19   I10   S    
C52   C58   A    
O3    Zn2   S    
O18   Zn3   S    
O23   Zn5   S    
O13   Zn5   S    
C64   O1    A    
C43   H4    S    
O20   Zn5   S    
C33   C47   A    
C4    O21   A    
C27   I9    S    
C51   C59   A    
C6    C53   S    
C6    O23   A    
C29   I7    S    
C16   C22   A    
O19   Zn4   S    
C66   O18   A    
C65   O17   A    
C7    O24   A    
C24   C28   A    
O11   Zn6   S    
O12   Zn2   S    
C13   C25   A    
C16   C45   S    
O8    Zn4   S    
C61   H8    S    
C54   C62   A    
C21   C30   A    
O10   Zn6   S    
C3    C46   S    
C25   I5    S    
O9    Zn5   S    
C5    O22   A    
C22   C27   A    
C39   H17   S    
C37   C50   A    
C53   C63   A    
C48   C61   A    
C26   I1    S    
C20   I4    S    
C35   H13   S    
C7    C57   S    
C22   I2    S    
C12   C38   A    
C62   H9    S    
C41   C54   A    
C64   O16   A    
C43   C57   A    
C15   C21   A    
O17   Zn1   S    
C12   C13   S    
C9    O5    A    
C40   C53   A    
C41   C45   A    
O22   Zn6   S    
O6    Zn2   S    
C47   C65   S    
C38   H16   S    
C36   C49   A    
O24   Zn4   S    
