data_mof_unit_2235.cif
_audit_creation_date              2012-12-10T17:22:42-0500
_audit_creation_method            fapswitch 2.2
_symmetry_space_group_name_H-M    P1
_symmetry_Int_Tables_number       1
_space_group_crystal_system       triclinic
_cell_length_a                    10.619649
_cell_length_b                    11.009311
_cell_length_c                    9.594883
_cell_angle_alpha                 90.695922
_cell_angle_beta                  90.483364
_cell_angle_gamma                 94.022139
_cell_volume                      1118.8919351

loop_
_atom_site_label
_atom_site_type_symbol
_atom_type_description
_atom_site_fract_x
_atom_site_fract_y
_atom_site_fract_z
_atom_type_partial_charge
C1    C     C_R   0.490283 0.262035 0.500707 0.787572
C2    C     C_3   0.964583 0.601605 0.438257 -0.179082
C3    C     C_3   0.039182 0.502683 0.367251 -0.128526
C4    C     C_3   0.122353 0.500285 0.498506 0.024225
C5    C     C_R   0.454930 0.122918 0.765888 -0.327139
C6    C     C_R   0.498441 0.078400 0.891233 0.453431
C7    C     C_R   0.539582 0.960955 0.894378 0.454810
C8    C     C_R   0.538720 0.893396 0.770300 -0.340359
C9    C     C_R   0.506652 0.941670 0.638799 0.035945
C10   C     C_R   0.478095 0.065104 0.636744 0.040039
C11   C     C_R   0.477405 0.127319 0.507012 -0.088180
C12   C     C_R   0.259385 0.499837 0.499428 0.787359
C13   C     C_R   0.477359 0.059934 0.382814 -0.218934
C14   C     C_R   0.484331 0.934547 0.384667 -0.212802
C15   C     C_R   0.501529 0.873223 0.510006 -0.083671
C16   C     C_R   0.690139 0.639880 0.147657 -0.094357
C17   C     C_R   0.794693 0.691783 0.078714 -0.215752
C18   C     C_R   0.796273 0.690606 0.935088 -0.202234
C19   C     C_R   0.694871 0.634769 0.861085 -0.152258
C20   C     C_R   0.596120 0.565402 0.927377 0.198620
C21   C     C_R   0.594853 0.566862 0.076658 0.213321
C22   C     C_R   0.406425 0.440365 0.072245 -0.024198
C23   C     C_R   0.503273 0.738425 0.502346 0.765468
C24   C     C_R   0.405681 0.441561 0.924328 -0.056841
C25   C     C_R   0.740569 0.500337 0.500594 0.767303
C26   C     C_3   0.035207 0.399213 0.561931 -0.179776
C27   C     C_3   0.949818 0.401566 0.430775 -0.159318
C28   C     C_3   0.877513 0.500486 0.501631 0.030577
C29   C     C_3   0.960618 0.498152 0.632893 -0.144486
C30   C     C_3   0.050021 0.599248 0.569392 -0.163633
Cu1   Cu    Cu3+1 0.499990 0.499990 0.640660 0.921239
Cu2   Cu    Cu3+1 0.500010 0.500010 0.359340 0.933890
H1    H     H_    0.905550 0.320731 0.374218 0.124267
H2    H     H_    0.570392 0.805821 0.782456 0.208444
H3    H     H_    0.478151 0.885430 0.286234 0.216553
H4    H     H_    0.330792 0.390000 0.125961 0.140668
H5    H     H_    0.684453 0.665293 0.254822 0.177866
H6    H     H_    0.869084 0.743055 0.136477 0.131455
H7    H     H_    0.871738 0.740933 0.880756 0.141618
H8    H     H_    0.692683 0.657926 0.753860 0.178997
H9    H     H_    0.329049 0.392650 0.867981 0.130769
H10   H     H_    0.067292 0.316426 0.612386 0.122045
H11   H     H_    0.925904 0.496246 0.741719 0.144190
H12   H     H_    0.094126 0.680136 0.625980 0.132354
H13   H     H_    0.932417 0.684511 0.388215 0.112406
H14   H     H_    0.073795 0.504591 0.258376 0.136055
H15   H     H_    0.471591 0.104435 0.283284 0.215134
H16   H     H_    0.402633 0.202957 0.773755 0.190716
N1    N     N_R   0.501210 0.501210 0.147910 -0.216790
N2    N     N_R   0.501250 0.501290 0.852040 -0.214372
O1    O     O_R   0.499990 0.319640 0.618810 -0.591281
O2    O     O_R   0.500000 0.319660 0.381240 -0.576319
O3    O     O_R   0.316850 0.499960 0.618770 -0.583127
O4    O     O_R   0.316860 0.499980 0.381190 -0.586325
O5    O     O_R   0.500000 0.680340 0.618760 -0.597629
O6    O     O_R   0.500010 0.680360 0.381190 -0.590017
O7    O     O_R   0.683140 0.500020 0.618810 -0.604548
O8    O     O_R   0.683150 0.500040 0.381230 -0.603018
O9    O     O_3   0.561836 0.902734 0.018737 -0.570905
C31   C     C_3   0.671990 0.955348 0.084917 -0.312683
H17   H     H_    0.652390 0.038260 0.144462 0.199383
H18   H     H_    0.751617 0.972228 0.011165 0.141890
H19   H     H_    0.702022 0.892693 0.165759 0.174000
O10   O     O_3   0.500770 0.150516 0.009907 -0.591569
C32   C     C_3   0.607560 0.234756 0.002402 -0.365454
H20   H     H_    0.599118 0.298470 0.914944 0.198225
H21   H     H_    0.696959 0.189381 0.988346 0.133607
H22   H     H_    0.616497 0.287711 0.101380 0.211143

loop_
_geom_bond_atom_site_label_1
_geom_bond_atom_site_label_2
_ccdc_geom_bond_type
C4    C26   S    
C18   H7    S    
C23   O5    A    
C16   C21   A    
C20   N2    A    
C4    C12   S    
C22   H4    S    
C9    C10   A    
C3    H14   S    
Cu1   Cu2   S    
C1    C11   S    
Cu2   O8    S    
C16   H5    S    
C2    C30   S    
C32   H22   S    
C10   C11   A    
O10   C32   S    
Cu1   O7    S    
C19   C20   A    
C15   C23   S    
C17   C18   A    
C9    C15   A    
C4    C30   S    
O9    C31   S    
C8    H2    S    
C13   C14   A    
C27   H1    S    
C25   C28   S    
C24   H9    S    
C11   C13   A    
C30   H12   S    
C26   C27   S    
C29   C30   S    
C25   O7    A    
C7    O9    S    
C22   N1    A    
Cu1   O5    S    
C21   N1    A    
C29   H11   S    
C3    C27   S    
C28   C29   S    
C1    O2    A    
Cu2   O6    S    
C2    C3    S    
C6    C7    A    
C17   H6    S    
C31   H19   S    
C2    H13   S    
C24   N2    A    
C5    C6    A    
C5    H16   S    
C22   C24   A    
Cu2   N1    S    
C7    C8    A    
C25   O8    A    
C12   O4    A    
Cu1   N2    S    
C6    O10   S    
C3    C4    S    
C23   O6    A    
C18   C19   A    
C20   C21   A    
C26   H10   S    
C26   C29   S    
C31   H18   S    
C32   H20   S    
C19   H8    S    
Cu2   O4    S    
C27   C28   S    
C13   H15   S    
C14   C15   A    
Cu2   O2    S    
C2    C28   S    
C1    O1    A    
C5    C10   A    
C14   H3    S    
C31   H17   S    
Cu1   O3    S    
C12   O3    A    
C16   C17   A    
Cu1   O1    S    
C8    C9    A    
C32   H21   S    
