data_mof_unit_4276.cif
_audit_creation_date              2013-03-05T15:44:59-0500
_audit_creation_method            fapswitch 2.2
_symmetry_space_group_name_H-M    P1
_symmetry_Int_Tables_number       1
_space_group_crystal_system       triclinic
_cell_length_a                    17.283712
_cell_length_b                    24.488458
_cell_length_c                    14.889335
_cell_angle_alpha                 89.875148
_cell_angle_beta                  125.134929
_cell_angle_gamma                 90.911502
_cell_volume                      5152.87474895

loop_
_atom_site_label
_atom_site_type_symbol
_atom_site_description
_atom_site_fract_x
_atom_site_fract_y
_atom_site_fract_z
_atom_type_partial_charge
C1    C     C_R   0.355249 0.347304 0.908464 -0.143370
C2    C     C_R   0.686336 0.372854 0.090946 -0.124067
C3    C     C_R   0.855249 0.847304 0.908465 -0.143210
C4    C     C_R   0.186376 0.872910 0.090946 -0.123250
H1    H     H_    0.327167 0.333553 0.826107 0.146820
H2    H     H_    0.741526 0.363727 0.175412 0.132650
H3    H     H_    0.827163 0.833552 0.826108 0.146953
H4    H     H_    0.241589 0.863803 0.175414 0.132893
N1    N     N_R   0.395440 0.396300 0.944370 -0.077806
N2    N     N_R   0.604560 0.396300 0.055630 -0.063444
N3    N     N_R   0.895440 0.896300 0.944370 -0.077802
N4    N     N_R   0.104560 0.896300 0.055630 -0.063635
C5    C     C_R   0.440463 0.649562 0.092761 -0.102853
C6    C     C_R   0.598767 0.620340 0.906421 -0.098849
C7    C     C_R   0.940543 0.149583 0.092767 -0.102609
C8    C     C_R   0.098765 0.120340 0.906420 -0.098901
H5    H     H_    0.481912 0.663135 0.177495 0.134872
H6    H     H_    0.569484 0.623524 0.820531 0.104085
H7    H     H_    0.981993 0.163145 0.177509 0.134914
H8    H     H_    0.069480 0.123526 0.820530 0.104081
N5    N     N_R   0.449890 0.602500 0.055780 -0.046638
N6    N     N_R   0.550110 0.602500 0.944220 -0.048716
N7    N     N_R   0.949890 0.102500 0.055780 -0.046658
N8    N     N_R   0.050110 0.102500 0.944220 -0.048704
C9    C     C_R   0.479615 0.453964 0.249274 -0.061405
C10   C     C_R   0.446774 0.454666 0.694065 -0.052793
C11   C     C_R   0.979601 0.953963 0.249255 -0.061412
C12   C     C_R   0.946877 0.954650 0.694114 -0.053768
H9    H     H_    0.468136 0.412195 0.260416 0.158523
H10   H     H_    0.421626 0.414028 0.662599 0.160599
H11   H     H_    0.968124 0.912194 0.260396 0.158527
H12   H     H_    0.921876 0.913987 0.662711 0.160619
N9    N     N_R   0.525090 0.470990 0.205640 -0.036238
N10   N     N_R   0.474910 0.470990 0.794360 -0.059327
N11   N     N_R   0.025090 0.970990 0.205640 -0.036243
N12   N     N_R   0.974910 0.970990 0.794360 -0.059222
C13   C     C_R   0.229669 0.542748 0.745098 -0.080222
C14   C     C_R   0.755621 0.545331 0.302542 -0.113913
C15   C     C_R   0.729675 0.042750 0.745140 -0.080043
C16   C     C_R   0.255620 0.045332 0.302544 -0.113927
N13   N     N_R   0.320240 0.527820 0.794510 -0.070236
N14   N     N_R   0.679760 0.527820 0.205490 -0.073544
N15   N     N_R   0.820240 0.027820 0.794510 -0.070251
N16   N     N_R   0.179760 0.027820 0.205490 -0.073524
C17   C     C_R   0.480332 0.545204 0.248911 -0.073166
C18   C     C_R   0.449526 0.545001 0.696093 -0.107921
C19   C     C_R   0.980309 0.045202 0.248884 -0.073152
C20   C     C_R   0.949545 0.044993 0.696097 -0.107931
H13   H     H_    0.471052 0.587448 0.259788 0.099260
H14   H     H_    0.430810 0.586661 0.669014 0.119248
H15   H     H_    0.971014 0.087447 0.259743 0.099327
H16   H     H_    0.930806 0.086649 0.668999 0.119201
N17   N     N_R   0.524580 0.527810 0.205160 -0.042887
N18   N     N_R   0.475420 0.527810 0.794840 -0.050956
N19   N     N_R   0.024580 0.027810 0.205160 -0.042902
N20   N     N_R   0.975420 0.027810 0.794840 -0.050910
C21   C     C_R   0.234863 0.451729 0.758173 -0.039243
C22   C     C_R   0.756894 0.454258 0.298934 -0.028693
C23   C     C_R   0.734864 0.951731 0.758193 -0.039069
C24   C     C_R   0.256888 0.954260 0.298945 -0.028571
H17   H     H_    0.217457 0.409382 0.758858 0.140071
H18   H     H_    0.770845 0.412356 0.326141 0.121668
H19   H     H_    0.717460 0.909385 0.758884 0.140068
H20   H     H_    0.270834 0.912360 0.326163 0.121586
N21   N     N_R   0.320750 0.470990 0.794990 -0.063509
N22   N     N_R   0.679250 0.470990 0.205010 -0.050046
N23   N     N_R   0.820750 0.970990 0.794990 -0.063467
N24   N     N_R   0.179250 0.970990 0.205010 -0.050029
C25   C     C_R   0.351060 0.650440 0.910419 -0.126603
C26   C     C_R   0.692953 0.620814 0.089192 -0.047089
C27   C     C_R   0.851188 0.150467 0.910432 -0.127550
C28   C     C_R   0.192952 0.120815 0.089191 -0.047106
H21   H     H_    0.313930 0.666910 0.828917 0.161890
H22   H     H_    0.754057 0.625476 0.172631 0.100426
H23   H     H_    0.814111 0.166934 0.828930 0.161890
H24   H     H_    0.254058 0.125476 0.172630 0.100427
N25   N     N_R   0.393580 0.602500 0.942610 -0.059261
N26   N     N_R   0.606420 0.602500 0.057390 -0.034529
N27   N     N_R   0.893580 0.102500 0.942610 -0.059176
N28   N     N_R   0.106420 0.102500 0.057390 -0.034532
C29   C     C_R   0.439839 0.347267 0.089422 0.321937
C30   C     C_R   0.594522 0.372203 0.907241 0.331137
C31   C     C_R   0.939841 0.847267 0.089424 0.321937
C32   C     C_R   0.094514 0.872171 0.907245 0.330625
N29   N     N_R   0.451750 0.396300 0.057540 -0.094954
N30   N     N_R   0.548250 0.396300 0.942460 -0.099891
N31   N     N_R   0.951750 0.896300 0.057540 -0.094969
N32   N     N_R   0.048250 0.896300 0.942460 -0.099839
C33   C     C_R   0.377675 0.315124 0.996236 -0.078084
C34   C     C_R   0.682109 0.357866 0.998965 -0.043711
C35   C     C_R   0.877677 0.815124 0.996238 -0.078127
C36   C     C_R   0.182167 0.857926 0.998980 -0.042782
C37   C     C_R   0.378433 0.679513 0.002683 0.028657
C38   C     C_R   0.689999 0.631732 0.995124 0.025451
C39   C     C_R   0.878576 0.179552 0.002693 0.029235
C40   C     C_R   0.189997 0.131734 0.995122 0.025479
C41   C     C_R   0.449242 0.499581 0.275550 -0.007138
C42   C     C_R   0.430806 0.499957 0.630783 0.021040
C43   C     C_R   0.949214 0.999578 0.275515 -0.007121
C44   C     C_R   0.930884 0.999942 0.630817 0.021295
C45   C     C_R   0.175564 0.495467 0.725702 0.071543
C46   C     C_R   0.805678 0.500064 0.361191 0.073265
C47   C     C_R   0.675566 0.995470 0.725741 0.071504
C48   C     C_R   0.305674 0.000067 0.361200 0.073362
Ni1   Ni    Ni4+2 0.435420 0.434250 0.870220 0.249642
Ni2   Ni    Ni4+2 0.564580 0.434250 0.129780 0.294991
Ni3   Ni    Ni4+2 0.935420 0.934250 0.870220 0.249789
Ni4   Ni    Ni4+2 0.064580 0.934250 0.129780 0.294967
Ni5   Ni    Ni4+2 0.563400 0.564580 0.128670 0.277919
Ni6   Ni    Ni4+2 0.436600 0.564580 0.871330 0.248557
Ni7   Ni    Ni4+2 0.063400 0.064580 0.128670 0.277943
Ni8   Ni    Ni4+2 0.936600 0.064580 0.871330 0.248576
C49   C     C_2   0.915480 0.462411 0.545592 -0.212855
C50   C     C_2   0.016263 0.450306 0.617742 -0.051740
C51   C     C_2   0.415467 0.962428 0.545625 -0.212933
C52   C     C_2   0.516249 0.950316 0.617795 -0.051489
C53   C     C_2   0.893445 0.500322 0.469301 -0.154029
C54   C     C_2   0.074779 0.492145 0.680056 -0.245645
C55   C     C_2   0.393444 0.000325 0.469314 -0.154036
C56   C     C_2   0.574776 0.992155 0.680095 -0.245699
H25   H     H_    0.948729 0.526200 0.476814 0.188095
H26   H     H_    0.044196 0.528198 0.689551 0.213895
H27   H     H_    0.448736 0.026192 0.476820 0.188077
H28   H     H_    0.544196 0.028218 0.689562 0.213886
C57   C     C_R   0.236836 0.721738 0.955015 -0.147620
C58   C     C_R   0.849034 0.675791 0.080428 -0.151366
C59   C     C_R   0.736679 0.221983 0.953417 -0.148670
C60   C     C_R   0.349031 0.175792 0.080426 -0.151500
H29   H     H_    0.198765 0.683390 0.919343 0.148863
H30   H     H_    0.879627 0.654128 0.156945 0.133687
H31   H     H_    0.698415 0.183800 0.916611 0.149488
H32   H     H_    0.379623 0.154130 0.156943 0.133706
C61   C     C_R   0.689499 0.265645 0.954454 -0.077286
C62   C     C_R   0.394885 0.222269 0.077284 -0.074676
C63   C     C_R   0.189730 0.765464 0.956021 -0.077979
C64   C     C_R   0.894888 0.722268 0.077286 -0.074756
H33   H     H_    0.614877 0.260555 0.919925 0.152410
H34   H     H_    0.464657 0.231851 0.148769 0.178769
H35   H     H_    0.115315 0.760318 0.922499 0.151463
H36   H     H_    0.964661 0.731849 0.148771 0.178739
C65   C     C_R   0.737810 0.315196 0.000386 0.082667
C66   C     C_R   0.346457 0.257474 0.986420 0.048641
C67   C     C_R   0.237826 0.815210 0.000495 0.082669
C68   C     C_R   0.846458 0.757474 0.986424 0.048697
C69   C     C_R   0.836533 0.320785 0.052484 -0.095657
C70   C     C_R   0.263669 0.236894 0.887542 -0.056057
C71   C     C_R   0.336277 0.821038 0.050918 -0.096832
C72   C     C_R   0.763668 0.736895 0.887548 -0.056026
C73   C     C_R   0.383915 0.775226 0.052571 -0.196687
C74   C     C_R   0.729192 0.685595 0.887153 -0.187645
C75   C     C_R   0.884247 0.275010 0.054194 -0.197261
C76   C     C_R   0.229190 0.185595 0.887149 -0.187691
H37   H     H_    0.459349 0.777051 0.089875 0.180502
H38   H     H_    0.666297 0.671195 0.810842 0.130845
H39   H     H_    0.959904 0.276701 0.092782 0.179606
H40   H     H_    0.166295 0.171195 0.810839 0.130845
C77   C     C_R   0.333085 0.726878 0.002787 0.109826
C78   C     C_R   0.760530 0.660729 0.986951 0.119775
C79   C     C_R   0.833213 0.226922 0.002742 0.110397
C80   C     C_R   0.260527 0.160730 0.986949 0.119737
C81   C     C_R   0.390489 0.549328 0.463869 -0.132485
C82   C     C_R   0.394111 0.549197 0.373368 -0.143114
C83   C     C_R   0.890537 0.049316 0.463894 -0.132541
C84   C     C_R   0.894109 0.049188 0.373359 -0.143097
H41   H     H_    0.392431 0.588341 0.498941 0.128571
H42   H     H_    0.398204 0.588141 0.341959 0.119554
H43   H     H_    0.892494 0.088328 0.498974 0.128593
H44   H     H_    0.898187 0.088133 0.341942 0.119658
C85   C     C_R   0.405105 0.499702 0.334961 0.125044
C86   C     C_R   0.396883 0.499932 0.515306 0.120593
C87   C     C_R   0.905084 0.999695 0.334931 0.124986
C88   C     C_R   0.896956 0.999918 0.515340 0.120651
C89   C     C_R   0.390679 0.450358 0.371594 -0.134182
C90   C     C_R   0.386973 0.450445 0.462011 -0.120883
C91   C     C_R   0.890676 0.950349 0.371576 -0.134142
C92   C     C_R   0.887020 0.950432 0.462029 -0.121044
H45   H     H_    0.391991 0.411359 0.338728 0.147238
H46   H     H_    0.386057 0.411438 0.495428 0.145541
H47   H     H_    0.891967 0.911351 0.338691 0.147288
H48   H     H_    0.886111 0.911424 0.495448 0.145450
C93   C     C_2   0.890873 0.372655 0.103968 1.021189
O1    O     O_2   0.850390 0.416277 0.081720 -0.634580
O2    O     O_R   0.989549 0.371651 0.177351 -0.792428
H49   H     H_    0.018732 0.409274 0.206883 0.338771
C94   C     C_2   0.200136 0.269083 0.787750 0.988715
O3    O     O_2   0.160901 0.309007 0.792327 -0.608070
O4    O     O_R   0.181534 0.251917 0.687526 -0.779532
H50   H     H_    0.136544 0.276823 0.624749 0.347908
C95   C     C_2   0.390395 0.873187 0.100542 1.023158
O5    O     O_2   0.349494 0.916539 0.080407 -0.635687
O6    O     O_R   0.489311 0.872771 0.169688 -0.792341
H51   H     H_    0.518284 0.910528 0.198209 0.338645
C96   C     C_2   0.700126 0.769088 0.787766 0.988773
O7    O     O_2   0.660908 0.809014 0.792362 -0.608001
O8    O     O_R   0.681496 0.751922 0.687527 -0.779605
H52   H     H_    0.636499 0.776829 0.624758 0.347715
C97   C     C_2   0.191567 0.595527 0.691067 0.969568
O9    O     O_2   0.227741 0.619676 0.651611 -0.634738
O10   O     O_R   0.113032 0.617160 0.681930 -0.801598
H53   H     H_    0.093501 0.653415 0.642347 0.353605
C98   C     C_2   0.763877 0.599922 0.349979 0.999634
O11   O     O_2   0.697117 0.630935 0.302349 -0.654162
O12   O     O_R   0.847133 0.615869 0.449734 -0.779839
H54   H     H_    0.843670 0.653988 0.473507 0.348959
C99   C     C_2   0.691576 0.095546 0.691198 0.969480
O13   O     O_2   0.727656 0.119692 0.651630 -0.634646
O14   O     O_R   0.613149 0.117203 0.682280 -0.802023
H55   H     H_    0.593615 0.153472 0.642752 0.353429
C100  C     C_2   0.263874 0.099924 0.349977 0.999654
O15   O     O_2   0.197114 0.130937 0.302343 -0.654135
O16   O     O_R   0.347128 0.115872 0.449731 -0.779882
H56   H     H_    0.343664 0.153992 0.473501 0.348942
N33   N     N_R   0.501066 0.328238 0.199652 0.201593
O17   O     O_R   0.590327 0.342095 0.257659 -0.418918
O18   O     O_R   0.464744 0.308675 0.249337 -0.420629
N34   N     N_R   0.550267 0.350067 0.799160 0.208091
O19   O     O_R   0.468178 0.325511 0.751253 -0.436189
O20   O     O_R   0.597916 0.346179 0.756600 -0.376581
N35   N     N_R   0.001070 0.828238 0.199653 0.201578
O21   O     O_R   0.090332 0.842095 0.257657 -0.419024
O22   O     O_R   0.964752 0.808674 0.249341 -0.420579
N36   N     N_R   0.050173 0.849800 0.799326 0.208476
O23   O     O_R   0.967952 0.825420 0.751544 -0.435713
O24   O     O_R   0.097801 0.845565 0.756799 -0.376634
C101  C     C_2   0.844385 0.429860 0.550328 1.099248
O25   O     O_2   0.868707 0.389124 0.607543 -0.570421
O26   O     O_R   0.750713 0.447041 0.493634 -0.790377
H57   H     H_    0.709578 0.421615 0.503951 0.347124
C102  C     C_2   0.044962 0.402645 0.582600 1.030927
O27   O     O_2   0.014792 0.357079 0.581940 -0.588190
O28   O     O_R   0.099542 0.410335 0.541546 -0.809936
H58   H     H_    0.112519 0.374798 0.518056 0.326560
C103  C     C_2   0.344358 0.929895 0.550366 1.099166
O29   O     O_2   0.368669 0.889171 0.607613 -0.570438
O30   O     O_R   0.250686 0.947079 0.493640 -0.790437
H59   H     H_    0.209542 0.921667 0.503964 0.347049
C104  C     C_2   0.544939 0.902634 0.582697 1.030712
O31   O     O_2   0.514760 0.857077 0.582075 -0.588332
O32   O     O_R   0.599520 0.910292 0.541637 -0.809842
H60   H     H_    0.612503 0.874742 0.518194 0.326056

loop_
_geom_bond_atom_site_label_1
_geom_bond_atom_site_label_2
_geom_bond_distance
_ccdc_geom_bond_type
C22   H18   1.081096 S    
C31   N31   1.345968 A    
C16   C48   1.377161 A    
C76   C80   1.397262 A    
C61   H33   1.084095 S    
C26   N26   1.351534 A    
C98   O11   1.222613 D    
C66   C70   1.422840 A    
C70   C94   1.476260 S    
C25   N25   1.329508 A    
C83   C84   1.384462 A    
N8    Ni8   1.839787 S    
C4    H4    1.079935 S    
N23   Ni3   1.867958 S    
C55   H27   1.088632 S    
C50   C102  1.483858 S    
C27   N27   1.329290 A    
C81   C82   1.384484 A    
C19   C43   1.385138 A    
C24   C48   1.379605 A    
C89   C90   1.384114 A    
C7    H7    1.081380 S    
C62   C66   1.410197 A    
C82   C85   1.402718 A    
C32   C36   1.383986 A    
C11   C43   1.390473 A    
N27   Ni8   1.864433 S    
C81   H41   1.080516 S    
C1    H1    1.078971 S    
C45   C54   1.461486 S    
C26   C38   1.397251 A    
N14   Ni5   1.889098 S    
C72   C74   1.380383 A    
C14   N14   1.339849 A    
C20   H16   1.080079 S    
C3    H3    1.078971 S    
C7    C39   1.360791 A    
C64   C68   1.410198 A    
C28   C40   1.397255 A    
C57   C77   1.385978 A    
C94   O4    1.397563 S    
C27   C39   1.365102 A    
C58   H30   1.082543 S    
N1    Ni1   1.847502 S    
C51   C52   1.462003 S    
C69   C93   1.490223 S    
C41   C85   1.463293 S    
N18   Ni6   1.860444 S    
C3    C35   1.378891 A    
C54   H26   1.086418 S    
C21   H17   1.076808 S    
C2    C34   1.379076 A    
C36   C67   1.423768 S    
C73   H37   1.084022 S    
N13   N21   1.391824 A    
C53   H25   1.088633 S    
N11   Ni4   1.860756 S    
C13   C45   1.398103 A    
C23   N23   1.330001 A    
C82   H42   1.080366 S    
C56   H28   1.086410 S    
C64   H36   1.075594 S    
N8    N28   1.378016 A    
C29   N33   1.429672 S    
N31   Ni4   1.831927 S    
O32   H60   1.013793 S    
N3    N31   1.378016 A    
N6    Ni6   1.839787 S    
C14   C98   1.479341 S    
C26   H22   1.076308 S    
N19   Ni7   1.847668 S    
O30   H59   1.013870 S    
C25   H21   1.075568 S    
C22   C46   1.379600 A    
C13   C97   1.471086 S    
C4    N4    1.331470 A    
C103  O29   1.222710 D    
C90   H46   1.080176 S    
C68   C72   1.422835 A    
C14   C46   1.377161 A    
C48   C55   1.442769 S    
N1    N29   1.378016 A    
C12   C44   1.378454 A    
C7    N7    1.330371 A    
C18   C42   1.377763 A    
C58   C64   1.392642 A    
O10   H53   1.013798 S    
C8    N8    1.321677 A    
C104  O31   1.221779 D    
N12   Ni3   1.847831 S    
C9    H9    1.069486 S    
C98   O12   1.397791 S    
C2    H2    1.079941 S    
N7    N27   1.378016 A    
N22   Ni2   1.839724 S    
C60   H32   1.082544 S    
N21   Ni1   1.867958 S    
C22   N22   1.333935 A    
C101  O25   1.222708 D    
C58   C78   1.395299 A    
N9    N17   1.391579 A    
C20   C44   1.377826 A    
C71   C73   1.393927 A    
C8    C40   1.378082 A    
N4    N32   1.378017 A    
C11   H11   1.069483 S    
O14   H55   1.013799 S    
C76   H40   1.079325 S    
C12   H12   1.073638 S    
C1    N1    1.325432 A    
N34   O19   1.301252 A    
N6    N26   1.378016 A    
C49   C50   1.461960 S    
C93   O2    1.399813 S    
N35   O21   1.300838 A    
N4    Ni4   1.860933 S    
N32   Ni3   1.860796 S    
C19   H15   1.076142 S    
C11   N11   1.337818 A    
C93   O1    1.223067 D    
C87   C91   1.401400 A    
C16   C100  1.479339 S    
N11   N19   1.391579 A    
O6    H51   1.013999 S    
C5    C37   1.360829 A    
C75   C79   1.394545 A    
C33   C66   1.480355 S    
C83   H43   1.080508 S    
O2    H49   1.014050 S    
N15   N23   1.391824 A    
C102  O27   1.221778 D    
N12   N20   1.391330 A    
C60   C62   1.392635 A    
N35   O22   1.301649 A    
C31   N35   1.429674 S    
C92   H48   1.080176 S    
C49   C101  1.489511 S    
O16   H56   1.013831 S    
C17   C41   1.385122 A    
C85   C89   1.401391 A    
C89   H45   1.080544 S    
C8    H8    1.074016 S    
C18   N18   1.336096 A    
C60   C80   1.395299 A    
C96   O8    1.397563 S    
C100  O15   1.222614 D    
C30   N34   1.429136 S    
C5    N5    1.330389 A    
C28   H24   1.076307 S    
C69   C75   1.393709 A    
N36   O24   1.300878 A    
C83   C88   1.401714 A    
C103  O30   1.399225 S    
C12   N12   1.336693 A    
C50   C54   1.350773 D    
C46   C53   1.442727 S    
C10   C42   1.378384 A    
C70   C76   1.380385 A    
C81   C86   1.401702 A    
C84   H44   1.080368 S    
C9    C41   1.390495 A    
C40   C80   1.465566 S    
C67   C71   1.414847 A    
C51   C55   1.343871 D    
N13   Ni6   1.860770 S    
C104  O32   1.398770 S    
C57   H29   1.085002 S    
N3    Ni3   1.847502 S    
C102  O28   1.398776 S    
C39   C79   1.410674 S    
C23   H19   1.076803 S    
N16   N24   1.391575 A    
N30   Ni1   1.860796 S    
N15   Ni8   1.860770 S    
N29   Ni2   1.831927 S    
C2    N2    1.331492 A    
C59   C79   1.386135 A    
C51   C103  1.489516 S    
N7    Ni7   1.868677 S    
C44   C88   1.462749 S    
O26   H57   1.013870 S    
C19   N19   1.332538 A    
C35   C68   1.480355 S    
C86   C90   1.403137 A    
C49   C53   1.343862 D    
N17   Ni5   1.847668 S    
C20   N20   1.336071 A    
C99   O13   1.222795 D    
C97   O9    1.222799 D    
C1    C33   1.378887 A    
C74   C78   1.397260 A    
C10   N10   1.336741 A    
N10   Ni1   1.847831 S    
C61   C65   1.396944 A    
C6    H6    1.074013 S    
N9    Ni2   1.860756 S    
C59   C61   1.360409 A    
C21   N21   1.329965 A    
N34   O20   1.300895 A    
C62   H34   1.075594 S    
C91   H47   1.080546 S    
N2    N30   1.378017 A    
C15   C47   1.398101 A    
C65   C69   1.414743 A    
C21   C45   1.376128 A    
C18   H14   1.080082 S    
C25   C37   1.365058 A    
C75   H39   1.084136 S    
C30   C34   1.383939 A    
C5    H5    1.081377 S    
C24   H20   1.081100 S    
C63   H35   1.084176 S    
C23   C47   1.376162 A    
C6    N6    1.321680 A    
C97   O10   1.397020 S    
N33   O18   1.301651 A    
C29   C33   1.400379 A    
O4    H50   1.013085 S    
C28   N28   1.351533 A    
C91   C92   1.384112 A    
C30   N30   1.327353 A    
C27   H23   1.075591 S    
C37   C77   1.410669 S    
N10   N18   1.391330 A    
C57   C63   1.360694 A    
C94   O3    1.222660 D    
C32   N32   1.327550 A    
C71   C95   1.490733 S    
N33   O17   1.300838 A    
C52   C104  1.483839 S    
N28   Ni7   1.850292 S    
C63   C67   1.396869 A    
C101  O26   1.399226 S    
C47   C56   1.461548 S    
N20   Ni8   1.860444 S    
C17   H13   1.076131 S    
N26   Ni5   1.850293 S    
C31   C35   1.400370 A    
C13   N13   1.347895 A    
C95   O5    1.222789 D    
N36   O23   1.301234 A    
C59   H31   1.085077 S    
C34   C65   1.423940 S    
C3    N3    1.325437 A    
C17   N17   1.332538 A    
O8    H52   1.013082 S    
C42   C86   1.462767 S    
N16   Ni7   1.889098 S    
C52   C56   1.350784 D    
C72   C96   1.476255 S    
C16   N16   1.339862 A    
C43   C87   1.463267 S    
C24   N24   1.333961 A    
C38   C78   1.465572 S    
C96   O7    1.222657 D    
C74   H38   1.079324 S    
C15   N15   1.347901 A    
N5    N25   1.378016 A    
O28   H58   1.013794 S    
N14   N22   1.391575 A    
N2    Ni2   1.860933 S    
C100  O16   1.397791 S    
C84   C87   1.402695 A    
C32   N36   1.429165 S    
N24   Ni4   1.839724 S    
O12   H54   1.013829 S    
C95   O6    1.399095 S    
C15   C99   1.471070 S    
C99   O14   1.397021 S    
C73   C77   1.394359 A    
N25   Ni6   1.864433 S    
C6    C38   1.378083 A    
C29   N29   1.345967 A    
C88   C92   1.403124 A    
C9    N9    1.337836 A    
N5    Ni5   1.868678 S    
C4    C36   1.379007 A    
C10   H10   1.073607 S    
