data_mof_unit_1158.cif
_audit_creation_date              2012-12-10T19:42:06-0500
_audit_creation_method            fapswitch 2.2
_symmetry_space_group_name_H-M    P1
_symmetry_Int_Tables_number       1
_space_group_crystal_system       triclinic
_cell_length_a                    18.409477
_cell_length_b                    18.462389
_cell_length_c                    18.275449
_cell_angle_alpha                 120.069082
_cell_angle_beta                  90.250063
_cell_angle_gamma                 120.163101
_cell_volume                      4366.95968148

loop_
_atom_site_label
_atom_site_type_symbol
_atom_type_description
_atom_site_fract_x
_atom_site_fract_y
_atom_site_fract_z
_atom_type_partial_charge
C1    C     C_R   0.140728 0.780166 0.140179 0.560874
C2    C     C_R   0.819991 0.109752 0.803044 -0.008253
C3    C     C_R   0.826445 0.058979 0.837468 0.214947
C4    C     C_R   0.862837 0.220157 0.859578 0.543563
C5    C     C_R   0.759657 0.951822 0.791457 0.178046
C6    C     C_R   0.704923 0.893661 0.699835 -0.019554
C7    C     C_R   0.718655 0.945809 0.660787 0.003525
C8    C     C_3   0.651371 0.939923 0.607448 -0.235878
C9    C     C_3   0.710834 0.056926 0.664968 -0.236814
C10   C     C_R   0.780918 0.567819 0.227400 -0.005126
C11   C     C_R   0.791883 0.488082 0.183574 0.009917
C12   C     C_R   0.720545 0.647872 0.849726 0.278074
C13   C     C_R   0.735743 0.399850 0.183874 0.227761
C14   C     C_R   0.686110 0.404903 0.242340 -0.102045
C15   C     C_R   0.689102 0.493919 0.297743 0.021516
C16   C     C_R   0.139546 0.497281 0.859375 0.555443
C17   C     C_R   0.733245 0.571838 0.285364 0.011291
C18   C     C_3   0.795023 0.686704 0.349702 0.128316
C19   C     C_3   0.846629 0.682977 0.283942 0.099985
C20   C     C_R   0.159619 0.945532 0.213670 -0.048503
C21   C     C_R   0.198437 0.892097 0.190591 0.052397
C22   C     C_R   0.293087 0.949509 0.214576 0.228983
C23   C     C_R   0.737809 0.576108 0.791327 -0.051562
C24   C     C_R   0.344698 0.056751 0.267647 -0.074459
C25   C     C_R   0.304530 0.108757 0.299545 0.021781
C26   C     C_R   0.211553 0.051615 0.268448 -0.011491
C27   C     C_3   0.146926 0.054105 0.317367 0.143027
C28   C     C_R   0.857412 0.497279 0.137422 0.525741
C29   C     C_3   0.088774 0.936979 0.255468 -0.162765
C30   C     C_R   0.284394 0.545895 0.208046 0.009454
C31   C     C_R   0.196940 0.511582 0.206604 -0.014135
C32   C     C_R   0.169006 0.491527 0.270739 0.221072
C33   C     C_R   0.223409 0.488037 0.321061 -0.120190
C34   C     C_R   0.815553 0.591204 0.827113 -0.022680
C35   C     C_R   0.305292 0.507405 0.310713 -0.046566
C36   C     C_R   0.337722 0.544333 0.259421 0.032041
C37   C     C_3   0.378302 0.512678 0.189526 0.156441
C38   C     C_3   0.319491 0.515194 0.132594 0.149249
C39   C     C_R   0.281741 0.581519 0.836697 0.014323
C40   C     C_R   0.140108 0.502202 0.142168 0.529354
C41   C     C_R   0.192758 0.497882 0.801024 -0.026830
C42   C     C_R   0.153404 0.421765 0.706860 0.221197
C43   C     C_R   0.203400 0.434108 0.650779 0.249361
C44   C     C_R   0.298758 0.506532 0.691046 -0.021857
C45   C     C_R   0.811313 0.502743 0.798809 0.017626
C46   C     C_R   0.334214 0.583010 0.783316 -0.071291
C47   C     C_3   0.412814 0.626240 0.854624 -0.170935
C48   C     C_3   0.355463 0.624765 0.913767 0.142986
C49   C     C_R   0.639739 0.499879 0.359876 0.554028
C50   C     C_R   0.358930 0.501745 0.639452 0.549089
C51   C     C_R   0.640872 0.780792 0.641380 0.541380
C52   C     C_R   0.862988 0.501971 0.858889 0.558481
C53   C     C_R   0.359859 0.220142 0.360123 0.552842
C54   C     C_R   0.359949 0.500087 0.360136 0.510510
C55   C     C_R   0.634952 0.495614 0.641269 0.558876
C56   C     C_R   0.745401 0.408536 0.718201 -0.102670
C57   C     C_R   0.890811 0.693243 0.892976 0.251371
C58   C     C_R   0.877787 0.770587 0.940488 -0.099799
C59   C     C_R   0.791827 0.745877 0.923432 -0.056646
C60   C     C_R   0.683037 0.401519 0.666491 0.183439
C61   C     C_R   0.681712 0.488684 0.701192 0.019088
C62   C     C_R   0.772019 0.051546 0.712309 -0.000008
Cl1   Cl    Cl    0.353247 0.895031 0.187699 -0.364090
Cl2   Cl    Cl    0.189879 0.103277 0.432116 -0.441896
Cl3   Cl    Cl    0.496359 0.608268 0.230568 -0.399603
Cl4   Cl    Cl    0.376550 0.614467 0.115522 -0.374846
Cl5   Cl    Cl    0.048221 0.301748 0.659688 -0.398007
Cl6   Cl    Cl    0.393162 0.750743 0.006219 -0.353963
H1    H     H_    0.741957 0.340078 0.696249 0.182386
H2    H     H_    0.080452 0.899234 0.289891 0.204990
H3    H     H_    0.025745 0.904189 0.207494 0.193632
H4    H     H_    0.201536 0.469347 0.367588 0.188521
H5    H     H_    0.359819 0.433973 0.160366 0.092669
H6    H     H_    0.933545 0.848933 0.992648 0.151687
H7    H     H_    0.267443 0.438110 0.070251 0.083296
H8    H     H_    0.429711 0.570886 0.836780 0.203032
H9    H     H_    0.468750 0.705022 0.877450 0.229785
H10   H     H_    0.340635 0.570610 0.931686 0.176520
H11   H     H_    0.780622 0.802842 0.967977 0.191456
H12   H     H_    0.585852 0.907016 0.617630 0.150254
H13   H     H_    0.647415 0.904400 0.535926 0.200852
H14   H     H_    0.714285 0.190341 0.974797 0.367671
H15   H     H_    0.924979 0.683945 0.499987 0.399281
H16   H     H_    0.861278 0.875803 0.349755 0.371087
H17   H     H_    0.074252 0.892036 0.950464 0.350003
H18   H     H_    0.992434 0.530931 0.295378 0.382160
H19   H     H_    0.167071 0.379234 0.427395 0.367697
H20   H     H_    0.619378 0.746358 0.905026 0.379277
H21   H     H_    0.488868 0.271416 0.605931 0.356007
H22   H     H_    0.061508 0.258080 0.981001 0.350882
H23   H     H_    0.741388 0.088840 0.626713 0.202734
H24   H     H_    0.617379 0.902451 0.864516 0.344105
H25   H     H_    0.680239 0.092099 0.709141 0.149632
H26   H     H_    0.646138 0.339873 0.245673 0.190848
H27   H     H_    0.760881 0.724062 0.356647 0.163233
H28   H     H_    0.916327 0.709995 0.310232 0.162832
H29   H     H_    0.416834 0.099210 0.287426 0.209533
H30   H     H_    0.116412 0.088677 0.307226 0.177247
O1    O     O_3   0.000000 0.500000 0.000000 -0.511447
O2    O     O_R   0.323450 0.268330 0.384170 -0.515559
O3    O     O_R   0.444860 0.560620 0.384150 -0.504870
O4    O     O_R   0.055050 0.731580 0.115780 -0.506685
O5    O     O_R   0.615780 0.439200 0.555040 -0.467317
O6    O     O_R   0.323420 0.439190 0.384160 -0.553535
O7    O     O_R   0.615760 0.560630 0.676470 -0.469128
O8    O     O_R   0.615740 0.731500 0.676460 -0.446688
O9    O     O_R   0.444900 0.268330 0.384170 -0.516552
O10   O     O_R   0.615750 0.560630 0.384150 -0.505367
O11   O     O_R   0.323430 0.439200 0.555040 -0.468111
O12   O     O_R   0.055090 0.439280 0.823480 -0.474639
O13   O     O_R   0.884220 0.268410 0.823490 -0.530424
O14   O     O_R   0.176520 0.560720 0.944920 -0.499647
O15   O     O_R   0.884200 0.439290 0.115800 -0.466870
O16   O     O_R   0.176530 0.560720 0.115800 -0.502644
O17   O     O_R   0.884180 0.560710 0.944910 -0.493154
O18   O     O_R   0.055100 0.439290 0.115810 -0.467101
O19   O     O_R   0.884190 0.439280 0.823480 -0.532304
O20   O     O_2   0.802413 0.291149 0.150816 -0.168188
O21   O     O_2   0.639565 0.195718 0.106117 -0.238895
O22   O     O_3   0.716599 0.253827 0.008839 -0.520184
O23   O     O_R   0.884180 0.560710 0.115790 -0.514254
O24   O     O_2   0.940181 0.840413 0.499784 -0.209408
O25   O     O_2   0.803661 0.729321 0.515212 -0.260388
O26   O     O_3   0.892421 0.656209 0.438888 -0.525196
O27   O     O_2   0.875609 0.718470 0.156302 -0.225296
O28   O     O_2   0.740624 0.693703 0.191861 -0.200185
O29   O     O_3   0.894259 0.866871 0.307040 -0.469472
O30   O     O_2   0.050881 0.768330 0.990791 -0.301993
O31   O     O_2   0.003799 0.645029 0.828005 -0.223251
O32   O     O_3   0.053805 0.829346 0.889899 -0.449578
O33   O     O_2   0.991747 0.361184 0.218889 -0.167234
O34   O     O_R   0.176500 0.731590 0.115790 -0.467026
O35   O     O_2   0.072793 0.488476 0.381062 -0.218969
O36   O     O_3   0.051843 0.551502 0.289037 -0.508989
O37   O     O_2   0.143766 0.266722 0.483173 -0.207027
O38   O     O_2   0.048415 0.327008 0.517848 -0.153878
O39   O     O_3   0.190888 0.431022 0.493400 -0.496702
O40   O     O_2   0.542145 0.497106 0.781288 -0.272182
O41   O     O_2   0.610556 0.627892 0.943858 -0.229164
O42   O     O_3   0.591195 0.682169 0.843413 -0.454268
O43   O     O_2   0.630751 0.273900 0.487446 -0.170823
O44   O     O_2   0.590801 0.194587 0.568316 -0.247718
O45   O     O_R   0.884220 0.268420 0.944930 -0.478865
O46   O     O_3   0.501916 0.261361 0.550372 -0.472481
O47   O     O_2   0.911279 0.175875 0.016071 -0.172326
O48   O     O_2   0.943956 0.052588 0.918755 -0.203273
O49   O     O_3   0.012403 0.217632 0.924512 -0.528187
O50   O     O_2   0.749525 0.817471 0.818308 -0.226126
O51   O     O_2   0.784262 0.976473 0.953328 -0.185255
O52   O     O_3   0.623447 0.845175 0.841535 -0.496450
O53   O     O_3   0.499960 0.499910 0.499960 -0.503716
O54   O     O_R   0.615770 0.439200 0.384160 -0.535814
O55   O     O_R   0.444870 0.560630 0.676470 -0.489594
O56   O     O_R   0.615730 0.731500 0.555020 -0.525697
S1    S     S_3+6 0.723230 0.281740 0.112581 0.080975
S2    S     S_3+6 0.732448 0.898467 0.854263 0.081081
S3    S     S_3+6 0.859411 0.731653 0.455498 0.022795
S4    S     S_3+6 0.837093 0.738765 0.230631 0.041485
S5    S     S_3+6 0.001672 0.731657 0.900680 0.053118
S6    S     S_3+6 0.068373 0.470595 0.290838 0.093028
S7    S     S_3+6 0.143533 0.360552 0.533666 0.131538
S8    S     S_3+6 0.612418 0.609153 0.853986 0.051736
S9    S     S_3+6 0.601320 0.279270 0.565515 0.084410
S10   S     S_3+6 0.924390 0.125891 0.927493 0.109288
Zn1   Zn    Zn3+2 0.956630 0.413250 0.869870 1.044600
Zn2   Zn    Zn3+2 0.130130 0.586750 0.043370 1.086607
Zn3   Zn    Zn3+2 0.956630 0.413250 0.043380 1.083193
Zn4   Zn    Zn3+2 0.956610 0.586750 0.043370 1.053561
Zn5   Zn    Zn3+2 0.543330 0.586660 0.630080 1.096901
Zn6   Zn    Zn3+2 0.543320 0.586660 0.456570 1.013970
Zn7   Zn    Zn3+2 0.369830 0.413160 0.456580 1.011815
Zn8   Zn    Zn3+2 0.543350 0.413170 0.456590 1.051754

loop_
_geom_bond_atom_site_label_1
_geom_bond_atom_site_label_2
_ccdc_geom_bond_type
O36   S6    S    
C27   H30   S    
C1    C21   S    
O10   Zn6   S    
C27   C29   S    
C41   C42   A    
C54   O3    A    
C35   C36   A    
H14   O22   S    
C1    O34   A    
C9    H23   S    
C4    O45   A    
C16   O12   A    
C7    C8    S    
C39   C41   A    
C40   O18   A    
C12   C23   A    
C30   C38   S    
C26   C27   S    
C37   C38   S    
O53   Zn6   S    
O7    Zn5   S    
C55   O7    A    
C54   O6    A    
C36   C37   S    
O51   S2    D    
C25   C53   S    
C47   H8    S    
C29   H2    S    
O49   S10   S    
C30   C31   A    
O54   Zn8   S    
O12   Zn1   S    
C42   Cl5   S    
C10   C17   A    
O42   S8    S    
C55   O5    A    
C60   S9    S    
O53   Zn7   S    
C31   C40   S    
O56   Zn6   S    
C18   C19   S    
C48   H10   S    
O23   Zn4   S    
C13   S1    S    
C33   H4    S    
C22   Cl1   S    
C12   C59   A    
H18   O36   S    
C40   O16   A    
C38   Cl4   S    
C45   C56   A    
O19   Zn1   S    
C8    C9    S    
C37   Cl3   S    
C34   C57   A    
O21   S1    D    
O18   Zn3   S    
O13   Zn1   S    
H15   O26   S    
C38   H7    S    
O1    Zn2   S    
C52   O19   A    
H16   O29   S    
C57   S5    S    
O52   S2    S    
C13   C14   A    
C35   C54   S    
C18   H27   S    
O37   S7    D    
O31   S5    D    
H19   O39   S    
C44   C46   A    
O16   Zn2   S    
C49   O10   A    
O1    Zn3   S    
C20   C29   S    
O28   S4    D    
C53   O2    A    
C9    C62   S    
C47   C48   S    
O3    Zn6   S    
C24   C25   A    
C10   C11   A    
C59   H11   S    
O38   S7    D    
C16   C41   S    
O27   S4    D    
O25   S3    D    
C45   C52   S    
C51   O56   A    
C25   C26   A    
O48   S10   D    
C50   O11   A    
O53   Zn8   S    
C8    H13   S    
C60   C61   A    
C2    C4    S    
C43   C44   A    
C7    C62   A    
H22   O49   S    
H17   O32   S    
C53   O9    A    
C31   C32   A    
C16   O14   A    
C10   C19   S    
C23   C34   A    
O14   Zn2   S    
O26   S3    S    
C20   C21   A    
C17   C18   S    
O20   S1    D    
O40   S8    D    
C34   C45   A    
C48   Cl6   S    
O29   S4    S    
O45   Zn3   S    
C3    S10   S    
C39   C46   A    
C43   S7    S    
O1    Zn1   S    
C4    O13   A    
O43   S9    D    
O6    Zn7   S    
O46   S9    S    
H24   O52   S    
O5    Zn8   S    
C6    C51   S    
O8    Zn5   S    
C22   C24   A    
C42   C43   A    
C47   H9    S    
O11   Zn7   S    
C5    S2    S    
C9    H25   S    
O44   S9    D    
C58   H6    S    
O1    Zn4   S    
C52   O17   A    
C44   C50   S    
C15   C17   A    
H20   O42   S    
C37   H5    S    
C46   C47   S    
O4    Zn4   S    
C49   O54   A    
C28   O23   A    
C19   S4    S    
O41   S8    D    
O34   Zn2   S    
C3    C5    A    
O15   Zn3   S    
O9    Zn8   S    
C6    C7    A    
O47   S10   D    
C12   S8    S    
H21   O46   S    
O50   S2    D    
O53   Zn5   S    
C30   C36   A    
O35   S6    D    
C32   C33   A    
C2    C3    A    
C58   C59   A    
C18   S3    S    
O39   S7    S    
C11   C13   A    
C57   C58   A    
C5    C6    A    
C20   C26   A    
C11   C28   S    
C51   O8    A    
C55   C61   S    
C33   C35   A    
O24   S3    D    
C24   H29   S    
C15   C49   S    
O33   S6    D    
C27   Cl2   S    
C28   O15   A    
C56   C60   A    
C23   C61   A    
O22   S1    S    
C56   H1    S    
O55   Zn5   S    
C8    H12   S    
O2    Zn7   S    
C14   C15   A    
O32   S5    S    
C50   O55   A    
C29   H3    S    
O17   Zn4   S    
C21   C22   A    
C1    O4    A    
C14   H26   S    
C19   H28   S    
C2    C62   A    
O30   S5    D    
C39   C48   S    
C32   S6    S    
