data_mof_unit_2783.cif
_audit_creation_date              2012-12-10T17:58:21-0500
_audit_creation_method            fapswitch 2.2
_symmetry_space_group_name_H-M    P1
_symmetry_Int_Tables_number       1
_space_group_crystal_system       triclinic
_cell_length_a                    9.672216
_cell_length_b                    10.91654
_cell_length_c                    16.013942
_cell_angle_alpha                 87.14929
_cell_angle_beta                  70.342283
_cell_angle_gamma                 90.777062
_cell_volume                      1589.5254274

loop_
_atom_site_label
_atom_site_type_symbol
_atom_type_description
_atom_site_fract_x
_atom_site_fract_y
_atom_site_fract_z
_atom_type_partial_charge
C1    C     C_R   0.001752 0.262794 0.495575 0.923303
C2    C     C_R   0.997757 0.736898 0.505507 0.895548
C3    C     C_R   0.585435 0.606823 0.093200 0.357217
C4    C     C_R   0.419115 0.645608 0.916601 0.364997
C5    C     C_R   0.733004 0.586806 0.042231 0.360465
C6    C     C_R   0.282580 0.583726 0.957796 0.541494
C7    C     C_R   0.869720 0.061232 0.506865 0.363129
C8    C     C_R   0.128435 0.938844 0.496043 0.359749
C9    C     C_R   0.864457 0.933665 0.522733 0.275329
C10   C     C_R   0.133690 0.065048 0.480349 0.353685
C11   C     C_R   0.995883 0.870958 0.511099 -0.349957
C12   C     C_R   0.002573 0.128284 0.492190 -0.314657
C13   C     C_R   0.542639 0.418185 0.553947 0.416370
C14   C     C_R   0.457927 0.581574 0.446389 0.365311
C15   C     C_R   0.395189 0.417721 0.553683 0.376680
C16   C     C_R   0.605774 0.580851 0.445410 0.384076
C17   C     C_R   0.912835 0.501357 0.672133 0.876684
C18   C     C_R   0.086093 0.504351 0.328834 0.934381
C19   C     C_R   0.856844 0.512495 0.770516 -0.256607
C20   C     C_R   0.141709 0.513948 0.231624 -0.225321
C21   C     C_R   0.892396 0.490132 0.912972 0.520778
C22   C     C_R   0.143867 0.446683 0.088593 0.482887
C23   C     C_R   0.947597 0.484077 0.820730 0.201032
C24   C     C_R   0.086390 0.434914 0.182822 0.227687
C25   C     C_R   0.709433 0.543178 0.817166 0.334784
C26   C     C_R   0.257658 0.597890 0.187096 0.413826
C27   C     C_R   0.669950 0.582075 0.906200 -0.150596
C28   C     C_R   0.327459 0.592807 0.095720 -0.141638
C29   C     C_R   0.768271 0.558051 0.952820 -0.096661
C30   C     C_R   0.246733 0.542074 0.047233 -0.121690
C31   C     C_R   0.527908 0.623192 0.955488 -0.125032
C32   C     C_R   0.480072 0.617206 0.049985 0.013126
Cu1   Cu    Cu3+1 0.140660 0.500020 0.500000 1.104833
Cu2   Cu    Cu3+1 0.859340 0.499980 0.500000 1.152368
N1    N     N_R   0.352080 0.500030 0.499980 -0.299015
N2    N     N_R   0.647920 0.499970 0.500020 -0.287451
O1    O     O_R   0.118740 0.319660 0.500000 -0.523327
O2    O     O_R   0.881260 0.680340 0.500000 -0.503693
O3    O     O_R   0.881170 0.319630 0.500010 -0.499219
O4    O     O_R   0.118830 0.680370 0.499990 -0.554123
O5    O     O_R   0.055570 0.500030 0.629830 -0.568872
O6    O     O_R   0.944430 0.499970 0.370170 -0.522465
O7    O     O_R   0.818000 0.500000 0.629840 -0.512989
O8    O     O_R   0.182000 0.500000 0.370160 -0.548509
O9    O     O_3   0.843241 0.587814 0.079215 -0.663878
H1    H     H_    0.815442 0.642295 0.129557 0.352704
O10   O     O_3   0.181677 0.570171 0.915369 -0.637298
H2    H     H_    0.222915 0.607471 0.854134 0.360596
Cl1   Cl    Cl    0.270123 0.738752 0.233433 -0.422863
Cl2   Cl    Cl    0.571540 0.490596 0.776421 -0.468754
O11   O     O_3   0.976819 0.349483 0.228170 -0.689215
H3    H     H_    0.920300 0.328625 0.189149 0.360719
O12   O     O_3   0.083017 0.435322 0.783105 -0.622001
H4    H     H_    0.148841 0.505154 0.750526 0.359534
O13   O     O_3   0.945381 0.416582 0.966558 -0.595119
H5    H     H_    0.999519 0.349075 0.931682 0.400461
O14   O     O_3   0.130588 0.352805 0.037227 -0.645827
H6    H     H_    0.098390 0.276039 0.074949 0.342654
O15   O     O_3   0.540468 0.600267 0.184800 -0.645395
H7    H     H_    0.608679 0.549403 0.204867 0.349469
O16   O     O_3   0.446877 0.715034 0.837815 -0.669443
H8    H     H_    0.544125 0.757554 0.823255 0.363646
O17   O     O_3   0.746351 0.122073 0.505161 -0.604583
H9    H     H_    0.679045 0.065334 0.489812 0.402057
O18   O     O_3   0.254956 0.884900 0.498284 -0.563585
H10   H     H_    0.228733 0.836099 0.555690 0.341908
Cl3   Cl    Cl    0.688899 0.858668 0.569921 -0.477816
Cl4   Cl    Cl    0.311030 0.137270 0.440702 -0.418005
Cl5   Cl    Cl    0.588698 0.309838 0.624390 -0.345971
Cl6   Cl    Cl    0.412943 0.690875 0.377697 -0.331539
Cl7   Cl    Cl    0.268940 0.307554 0.623758 -0.387046
Cl8   Cl    Cl    0.735380 0.685450 0.371123 -0.443327

loop_
_geom_bond_atom_site_label_1
_geom_bond_atom_site_label_2
_ccdc_geom_bond_type
Cu1   O4    S    
C19   C23   A    
O13   H5    S    
C9    Cl3   S    
O12   H4    S    
C10   Cl4   S    
C27   C29   A    
C15   Cl7   S    
C2    O2    A    
C26   C28   A    
C31   C32   A    
C16   Cl8   S    
C13   C15   A    
C1    O1    A    
C3    C5    A    
Cu1   O5    S    
C7    C9    A    
O16   H8    S    
C24   O11   S    
C28   C30   A    
Cu1   Cu2   S    
O15   H7    S    
O9    H1    S    
C16   N2    A    
C6    C30   A    
C13   N2    A    
C9    C11   A    
C7    O17   S    
O14   H6    S    
C14   Cl6   S    
C1    C12   S    
C13   Cl5   S    
C22   O14   S    
C8    C11   A    
C2    C11   S    
C10   C12   A    
C22   C24   A    
C15   N1    A    
C21   C29   A    
C17   C19   S    
C23   O12   S    
Cu2   N2    S    
C18   O6    A    
C21   C23   A    
C3    C32   A    
C19   C25   A    
C14   C16   A    
C7    C12   A    
C17   O5    A    
C25   C27   A    
C6    O10   S    
C1    O3    A    
C27   C31   A    
Cu2   O3    S    
C4    C31   A    
C5    C29   A    
C2    O4    A    
C18   O8    A    
C8    O18   S    
O11   H3    S    
C3    O15   S    
C18   C20   S    
C4    C6    A    
O18   H10   S    
C26   Cl1   S    
C17   O7    A    
C21   O13   S    
C20   C24   A    
C25   Cl2   S    
C22   C30   A    
Cu1   N1    S    
Cu2   O2    S    
Cu1   O8    S    
C5    O9    S    
C4    O16   S    
C14   N1    A    
C28   C32   A    
Cu1   O1    S    
Cu2   O7    S    
O10   H2    S    
C8    C10   A    
O17   H9    S    
C20   C26   A    
Cu2   O6    S    
