data_mof_unit_922.cif
_audit_creation_date              2013-03-05T16:33:44-0500
_audit_creation_method            fapswitch 2.2
_symmetry_space_group_name_H-M    P1
_symmetry_Int_Tables_number       1
_space_group_crystal_system       triclinic
_cell_length_a                    14.920863
_cell_length_b                    14.122546
_cell_length_c                    27.73145
_cell_angle_alpha                 89.831704
_cell_angle_beta                  90.292406
_cell_angle_gamma                 90.712447
_cell_volume                      5843.03508207

loop_
_atom_site_label
_atom_site_type_symbol
_atom_site_description
_atom_site_fract_x
_atom_site_fract_y
_atom_site_fract_z
_atom_type_partial_charge
O1    O     O_R   0.369060 0.579480 0.500000 -0.593976
O2    O     O_R   0.630940 0.420520 0.500000 -0.584726
O3    O     O_R   0.630940 0.579480 0.500000 -0.661630
O4    O     O_R   0.369060 0.420520 0.500000 -0.581703
C1    C     C_R   0.327333 0.499409 0.501459 0.930714
C2    C     C_R   0.671831 0.500848 0.499733 1.008514
O5    O     O_R   0.500010 0.579470 0.428760 -0.635357
O6    O     O_R   0.499990 0.420530 0.571240 -0.632057
O7    O     O_R   0.499990 0.579470 0.571240 -0.640085
O8    O     O_R   0.500010 0.420530 0.428760 -0.624523
C3    C     C_R   0.500280 0.500107 0.405969 0.928234
C4    C     C_R   0.499111 0.499872 0.594029 0.883945
Zn1   Zn    Zn3+2 0.500000 0.606140 0.500000 0.933994
Zn2   Zn    Zn3+2 0.500000 0.393860 0.500000 0.974920
C5    C     C_R   0.418411 0.513926 0.177895 0.520660
C6    C     C_R   0.568889 0.467828 0.822535 0.472796
O9    O     O_2   0.342626 0.529122 0.202958 -0.571900
O10   O     O_2   0.641353 0.439481 0.797702 -0.590936
N1    N     N_R   0.496989 0.498164 0.201792 -0.337194
N2    N     N_R   0.494280 0.497629 0.798431 -0.337988
C7    C     C_R   0.575132 0.482101 0.178026 0.552752
C8    C     C_R   0.419255 0.525631 0.822214 0.574446
C9    C     C_R   0.511043 0.583401 0.277575 -0.195620
C10   C     C_R   0.495783 0.413592 0.721911 -0.188930
C11   C     C_R   0.511655 0.584552 0.327609 -0.218688
C12   C     C_R   0.497537 0.413727 0.671945 -0.212696
C13   C     C_R   0.486615 0.414318 0.328637 -0.324468
C14   C     C_R   0.495330 0.585609 0.671807 -0.394403
C15   C     C_R   0.482902 0.413068 0.278195 0.543689
C16   C     C_R   0.496643 0.586010 0.722184 0.538137
C17   C     C_R   0.497379 0.498071 0.253074 0.251293
C18   C     C_R   0.494874 0.499225 0.747033 0.224072
C19   C     C_R   0.496119 0.497697 0.101956 -0.051594
C20   C     C_R   0.494530 0.496917 0.898367 -0.055896
C21   C     C_R   0.416495 0.514311 0.127480 -0.025105
C22   C     C_R   0.570651 0.467508 0.872921 -0.016127
C23   C     C_R   0.336886 0.530186 0.102330 -0.140835
C24   C     C_R   0.646563 0.438164 0.898119 -0.142215
C25   C     C_R   0.576179 0.481287 0.127620 -0.033909
C26   C     C_R   0.417991 0.525943 0.872634 -0.042115
C27   C     C_R   0.499635 0.499876 0.353382 -0.082808
C28   C     C_R   0.497440 0.499706 0.646605 -0.093734
H1    H     H_    0.478895 0.348846 0.348493 0.160245
H2    H     H_    0.492747 0.652447 0.652617 0.171524
H3    H     H_    0.274533 0.541461 0.121209 0.188728
H4    H     H_    0.705363 0.413748 0.879302 0.188556
C29   C     C_R   0.416260 0.523018 0.974554 0.044804
C30   C     C_R   0.575734 0.476783 0.025751 0.044857
C31   C     C_R   0.573867 0.471231 0.974779 0.044427
C32   C     C_R   0.415222 0.517936 0.025568 0.043849
C33   C     C_R   0.494887 0.497074 0.949437 0.073233
C34   C     C_R   0.495688 0.497476 0.050888 0.073276
C35   C     C_R   0.341358 0.554009 0.947578 -0.212227
C36   C     C_R   0.655384 0.463126 0.052649 -0.212540
C37   C     C_R   0.342334 0.555180 0.897593 -0.140423
C38   C     C_R   0.655361 0.465174 0.102615 -0.138325
O11   O     O_2   0.346088 0.552428 0.797054 -0.559229
O12   O     O_2   0.651297 0.466863 0.203212 -0.554995
C39   C     C_R   0.336029 0.531848 0.052345 -0.214236
C40   C     C_R   0.648277 0.439757 0.948077 -0.217673
H5    H     H_    0.498499 0.346661 0.653215 0.166138
H6    H     H_    0.522271 0.651320 0.346023 0.171568
H7    H     H_    0.495189 0.346918 0.741292 0.168200
H8    H     H_    0.521240 0.648718 0.257681 0.155795
H9    H     H_    0.283243 0.579369 0.878566 0.186687
H10   H     H_    0.718032 0.454060 0.121592 0.188644
H11   H     H_    0.281259 0.580076 0.963957 0.141962
H12   H     H_    0.719737 0.452812 0.036212 0.142129
H13   H     H_    0.271419 0.542108 0.035806 0.142480
H14   H     H_    0.708533 0.413609 0.964665 0.143159
C41   C     C_R   0.096079 0.580074 0.528880 -0.260457
C42   C     C_R   0.902646 0.508646 0.548147 -0.254019
C43   C     C_R   0.907658 0.517792 0.460459 -0.270140
C44   C     C_R   0.087079 0.429084 0.487328 -0.274508
H15   H     H_    0.063083 0.640375 0.544745 0.162902
H16   H     H_    0.937062 0.505250 0.582610 0.161533
H17   H     H_    0.946557 0.520057 0.427570 0.162888
H18   H     H_    0.046527 0.373847 0.470712 0.159715
C45   C     C_R   0.188613 0.575360 0.529621 0.430124
C46   C     C_R   0.810002 0.504339 0.546392 0.409802
C47   C     C_R   0.814520 0.517237 0.458298 0.414006
C48   C     C_R   0.179751 0.421166 0.489113 0.439002
C49   C     C_R   0.230830 0.498523 0.506637 -0.287931
C50   C     C_R   0.767032 0.504400 0.501322 -0.249632
C51   C     C_R   0.046344 0.508141 0.506950 0.025546
C52   C     C_R   0.950675 0.513797 0.505228 0.022296
C53   C     C_R   0.501471 0.104664 0.456427 0.390174
C54   C     C_R   0.574371 0.895532 0.519866 0.396846
C55   C     C_R   0.502825 0.103999 0.543896 0.402030
C56   C     C_R   0.428623 0.894726 0.480453 0.384938
C57   C     C_R   0.497501 0.204177 0.457490 -0.114250
C58   C     C_R   0.569943 0.795251 0.520651 -0.180931
C59   C     C_R   0.504488 0.204273 0.542575 -0.179984
C60   C     C_R   0.431143 0.795243 0.479276 -0.118956
H19   H     H_    0.494239 0.242712 0.423845 0.161901
H20   H     H_    0.623039 0.755047 0.537216 0.148771
H21   H     H_    0.508712 0.243408 0.575896 0.162453
H22   H     H_    0.376832 0.755870 0.462452 0.175623
N3    N     N_R   0.500000 0.252470 0.500000 -0.132814
N4    N     N_R   0.500000 0.747530 0.500000 -0.134055
C61   C     C_R   0.502521 0.053032 0.500255 -0.036027
C62   C     C_R   0.501440 0.946380 0.500592 -0.045615
O13   O     O_3   0.236615 0.649587 0.550178 -0.644246
C63   C     C_3   0.272397 0.621692 0.595373 0.134325
H23   H     H_    0.335102 0.663378 0.601303 0.179808
H24   H     H_    0.291450 0.545561 0.597016 0.094783
C64   C     C_3   0.206983 0.644086 0.636004 -0.452775
H25   H     H_    0.187937 0.719843 0.633863 0.238967
H26   H     H_    0.145356 0.599803 0.631885 0.218059
C65   C     C_3   0.248850 0.624509 0.685327 -0.815239
H27   H     H_    0.269153 0.549250 0.688139 0.270694
H28   H     H_    0.199343 0.639156 0.714026 0.270736
H29   H     H_    0.308565 0.670928 0.691100 0.279328
O14   O     O_3   0.761505 0.497163 0.588644 -0.615779
C66   C     C_3   0.742727 0.588991 0.606214 0.110111
H30   H     H_    0.669389 0.594331 0.611643 0.159496
H31   H     H_    0.761349 0.647936 0.581094 0.083730
C67   C     C_3   0.790247 0.605765 0.654491 -0.420714
H32   H     H_    0.863856 0.600144 0.649663 0.215823
H33   H     H_    0.775769 0.678709 0.666896 0.171575
C68   C     C_3   0.759214 0.535334 0.693018 -0.688710
H34   H     H_    0.685660 0.539578 0.698053 0.247181
H35   H     H_    0.792813 0.552218 0.727816 0.236784
H36   H     H_    0.776659 0.461992 0.682621 0.286614
O15   O     O_3   0.768986 0.520222 0.414528 -0.642909
C69   C     C_3   0.783845 0.608278 0.390984 0.087909
H37   H     H_    0.763801 0.599170 0.352621 0.186612
H38   H     H_    0.855681 0.630449 0.390653 0.130880
C70   C     C_3   0.726237 0.686430 0.412845 -0.354696
H39   H     H_    0.654718 0.664133 0.411782 0.256450
H40   H     H_    0.746145 0.698423 0.451012 0.211453
C71   C     C_3   0.736763 0.779462 0.385261 -0.998854
H41   H     H_    0.807558 0.804613 0.386640 0.274168
H42   H     H_    0.693911 0.833949 0.401917 0.253170
H43   H     H_    0.715728 0.770200 0.347067 0.272912
O16   O     O_3   0.221369 0.341421 0.471043 -0.619729
C72   C     C_3   0.197604 0.259958 0.498492 0.118087
H44   H     H_    0.224356 0.197415 0.479453 0.153439
H45   H     H_    0.123785 0.248678 0.500116 0.123979
C73   C     C_3   0.238629 0.262147 0.549571 -0.361785
H46   H     H_    0.312878 0.261415 0.547103 0.234113
H47   H     H_    0.218941 0.327602 0.568711 0.211823
C74   C     C_3   0.206818 0.177460 0.579453 -1.007976
H48   H     H_    0.132509 0.175886 0.581695 0.279503
H49   H     H_    0.234538 0.182883 0.616582 0.270366
H50   H     H_    0.230021 0.110661 0.563117 0.256451
O17   O     O_3   0.499379 0.059281 0.412233 -0.613165
C75   C     C_3   0.585104 0.023113 0.401394 0.074979
H51   H     H_    0.574843 0.956668 0.380638 0.169517
H52   H     H_    0.625589 0.003942 0.433827 0.121228
C76   C     C_3   0.638061 0.093468 0.370206 -0.365141
H53   H     H_    0.600732 0.106821 0.336179 0.230532
H54   H     H_    0.646485 0.161604 0.389745 0.224273
C77   C     C_3   0.730390 0.055245 0.357950 -0.926553
H55   H     H_    0.769651 0.042368 0.391434 0.258706
H56   H     H_    0.767273 0.107712 0.335424 0.276906
H57   H     H_    0.723669 0.988014 0.337475 0.267536
O18   O     O_3   0.646469 0.945231 0.539797 -0.600740
C78   C     C_3   0.729635 0.913479 0.521774 0.062314
H58   H     H_    0.766694 0.976006 0.507311 0.159112
H59   H     H_    0.723715 0.862656 0.491156 0.120410
C79   C     C_3   0.784957 0.870820 0.562926 -0.321543
H60   H     H_    0.804460 0.927718 0.588670 0.232595
H61   H     H_    0.744010 0.817694 0.582860 0.203489
C80   C     C_3   0.869328 0.823434 0.544188 -0.992136
H62   H     H_    0.851181 0.764122 0.519628 0.261160
H63   H     H_    0.908314 0.794482 0.574976 0.262062
H64   H     H_    0.911996 0.875616 0.524566 0.273673
O19   O     O_3   0.507734 0.054812 0.587209 -0.598515
C81   C     C_3   0.437285 0.079527 0.618650 0.040661
H65   H     H_    0.396381 0.014731 0.625749 0.159952
H66   H     H_    0.390354 0.133220 0.603844 0.125884
C82   C     C_3   0.476958 0.114815 0.666353 -0.311982
H67   H     H_    0.514705 0.056624 0.683902 0.233336
H68   H     H_    0.524473 0.174376 0.659351 0.218560
C83   C     C_3   0.403956 0.148314 0.700414 -0.972659
H69   H     H_    0.368082 0.209363 0.684372 0.263833
H70   H     H_    0.434758 0.171109 0.735078 0.268912
H71   H     H_    0.355248 0.089973 0.707741 0.271836
O20   O     O_3   0.356671 0.940501 0.459634 -0.605102
C84   C     C_3   0.294546 0.965177 0.495767 0.059921
H72   H     H_    0.258108 0.028373 0.482710 0.165688
H73   H     H_    0.327091 0.985773 0.530590 0.115303
C85   C     C_3   0.226326 0.884733 0.503942 -0.341864
H74   H     H_    0.194674 0.864715 0.469004 0.237223
H75   H     H_    0.261103 0.822102 0.518811 0.256588
C86   C     C_3   0.153545 0.913454 0.539276 -0.950307
H76   H     H_    0.183728 0.931570 0.574824 0.263101
H77   H     H_    0.105535 0.853544 0.544321 0.275770
H78   H     H_    0.116367 0.975391 0.525150 0.260989
O21   O     O_3   0.472934 0.329377 0.252413 -0.640844
C87   C     C_3   0.395961 0.277038 0.267026 0.079972
H79   H     H_    0.355547 0.261264 0.234194 0.175940
H80   H     H_    0.350664 0.315892 0.291850 0.135539
C88   C     C_3   0.424348 0.183089 0.289818 -0.359113
H81   H     H_    0.462774 0.141621 0.263108 0.235492
H82   H     H_    0.468415 0.196780 0.321405 0.224474
C89   C     C_3   0.343454 0.124686 0.306395 -0.875461
H83   H     H_    0.305519 0.163916 0.334146 0.268266
H84   H     H_    0.366536 0.057033 0.322438 0.292208
H85   H     H_    0.298581 0.108443 0.275345 0.253987
O22   O     O_3   0.491081 0.670121 0.747508 -0.630864
C90   C     C_3   0.570928 0.724424 0.742381 0.051892
H86   H     H_    0.552727 0.800211 0.745385 0.181090
H87   H     H_    0.603934 0.716521 0.706641 0.120132
C91   C     C_3   0.637044 0.700669 0.782926 -0.351421
H88   H     H_    0.603223 0.707186 0.818371 0.238376
H89   H     H_    0.659639 0.626646 0.778822 0.240335
C92   C     C_3   0.718966 0.766328 0.781921 -0.940140
H90   H     H_    0.754435 0.759961 0.747000 0.260614
H91   H     H_    0.765761 0.746591 0.811437 0.271314
H92   H     H_    0.698604 0.840976 0.787130 0.267165

loop_
_geom_bond_atom_site_label_1
_geom_bond_atom_site_label_2
_geom_bond_distance
_ccdc_geom_bond_type
C74   H50   1.107812 S    
C16   C18   1.404322 A    
C90   H86   1.110954 S    
C80   H62   1.111163 S    
C53   C57   1.407771 A    
C13   C15   1.399798 A    
O19   C81   1.416771 S    
O17   C75   1.417173 S    
C73   C74   1.525281 S    
C42   H16   1.083846 S    
O3    C2    1.273738 A    
N1    C17   1.422100 S    
C8    O11   1.350127 S    
C63   H24   1.116277 S    
O14   C66   1.418391 S    
Zn2   N3    1.996787 S    
C82   H67   1.111659 S    
C19   C34   1.416189 A    
C30   C36   1.414857 A    
C72   H45   1.112069 S    
C58   N4    1.360136 A    
C20   C33   1.416239 A    
C19   C25   1.408702 A    
C31   C40   1.414628 A    
C53   O17   1.384722 S    
O1    C1    1.284699 A    
C32   C39   1.414857 A    
N1    C7    1.364033 A    
C12   H5    1.081847 S    
C75   H52   1.115439 S    
C70   H39   1.109126 S    
C30   C34   1.419932 A    
C71   H43   1.110800 S    
C1    C49   1.447686 S    
C86   H77   1.110791 S    
C91   H89   1.108751 S    
C84   C85   1.533065 S    
C36   H12   1.076712 S    
C81   H65   1.111272 S    
C60   H22   1.081672 S    
C66   H30   1.108864 S    
C84   H72   1.109680 S    
C58   H20   1.080258 S    
C92   H92   1.110789 S    
C85   H74   1.111447 S    
C74   H49   1.110159 S    
C76   C77   1.526131 S    
C43   C47   1.390605 A    
C10   C18   1.397694 A    
O7    Zn1   2.010083 S    
C67   H32   1.110973 S    
C56   C62   1.414578 A    
C68   H36   1.110375 S    
C4    C28   1.458346 S    
C65   H28   1.110218 S    
C19   C21   1.408565 A    
C41   C51   1.390261 A    
C83   H71   1.110832 S    
C54   C58   1.417062 A    
C71   H41   1.110751 S    
C66   H31   1.117248 S    
C32   C34   1.420153 A    
C76   H53   1.110127 S    
C78   H59   1.115874 S    
C89   H83   1.111010 S    
C60   N4    1.359704 A    
C59   N3    1.362859 A    
C77   H56   1.110306 S    
O3    Zn1   1.994277 S    
C6    N2    1.365877 A    
C29   C35   1.414883 A    
C88   C89   1.525504 S    
C47   O15   1.388788 S    
C26   C37   1.394694 A    
C83   H70   1.110216 S    
C80   H63   1.110553 S    
C53   C61   1.415640 A    
C48   O16   1.388855 S    
C64   H26   1.111184 S    
C45   O13   1.384745 S    
O2    C2    1.281424 A    
C38   H10   1.083577 S    
C44   C48   1.389266 A    
C35   H11   1.076703 S    
C5    C21   1.398229 A    
C63   H23   1.110988 S    
C37   H9    1.083582 S    
C42   C46   1.383534 A    
C56   C60   1.406407 A    
C29   C32   1.416471 A    
C79   H61   1.109686 S    
C35   C37   1.386369 A    
C89   H84   1.110635 S    
C16   O22   1.385288 S    
C72   C73   1.540452 S    
C56   O20   1.382944 S    
C24   H4    1.083586 S    
O22   C90   1.416376 S    
C46   C50   1.401802 A    
C86   H78   1.110918 S    
C61   C62   1.506094 S    
C90   C91   1.531237 S    
C75   C76   1.530373 S    
C2    C50   1.421210 S    
C75   H51   1.110852 S    
C77   H57   1.110937 S    
O8    Zn2   2.010085 S    
C84   H73   1.116397 S    
C11   C27   1.401430 A    
C91   H88   1.111765 S    
O16   C72   1.419929 S    
C29   C33   1.419954 A    
O6    Zn2   2.012257 S    
C69   C70   1.535369 S    
C31   C33   1.420064 A    
C51   C52   1.431236 S    
C14   H2    1.083241 S    
C41   C45   1.383158 A    
C65   H27   1.111211 S    
C67   C68   1.527276 S    
C9    C17   1.397390 A    
C5    N1    1.364214 A    
C88   H82   1.108583 S    
C87   C88   1.531532 S    
C79   C80   1.527191 S    
C90   H87   1.115476 S    
C13   C27   1.402245 A    
O5    C3    1.288402 A    
C78   H58   1.111049 S    
C7    C25   1.398087 A    
C40   H14   1.076714 S    
O6    C4    1.288302 A    
C66   C67   1.529462 S    
C8    C26   1.398458 A    
C89   H85   1.110762 S    
C15   O21   1.389161 S    
C92   H90   1.110371 S    
C68   H34   1.109431 S    
C78   C79   1.531444 S    
C25   C38   1.394437 A    
C73   H46   1.110511 S    
C65   H29   1.110797 S    
C77   H55   1.111115 S    
C23   C39   1.386297 A    
C82   H68   1.110630 S    
C39   H13   1.076699 S    
C24   C40   1.385779 A    
C6    O10   1.350383 S    
C83   H69   1.111116 S    
C46   O14   1.383060 S    
C10   H7    1.082778 S    
C54   O18   1.390255 S    
O18   C78   1.418538 S    
C64   C65   1.526728 S    
C20   C26   1.408233 A    
O1    Zn1   1.985085 S    
C64   H25   1.111738 S    
C23   H3    1.083572 S    
C59   H21   1.079261 S    
C47   C50   1.400950 A    
O20   C84   1.415733 S    
C12   C28   1.401139 A    
C79   H60   1.111515 S    
N2    C18   1.425513 S    
C82   C83   1.525918 S    
C21   C23   1.394594 A    
O21   C87   1.418268 S    
C5    O9    1.350061 S    
C9    H8    1.082948 S    
C69   H38   1.112995 S    
C14   C28   1.402639 A    
C55   C61   1.409887 A    
C10   C12   1.386014 A    
N2    C8    1.365494 A    
O4    C1    1.283857 A    
C54   C62   1.413062 A    
C36   C38   1.386024 A    
C73   H47   1.110738 S    
C42   C52   1.393671 A    
C80   H64   1.110862 S    
C72   H44   1.109902 S    
C85   C86   1.525813 S    
C87   H79   1.111079 S    
C70   C71   1.525182 S    
Zn1   N4    1.996787 S    
C22   C24   1.394571 A    
C55   O19   1.387824 S    
C7    O12   1.350082 S    
C15   C17   1.401156 A    
O4    Zn2   1.994279 S    
C6    C22   1.397407 A    
C41   H15   1.084447 S    
C91   C92   1.525375 S    
O15   C69   1.418358 S    
C81   H66   1.114625 S    
C69   H37   1.111038 S    
C30   C31   1.416024 A    
C14   C16   1.397103 A    
C92   H91   1.110339 S    
C85   H75   1.108488 S    
C3    C27   1.458312 S    
C20   C22   1.407871 A    
C11   H6    1.083171 S    
C76   H54   1.111168 S    
C44   C51   1.391348 A    
C55   C59   1.416400 A    
O2    Zn2   1.985083 S    
O7    C4    1.287924 A    
C67   H33   1.111134 S    
C43   C52   1.396012 A    
C68   H35   1.110356 S    
O8    C3    1.287707 A    
C57   H19   1.079945 S    
C88   H81   1.111567 S    
C45   C49   1.416236 A    
C13   H1    1.080015 S    
O5    Zn1   2.012260 S    
C9    C11   1.387640 A    
C71   H42   1.109782 S    
C48   C49   1.410391 A    
C44   H18   1.083746 S    
O13   C63   1.416536 S    
C43   H17   1.083758 S    
C86   H76   1.110926 S    
C57   N3    1.363792 A    
C63   C64   1.530762 S    
C74   H48   1.110752 S    
C87   H80   1.117131 S    
C70   H40   1.110763 S    
C81   C82   1.528814 S    
