data_mof_unit_2248.cif
_audit_creation_date              2012-12-10T19:10:34-0500
_audit_creation_method            fapswitch 2.2
_symmetry_space_group_name_H-M    P1
_symmetry_Int_Tables_number       1
_space_group_crystal_system       triclinic
_cell_length_a                    10.655074
_cell_length_b                    9.868635
_cell_length_c                    15.710095
_cell_angle_alpha                 89.598833
_cell_angle_beta                  88.542936
_cell_angle_gamma                 89.320653
_cell_volume                      1651.24545967

loop_
_atom_site_label
_atom_site_type_symbol
_atom_type_description
_atom_site_fract_x
_atom_site_fract_y
_atom_site_fract_z
_atom_type_partial_charge
C1    C     C_R   0.258381 0.500476 0.502374 0.857263
C2    C     C_3   0.931800 0.363930 0.549612 -0.067229
C3    C     C_3   0.070460 0.514763 0.410563 0.221555
C4    C     C_3   0.121936 0.500564 0.504188 -0.013634
C5    C     C_3   0.878265 0.499187 0.510871 0.065714
C6    C     C_R   0.500131 0.500413 0.338603 0.882063
C7    C     C_3   0.925361 0.510134 0.416690 -0.447060
C8    C     C_3   0.384911 0.082833 0.458652 -0.304389
C9    C     C_3   0.388843 0.921558 0.453953 -0.325346
C10   C     C_3   0.605655 0.076781 0.444790 -0.069286
C11   C     C_3   0.611241 0.916761 0.451520 -0.009174
C12   C     C_3   0.631078 0.492086 0.949158 -0.404341
C13   C     C_3   0.500385 0.078398 0.586338 0.302740
C14   C     C_3   0.494442 0.917316 0.586253 0.317178
C15   C     C_R   0.741225 0.499407 0.507247 0.820319
C16   C     C_R   0.499872 0.499599 0.661383 0.915474
C17   C     C_3   0.434066 0.635372 0.048421 0.279825
C18   C     C_3   0.424231 0.373156 0.050555 0.279261
C19   C     C_3   0.420528 0.376383 0.952239 -0.396760
C20   C     C_3   0.430078 0.630939 0.950173 -0.399106
C21   C     C_1   0.498209 0.498807 0.750333 -0.121709
C22   C     C_3   0.493300 0.500945 0.082858 0.145765
C23   C     C_3   0.630430 0.492955 0.047418 -0.558493
C24   C     C_3   0.494766 0.499477 0.917259 0.182160
C25   C     C_1   0.496469 0.498790 0.825742 -0.037141
C26   C     C_1   0.495858 0.501432 0.174411 0.018620
C27   C     C_1   0.498081 0.501284 0.249739 -0.140937
C28   C     C_3   0.071925 0.617209 0.562525 -0.407877
C29   C     C_3   0.075376 0.367125 0.547695 -0.381681
C30   C     C_3   0.927941 0.624882 0.559963 -0.074646
Cl1   Cl    Cl    0.375726 0.150444 0.652763 -0.551856
Cl2   Cl    Cl    0.359137 0.852012 0.644786 -0.559555
Cl3   Cl    Cl    0.282041 0.675458 0.093988 -0.533664
Cl4   Cl    Cl    0.269873 0.350966 0.096641 -0.535423
H1    H     H_    0.331434 0.635419 0.928520 0.230571
H2    H     H_    0.299783 0.880473 0.481004 0.214684
H3    H     H_    0.588575 0.101473 0.376461 0.151169
H4    H     H_    0.611216 0.876056 0.385451 0.152109
H5    H     H_    0.587587 0.107848 0.618127 0.053772
H6    H     H_    0.574982 0.876765 0.622343 0.076213
H7    H     H_    0.478467 0.281330 0.069934 0.108213
H8    H     H_    0.494952 0.721041 0.066338 0.107268
H9    H     H_    0.462064 0.280581 0.926448 0.171192
H10   H     H_    0.478586 0.721264 0.922849 0.168150
H11   H     H_    0.685081 0.580906 0.069595 0.208701
H12   H     H_    0.321955 0.382642 0.930567 0.229498
H13   H     H_    0.678292 0.399640 0.071110 0.207102
H14   H     H_    0.685586 0.579901 0.924024 0.197505
H15   H     H_    0.678754 0.398117 0.925544 0.198180
H16   H     H_    0.111173 0.717214 0.543670 0.187650
H17   H     H_    0.112378 0.275184 0.514702 0.170928
H18   H     H_    0.103061 0.598973 0.628868 0.211478
H19   H     H_    0.112436 0.359710 0.613289 0.217256
H20   H     H_    0.204857 0.648817 0.361900 0.206225
H21   H     H_    0.075791 0.727049 0.404790 0.165375
H22   H     H_    0.087226 0.309555 0.377764 0.170421
H23   H     H_    0.904806 0.718018 0.523869 0.163350
H24   H     H_    0.213847 0.403439 0.349604 0.198746
H25   H     H_    0.754925 0.204816 0.417984 0.213878
H26   H     H_    0.735876 0.158325 0.526074 0.213987
H27   H     H_    0.802511 0.886074 0.445657 0.184801
H28   H     H_    0.746969 0.917606 0.545516 0.162998
H29   H     H_    0.911833 0.721973 0.674971 0.205966
H30   H     H_    0.777317 0.658880 0.642741 0.196039
H31   H     H_    0.785835 0.339512 0.639375 0.192961
H32   H     H_    0.919475 0.398152 0.680520 0.235265
H33   H     H_    0.907352 0.279527 0.507698 0.159458
H34   H     H_    0.883693 0.602046 0.386245 0.183109
H35   H     H_    0.889648 0.422989 0.379989 0.165314
H36   H     H_    0.374347 0.125988 0.393565 0.164715
H37   H     H_    0.390653 0.889943 0.386058 0.161982
H38   H     H_    0.298626 0.115741 0.494169 0.217001
N1    N     N_3   0.499750 0.138610 0.498180 -0.094857
N2    N     N_3   0.499750 0.861390 0.498180 -0.096961
N3    N     N_3   0.107329 0.643587 0.369455 -0.400949
N4    N     N_3   0.115866 0.404047 0.354738 -0.388498
N5    N     N_3   0.728877 0.130572 0.462584 -0.484530
N6    N     N_3   0.728095 0.867883 0.488852 -0.423247
N7    N     N_3   0.873212 0.637184 0.646338 -0.475878
N8    N     N_3   0.883607 0.331862 0.635978 -0.450396
O1    O     O_R   0.314910 0.616040 0.499980 -0.609253
O2    O     O_R   0.314910 0.383960 0.499980 -0.610850
O3    O     O_R   0.500120 0.616090 0.377110 -0.619238
O4    O     O_R   0.500120 0.383910 0.377110 -0.620551
O5    O     O_R   0.685320 0.616040 0.499960 -0.605673
O6    O     O_R   0.685320 0.383960 0.499960 -0.655486
O7    O     O_R   0.500110 0.615990 0.622830 -0.579053
O8    O     O_R   0.500110 0.384010 0.622830 -0.569510
Zn1   Zn    Zn3+2 0.500150 0.654960 0.499960 0.963275
Zn2   Zn    Zn3+2 0.500150 0.345040 0.499960 0.949795

loop_
_geom_bond_atom_site_label_1
_geom_bond_atom_site_label_2
_ccdc_geom_bond_type
C16   C21   S    
H22   N4    S    
C12   H14   S    
H25   N5    S    
C12   H15   S    
C19   H12   S    
H24   N4    S    
H29   N7    S    
C12   C23   S    
C26   C27   T    
C17   Cl3   S    
C10   H3    S    
C23   H11   S    
C14   N2    S    
N2    Zn1   S    
N1    Zn2   S    
C3    C7    S    
C10   N1    S    
C1    O1    A    
C30   H23   S    
H28   N6    S    
C17   C20   S    
C18   C19   S    
C17   H8    S    
C20   H10   S    
C7    H34   S    
C20   H1    S    
C28   H16   S    
C20   C24   S    
C8    C9    S    
C16   O7    A    
C3    N3    S    
C4    C29   S    
C15   O5    A    
O1    Zn1   S    
H31   N8    S    
C13   C14   S    
O4    Zn2   S    
C4    C28   S    
C10   N5    S    
C19   H9    S    
O3    Zn1   S    
H26   N5    S    
C8    H38   S    
C6    O4    A    
C23   H13   S    
C24   C25   S    
C2    H33   S    
O6    Zn2   S    
C18   H7    S    
C5    C7    S    
O5    Zn1   S    
C1    O2    A    
C11   H4    S    
C13   N1    S    
C11   N6    S    
C9    H2    S    
C6    C27   S    
H27   N6    S    
C5    C15   S    
C3    N4    S    
C18   Cl4   S    
C15   O6    A    
C30   N7    S    
O8    Zn2   S    
O7    Zn1   S    
H30   N7    S    
C2    C5    S    
C9    N2    S    
C3    C4    S    
C5    C30   S    
C29   H17   S    
C21   C25   T    
C6    O3    A    
C18   C22   S    
C13   Cl1   S    
C9    H37   S    
C14   Cl2   S    
C11   N2    S    
C7    H35   S    
H32   N8    S    
C12   C24   S    
C8    H36   S    
C17   C22   S    
O2    Zn2   S    
C1    C4    S    
C28   C30   S    
C19   C24   S    
H21   N3    S    
C28   H18   S    
C29   H19   S    
C8    N1    S    
C13   H5    S    
C2    N8    S    
C10   C11   S    
C14   H6    S    
H20   N3    S    
C2    C29   S    
C22   C26   S    
C16   O8    A    
C22   C23   S    
