data_mof_unit_491.cif
_audit_creation_date              2012-12-10T16:43:24-0500
_audit_creation_method            fapswitch 2.2
_symmetry_space_group_name_H-M    P1
_symmetry_Int_Tables_number       1
_space_group_crystal_system       triclinic
_cell_length_a                    10.742401
_cell_length_b                    8.688592
_cell_length_c                    7.446191
_cell_angle_alpha                 102.849065
_cell_angle_beta                  93.928979
_cell_angle_gamma                 92.30313
_cell_volume                      674.906030755

loop_
_atom_site_label
_atom_site_type_symbol
_atom_type_description
_atom_site_fract_x
_atom_site_fract_y
_atom_site_fract_z
_atom_type_partial_charge
C1    C     C_R   0.487563 0.200135 0.454095 0.812909
C2    C     C_R   0.072581 0.647423 0.579653 0.104981
C3    C     C_R   0.130024 0.506332 0.508948 -0.095748
C4    C     C_R   0.060352 0.366194 0.431024 -0.249472
C5    C     C_R   0.930741 0.360570 0.421133 -0.024864
C6    C     C_R   0.871011 0.501206 0.491184 -0.164109
C7    C     C_2   0.458595 0.034152 0.431721 -0.197925
C8    C     C_2   0.500598 0.967368 0.568443 -0.388384
C9    C     C_R   0.263075 0.502321 0.503158 0.798809
C10   C     C_R   0.499195 0.799773 0.546101 0.877125
C11   C     C_R   0.737046 0.496095 0.496467 0.834012
C12   C     C_R   0.143014 0.790744 0.656747 -0.105171
C13   C     C_R   0.083693 0.929426 0.723326 -0.098735
C14   C     C_R   0.953865 0.928091 0.713438 -0.056102
C15   C     C_R   0.882744 0.788128 0.636686 -0.135493
C16   C     C_R   0.940968 0.645380 0.569668 0.070516
Cu1   Cu    Cu3+1 0.513920 0.517380 0.684380 0.964874
Cu2   Cu    Cu3+1 0.486080 0.482620 0.315620 1.003623
H1    H     H_    0.108295 0.260210 0.376352 0.169633
H2    H     H_    0.597354 0.621874 0.051217 0.227147
H3    H     H_    0.244032 0.797034 0.665874 0.139511
H4    H     H_    0.138657 0.038434 0.781950 0.130080
H5    H     H_    0.907993 0.036192 0.764106 0.145457
H6    H     H_    0.782175 0.793559 0.629101 0.121488
H7    H     H_    0.549491 0.037297 0.694899 0.164470
H8    H     H_    0.402600 0.378176 0.948805 0.222788
N1    N     N_2   0.465100 0.456430 0.038520 -0.199003
N2    N     N_2   0.534900 0.543570 0.961480 -0.205154
O1    O     O_R   0.509050 0.286130 0.619770 -0.583459
O2    O     O_R   0.485540 0.256780 0.308360 -0.582132
O3    O     O_R   0.331410 0.514680 0.655740 -0.597188
O4    O     O_R   0.307900 0.485330 0.344330 -0.555413
O5    O     O_R   0.514460 0.743220 0.691640 -0.606568
O6    O     O_R   0.490950 0.713870 0.380230 -0.551947
O7    O     O_R   0.692100 0.514670 0.655670 -0.585238
O8    O     O_R   0.668590 0.485320 0.344260 -0.541887
C17   C     C_2   0.862535 0.204820 0.340817 0.806404
O9    O     O_2   0.909832 0.082929 0.359213 -0.599431
O10   O     O_R   0.747452 0.195539 0.238519 -0.744560
H9    H     H_    0.712195 0.082691 0.190479 0.320939
C18   C     C_2   0.375143 0.952685 0.266442 0.404514
H10   H     H_    0.381281 0.987729 0.136070 0.069252
O11   O     O_2   0.293795 0.853643 0.277527 -0.520552

loop_
_geom_bond_atom_site_label_1
_geom_bond_atom_site_label_2
_ccdc_geom_bond_type
C14   H5    S    
C17   O9    D    
C3    C9    S    
C5    C17   S    
Cu1   O1    S    
C18   H10   S    
C4    H1    S    
C2    C12   A    
C11   O7    A    
C2    C3    A    
C7    C8    D    
C17   O10   S    
C13   C14   A    
C8    H7    S    
C18   O11   D    
C6    C11   S    
H8    N1    S    
Cu1   O5    S    
Cu2   O2    S    
C1    O1    A    
C1    O2    A    
C13   H4    S    
Cu1   Cu2   S    
C10   O5    A    
Cu2   O6    S    
C5    C6    A    
Cu1   O3    S    
Cu2   O4    S    
C9    O3    A    
C6    C16   A    
C3    C4    A    
N1    N2    D    
C2    C16   A    
C12   C13   A    
C10   O6    A    
O10   H9    S    
C14   C15   A    
C15   H6    S    
Cu1   O7    S    
H2    N2    S    
C9    O4    A    
C1    C7    S    
Cu1   N2    S    
Cu2   O8    S    
C12   H3    S    
C8    C10   S    
Cu2   N1    S    
C15   C16   A    
C7    C18   S    
C4    C5    A    
C11   O8    A    
