data_mof_unit_1624.cif
_audit_creation_date              2012-12-10T18:05:43-0500
_audit_creation_method            fapswitch 2.2
_symmetry_space_group_name_H-M    P1
_symmetry_Int_Tables_number       1
_space_group_crystal_system       triclinic
_cell_length_a                    10.809349
_cell_length_b                    10.812466
_cell_length_c                    9.520403
_cell_angle_alpha                 90.024215
_cell_angle_beta                  90.195322
_cell_angle_gamma                 90.683685
_cell_volume                      1112.61814122

loop_
_atom_site_label
_atom_site_type_symbol
_atom_type_description
_atom_site_fract_x
_atom_site_fract_y
_atom_site_fract_z
_atom_type_partial_charge
C1    C     C_R   0.501515 0.262178 0.499837 0.878842
C2    C     C_R   0.498485 0.737822 0.500162 0.878855
C3    C     C_R   0.871517 0.504514 0.500238 -0.292802
C4    C     C_R   0.128483 0.495483 0.499762 -0.292806
C5    C     C_R   0.939779 0.585238 0.588345 -0.133035
C6    C     C_R   0.060221 0.414763 0.411650 -0.133050
C7    C     C_R   0.544837 0.063371 0.381974 0.639257
C8    C     C_R   0.455172 0.936629 0.618028 0.639280
C9    C     C_R   0.541962 0.935440 0.382530 -0.351280
C10   C     C_R   0.458046 0.064560 0.617472 -0.351262
C11   C     C_R   0.497627 0.871630 0.500308 -0.262909
C12   C     C_R   0.502378 0.128370 0.499693 -0.262927
C13   C     C_R   0.426649 0.419204 0.074311 -0.151963
C14   C     C_R   0.573351 0.580796 0.925689 -0.151927
C15   C     C_R   0.426200 0.419337 0.925551 0.733090
C16   C     C_R   0.573799 0.580663 0.074449 0.733115
C17   C     C_R   0.262365 0.496649 0.499740 0.880936
C18   C     C_R   0.737635 0.503351 0.500260 0.880934
C19   C     C_R   0.150124 0.218925 0.098625 -0.201760
C20   C     C_R   0.849838 0.781146 0.901294 -0.201790
C21   C     C_R   0.103766 0.316710 0.178185 0.728369
C22   C     C_R   0.896205 0.683342 0.821773 0.728389
C23   C     C_R   0.119272 0.318003 0.325070 0.044470
C24   C     C_R   0.880727 0.682021 0.674887 0.044469
C25   C     C_R   0.182012 0.220512 0.390454 -0.243030
C26   C     C_R   0.818015 0.779505 0.609464 -0.243046
C27   C     C_R   0.227526 0.122758 0.310348 -0.115478
C28   C     C_R   0.772495 0.877278 0.689531 -0.115510
C29   C     C_R   0.212056 0.122154 0.164623 -0.173424
C30   C     C_R   0.787931 0.877908 0.835256 -0.173425
C31   C     C_R   0.931551 0.420330 0.412752 0.650299
C32   C     C_R   0.068449 0.579667 0.587249 0.650295
Cu1   Cu    Cu3+1 0.500000 0.500020 0.640660 1.078395
Cu2   Cu    Cu3+1 0.500000 0.499980 0.359340 1.078397
H1    H     H_    0.247554 0.046419 0.102921 0.202160
H2    H     H_    0.752426 0.953657 0.896929 0.202147
H3    H     H_    0.138050 0.218108 0.985714 0.211901
H4    H     H_    0.861888 0.781984 0.014206 0.211898
H5    H     H_    0.193021 0.218768 0.503578 0.169656
H6    H     H_    0.807029 0.781226 0.496339 0.169689
H7    H     H_    0.273448 0.046580 0.361402 0.164945
H8    H     H_    0.726592 0.953449 0.638446 0.164950
H9    H     H_    0.576238 0.886381 0.291645 0.244491
H10   H     H_    0.423771 0.113619 0.708357 0.244485
H11   H     H_    0.368825 0.354241 0.130667 0.172836
H12   H     H_    0.631176 0.645758 0.869333 0.172827
N1    N     N_R   0.500030 0.500030 0.852070 -0.245459
N2    N     N_R   0.499970 0.499970 0.147930 -0.245458
O1    O     O_R   0.499990 0.319660 0.618740 -0.560684
O2    O     O_R   0.500010 0.680340 0.381260 -0.560684
O3    O     O_R   0.499990 0.319630 0.381170 -0.530770
O4    O     O_R   0.500010 0.680370 0.618830 -0.530771
O5    O     O_R   0.319650 0.500020 0.618780 -0.483386
O6    O     O_R   0.680350 0.499980 0.381220 -0.483380
O7    O     O_R   0.319640 0.500000 0.381210 -0.605604
O8    O     O_R   0.680360 0.500000 0.618790 -0.605603
F1    F     F_    0.351472 0.338511 0.855852 -0.660802
F2    F     F_    0.648524 0.661490 0.144148 -0.660785
F3    F     F_    0.043609 0.409786 0.112336 -0.574433
F4    F     F_    0.956337 0.590276 0.887659 -0.574447
F5    F     F_    0.864166 0.338938 0.333578 -0.602919
F6    F     F_    0.135833 0.661061 0.666422 -0.602918
F7    F     F_    0.590531 0.122920 0.267428 -0.609919
F8    F     F_    0.409481 0.877080 0.732574 -0.609928

loop_
_geom_bond_atom_site_label_1
_geom_bond_atom_site_label_2
_ccdc_geom_bond_type
C13   N2    A    
C13   H11   S    
Cu2   O6    S    
C14   N1    A    
C31   F5    S    
C30   H2    S    
C27   C29   A    
C15   F1    S    
C19   H3    S    
C29   H1    S    
Cu2   N2    S    
C26   C28   A    
C1    O3    A    
C15   N1    A    
C5    C32   A    
C7    F7    S    
C16   N2    A    
Cu1   O8    S    
C28   C30   A    
Cu1   Cu2   S    
C16   F2    S    
C9    H9    S    
C32   F6    S    
Cu2   O7    S    
C14   H12   S    
C20   C30   A    
C25   H5    S    
Cu1   O4    S    
C3    C31   A    
C18   O8    A    
C9    C11   A    
C26   H6    S    
Cu2   O3    S    
C4    C32   A    
C1    C12   S    
C2    O4    A    
C8    F8    S    
C8    C11   A    
C6    C23   S    
C10   C12   A    
C28   H8    S    
C19   C21   A    
C20   C22   A    
C21   F3    S    
C18   O6    A    
C14   C16   A    
C13   C15   A    
C21   C23   A    
Cu1   O5    S    
C7    C12   A    
Cu1   N1    S    
C22   C24   A    
Cu2   O2    S    
C25   C27   A    
C2    C11   S    
C10   H10   S    
C19   C29   A    
C17   O5    A    
C23   C25   A    
C20   H4    S    
C3    C18   S    
C4    C6    A    
C1    O1    A    
C7    C9    A    
C17   O7    A    
C5    C24   S    
C6    C31   A    
C2    O2    A    
C22   F4    S    
Cu1   O1    S    
C8    C10   A    
C24   C26   A    
C27   H7    S    
C3    C5    A    
C4    C17   S    
