data_mof_unit_3088.cif
_audit_creation_date              2012-10-26T19:59:42-0400
_audit_creation_method            fapswitch 2.2
_symmetry_space_group_name_H-M    P1
_symmetry_Int_Tables_number       1
_space_group_crystal_system       triclinic
_cell_length_a                    10.740273
_cell_length_b                    8.682553
_cell_length_c                    7.496705
_cell_angle_alpha                 103.122739
_cell_angle_beta                  94.629531
_cell_angle_gamma                 93.034714
_cell_volume                      676.781472355

loop_
_atom_site_label
_atom_site_type_symbol
_atom_type_description
_atom_site_fract_x
_atom_site_fract_y
_atom_site_fract_z
_atom_type_partial_charge
Br1   Br    Br    0.660473 0.694055 0.096201 -0.390348
C1    C     C_R   0.495913 0.199795 0.453174 0.535723
C2    C     C_R   0.503825 0.800205 0.546877 0.532805
C3    C     C_R   0.737330 0.506227 0.499382 0.540783
C4    C     C_R   0.154153 0.773749 0.732675 -0.101973
C5    C     C_R   0.100338 0.900639 0.841011 -0.121608
C6    C     C_R   0.970740 0.902399 0.837022 -0.104542
C7    C     C_R   0.894191 0.777268 0.724681 -0.073094
C8    C     C_R   0.946718 0.645905 0.616048 0.030252
C9    C     C_R   0.078379 0.644129 0.620021 0.024796
C10   C     C_R   0.129793 0.514911 0.505847 0.007567
C11   C     C_R   0.053020 0.394680 0.385111 -0.145353
C12   C     C_R   0.924686 0.396342 0.381486 -0.135771
C13   C     C_R   0.871475 0.518259 0.498617 0.016171
C14   C     C_2   0.493451 0.031584 0.427269 -0.141176
C15   C     C_2   0.505719 0.968388 0.572908 -0.157292
C16   C     C_R   0.263053 0.504596 0.502275 0.523480
Cu1   Cu    Cu3+1 0.513920 0.517380 0.684380 1.020763
Cu2   Cu    Cu3+1 0.486080 0.482620 0.315620 1.023295
H1    H     H_    0.092879 0.297293 0.295541 0.122010
H2    H     H_    0.255054 0.780246 0.736273 0.141340
H3    H     H_    0.159458 0.998982 0.926652 0.113364
H4    H     H_    0.929296 0.002109 0.919527 0.124535
H5    H     H_    0.794085 0.786450 0.721448 0.152049
H6    H     H_    0.866530 0.299656 0.290506 0.133799
H7    H     H_    0.481490 0.959481 0.287198 0.160967
H8    H     H_    0.517383 0.040512 0.713016 0.135389
H9    H     H_    0.400639 0.378147 0.949087 0.203825
N1    N     N_2   0.465100 0.456430 0.038520 -0.211747
N2    N     N_2   0.534900 0.543570 0.961480 0.002340
O1    O     O_R   0.509050 0.286130 0.619770 -0.516921
O2    O     O_R   0.485540 0.256780 0.308360 -0.507957
O3    O     O_R   0.331410 0.514680 0.655740 -0.528141
O4    O     O_R   0.307900 0.485330 0.344330 -0.507738
O5    O     O_R   0.514460 0.743220 0.691640 -0.499108
O6    O     O_R   0.490950 0.713870 0.380230 -0.461712
O7    O     O_R   0.692100 0.514670 0.655670 -0.485380
O8    O     O_R   0.668590 0.485320 0.344260 -0.455392

loop_
_geom_bond_atom_site_label_1
_geom_bond_atom_site_label_2
_ccdc_geom_bond_type
C10   C11   A    
C5    C6    A    
Cu1   N2    S    
Cu2   O8    S    
Cu1   O5    S    
C2    O5    A    
C8    C13   A    
C11   H1    S    
C15   H8    S    
C6    C7    A    
C12   C13   A    
C3    O7    A    
C1    C14   S    
C12   H6    S    
N1    N2    D    
C16   O3    A    
C2    O6    A    
C6    H4    S    
Cu2   O2    S    
C8    C9    A    
Br1   N2    S    
C7    H5    S    
Cu1   O7    S    
C3    O8    A    
Cu2   O6    S    
C1    O1    A    
C3    C13   S    
C4    C5    A    
Cu1   O3    S    
C16   O4    A    
C14   C15   D    
Cu2   N1    S    
C4    C9    A    
C4    H2    S    
C11   C12   A    
C1    O2    A    
Cu1   Cu2   S    
C9    C10   A    
H9    N1    S    
C14   H7    S    
Cu1   O1    S    
C10   C16   S    
C2    C15   S    
C7    C8    A    
Cu2   O4    S    
C5    H3    S    
