data_mof_unit_2969.cif
_audit_creation_date              2012-10-26T20:16:28-0400
_audit_creation_method            fapswitch 2.2
_symmetry_space_group_name_H-M    P1
_symmetry_Int_Tables_number       1
_space_group_crystal_system       triclinic
_cell_length_a                    10.792767
_cell_length_b                    15.791169
_cell_length_c                    17.108129
_cell_angle_alpha                 96.347006
_cell_angle_beta                  91.387822
_cell_angle_gamma                 92.351152
_cell_volume                      2894.21994926

loop_
_atom_site_label
_atom_site_type_symbol
_atom_type_description
_atom_site_fract_x
_atom_site_fract_y
_atom_site_fract_z
_atom_type_partial_charge
C1    C     C_R   0.506803 0.489597 0.348749 0.574847
C2    C     C_R   0.507749 0.472650 0.097662 0.178941
C3    C     C_R   0.475356 0.401569 0.135603 -0.131277
C4    C     C_R   0.262174 0.499822 0.495425 0.612737
C5    C     C_R   0.480576 0.406618 0.217268 -0.194824
C6    C     C_R   0.448201 0.453090 0.857637 -0.091009
C7    C     C_R   0.439086 0.448339 0.775646 -0.049715
C8    C     C_R   0.507258 0.524676 0.902060 0.214990
C9    C     C_R   0.492629 0.515563 0.737378 -0.002148
C10   C     C_R   0.547408 0.587715 0.782297 -0.164535
C11   C     C_R   0.554079 0.592155 0.863848 -0.110060
C12   C     C_R   0.057702 0.453058 0.425141 0.062167
C13   C     C_R   0.434236 0.750504 0.463901 0.085320
C14   C     C_R   0.426306 0.839668 0.470976 0.215170
C15   C     C_R   0.509811 0.891692 0.523643 0.183853
C16   C     C_R   0.497150 0.510302 0.651323 0.541055
C17   C     C_R   0.592332 0.849569 0.571078 0.195256
C18   C     C_R   0.593029 0.759908 0.562227 0.070179
C19   C     C_R   0.579237 0.161046 0.527446 -0.020639
C20   C     C_R   0.572890 0.250560 0.531929 0.029242
C21   C     C_R   0.487897 0.108857 0.481496 0.193345
C22   C     C_R   0.398105 0.238934 0.444958 0.013349
C23   C     C_R   0.128079 0.499778 0.488663 0.011350
C24   C     C_R   0.398254 0.149522 0.439848 -0.154642
C25   C     C_R   0.737600 0.499703 0.498789 0.530174
C26   C     C_R   0.112387 0.410015 0.357620 0.247850
C27   C     C_R   0.036409 0.364126 0.298071 -0.109172
C28   C     C_R   0.908445 0.362947 0.302484 -0.153971
C29   C     C_R   0.853572 0.407431 0.365985 -0.123850
C30   C     C_R   0.926348 0.452165 0.428295 -0.015458
C31   C     C_R   0.688007 0.125891 0.564974 0.030147
C32   C     C_R   0.717575 0.149599 0.645071 -0.117050
C33   C     C_R   0.823788 0.119837 0.679546 -0.111025
C34   C     C_R   0.069646 0.547491 0.549557 -0.175972
C35   C     C_R   0.901603 0.066721 0.634325 -0.089968
C36   C     C_R   0.873274 0.043191 0.554544 -0.096212
C37   C     C_R   0.767146 0.072781 0.519823 -0.062610
C38   C     C_R   0.371011 0.373582 0.731926 0.047870
C39   C     C_R   0.263908 0.384611 0.686350 -0.054114
C40   C     C_R   0.203772 0.314589 0.641784 -0.089472
C41   C     C_R   0.249606 0.233177 0.642723 -0.095384
C42   C     C_R   0.355242 0.221582 0.688583 -0.111500
C43   C     C_R   0.415595 0.291422 0.733340 -0.096663
C44   C     C_R   0.942118 0.547400 0.551228 -0.148570
C45   C     C_R   0.870669 0.498811 0.492480 0.007123
C46   C     C_R   0.517675 0.483474 0.262732 -0.000294
C47   C     C_R   0.560772 0.553769 0.224396 0.209058
C48   C     C_R   0.551956 0.548565 0.142674 -0.014561
Cu1   Cu    Cu3+1 0.493970 0.415220 0.496180 0.958809
Cu2   Cu    Cu3+1 0.506030 0.584780 0.503820 0.962046
H1    H     H_    0.123416 0.583657 0.597274 0.124565
H2    H     H_    0.370512 0.711233 0.424057 0.179134
H3    H     H_    0.076636 0.330683 0.246748 0.099908
H4    H     H_    0.851186 0.328818 0.255455 0.125565
H5    H     H_    0.753515 0.407214 0.364595 0.143545
H6    H     H_    0.898688 0.583910 0.599723 0.126708
H7    H     H_    0.407511 0.401342 0.886478 0.137950
H8    H     H_    0.443590 0.342356 0.101639 0.129047
H9    H     H_    0.663232 0.612095 0.309258 0.339360
H10   H     H_    0.658472 0.191085 0.680711 0.098180
H11   H     H_    0.845992 0.138194 0.741282 0.116735
H12   H     H_    0.452570 0.350594 0.244745 0.131588
H13   H     H_    0.983962 0.043949 0.661055 0.118126
H14   H     H_    0.933862 0.002325 0.519509 0.122911
H15   H     H_    0.747369 0.055071 0.457667 0.133694
H16   H     H_    0.657654 0.954343 0.631999 0.358832
H17   H     H_    0.259714 0.381615 0.298883 0.307090
H18   H     H_    0.303180 0.923432 0.460339 0.345204
H19   H     H_    0.228326 0.447530 0.684454 0.091563
H20   H     H_    0.122163 0.323569 0.606095 0.110172
H21   H     H_    0.203435 0.179119 0.607806 0.110299
H22   H     H_    0.390955 0.158561 0.688956 0.118553
H23   H     H_    0.588177 0.639993 0.754220 0.136755
H24   H     H_    0.498318 0.281823 0.767796 0.098764
H25   H     H_    0.582289 0.603806 0.114735 0.168067
H26   H     H_    0.598340 0.647826 0.897538 0.130961
H27   H     H_    0.642198 0.290925 0.566461 0.134150
H28   H     H_    0.654993 0.728152 0.599001 0.155776
H29   H     H_    0.329172 0.269106 0.411859 0.148606
H30   H     H_    0.328627 0.111820 0.403075 0.119492
N1    N     N_2   0.495235 0.464816 0.014457 -0.248973
N2    N     N_2   0.520277 0.532070 0.985143 -0.248588
N3    N     N_R   0.515100 0.712130 0.509560 -0.302499
N4    N     N_2   0.510748 0.983622 0.532835 -0.260607
N5    N     N_2   0.486470 0.017195 0.471564 -0.216667
N6    N     N_R   0.484890 0.287850 0.490450 -0.230052
O1    O     O_R   0.494360 0.420530 0.382500 -0.490846
O2    O     O_3   0.673280 0.892762 0.626902 -0.709532
O3    O     O_3   0.238575 0.416334 0.348152 -0.694845
O4    O     O_3   0.332369 0.872089 0.428793 -0.685662
O5    O     O_R   0.504550 0.563720 0.388950 -0.476627
O6    O     O_R   0.314550 0.428390 0.496780 -0.465244
O7    O     O_R   0.324740 0.571580 0.503230 -0.505843
O8    O     O_R   0.495450 0.436280 0.611050 -0.493786
O9    O     O_R   0.505640 0.579470 0.617500 -0.514425
O10   O     O_R   0.675260 0.428420 0.496770 -0.523639
O11   O     O_R   0.685450 0.571610 0.503220 -0.506366
O12   O     O_3   0.613538 0.627744 0.264003 -0.677280

loop_
_geom_bond_atom_site_label_1
_geom_bond_atom_site_label_2
_ccdc_geom_bond_type
C1    O1    A    
C17   O2    S    
C41   C42   A    
Cu1   O1    S    
C30   C45   A    
C19   C20   A    
C6    H7    S    
C19   C31   S    
N1    N2    D    
C26   O3    S    
C12   C23   A    
C34   H1    S    
C47   O12   S    
C40   H20   S    
C20   H27   S    
C8    N2    S    
C36   C37   A    
C19   C21   A    
C9    C16   S    
C22   H29   S    
C11   H26   S    
H16   O2    S    
C38   C39   A    
C10   H23   S    
C1    C46   S    
H17   O3    S    
C7    C9    A    
C14   O4    S    
C24   H30   S    
C31   C32   A    
C37   H15   S    
C16   O9    A    
C20   N6    A    
H18   O4    S    
Cu1   O8    S    
C9    C10   A    
C41   H21   S    
C43   H24   S    
C1    O5    A    
C13   C14   A    
C48   H25   S    
Cu2   N3    S    
C17   C18   A    
C21   N5    S    
C34   C44   A    
N4    N5    D    
C39   C40   A    
C4    C23   S    
C28   H4    S    
C6    C8    A    
C29   H5    S    
C2    C48   A    
C31   C37   A    
C12   C26   A    
C35   C36   A    
C29   C30   A    
C13   H2    S    
C44   H6    S    
C47   C48   A    
C18   H28   S    
C23   C34   A    
C42   H22   S    
C18   N3    A    
C39   H19   S    
C6    C7    A    
C25   O11   A    
C40   C41   A    
C26   C27   A    
C22   C24   A    
C42   C43   A    
C32   H10   S    
Cu1   O6    S    
C25   C45   S    
C44   C45   A    
C15   C17   A    
C46   C47   A    
C28   C29   A    
Cu2   O11   S    
C12   C30   A    
Cu1   N6    S    
C3    C5    A    
C27   H3    S    
Cu2   O7    S    
C15   N4    S    
C5    C46   A    
C13   N3    A    
C16   O8    A    
C32   C33   A    
C2    C3    A    
C38   C43   A    
C8    C11   A    
C33   C35   A    
C7    C38   S    
C5    H12   S    
C22   N6    A    
Cu1   O10   S    
Cu2   O9    S    
C10   C11   A    
C4    O7    A    
C3    H8    S    
Cu2   O5    S    
C25   O10   A    
C33   H11   S    
Cu1   Cu2   S    
C21   C24   A    
C27   C28   A    
H9    O12   S    
C14   C15   A    
C2    N1    S    
C35   H13   S    
C36   H14   S    
C4    O6    A    
