data_mof_unit_523.cif
_audit_creation_date              2012-12-10T17:32:59-0500
_audit_creation_method            fapswitch 2.2
_symmetry_space_group_name_H-M    P1
_symmetry_Int_Tables_number       1
_space_group_crystal_system       triclinic
_cell_length_a                    12.346009
_cell_length_b                    13.243842
_cell_length_c                    14.234475
_cell_angle_alpha                 92.976868
_cell_angle_beta                  108.087208
_cell_angle_gamma                 116.904871
_cell_volume                      1921.46827542

loop_
_atom_site_label
_atom_site_type_symbol
_atom_type_description
_atom_site_fract_x
_atom_site_fract_y
_atom_site_fract_z
_atom_type_partial_charge
C1    C     C_R   0.650675 0.714068 0.508429 0.782221
C2    C     C_R   0.893464 0.565824 0.928834 0.092431
C3    C     C_R   0.844986 0.584356 0.002214 0.142013
C4    C     C_R   0.016165 0.568874 0.960613 0.050441
C5    C     C_R   0.080016 0.575037 0.064536 -0.007342
C6    C     C_R   0.038100 0.608466 0.137773 -0.035805
C7    C     C_R   0.918836 0.608236 0.105087 -0.289897
C8    C     C_R   0.077992 0.567043 0.892240 -0.213155
C9    C     C_R   0.191184 0.558387 0.922493 -0.227798
C10   C     C_R   0.240887 0.543086 0.019398 0.165286
C11   C     C_R   0.182128 0.546317 0.089826 0.115606
C12   C     C_R   0.620244 0.518673 0.687178 0.794757
C13   C     C_R   0.346640 0.521571 0.046062 -0.200974
C14   C     C_R   0.392302 0.500067 0.141181 -0.201555
C15   C     C_R   0.220454 0.511768 0.180096 -0.185438
C16   C     C_R   0.140880 0.966029 0.364795 -0.169541
C17   C     C_R   0.249334 0.162275 0.463848 -0.052184
C18   C     C_R   0.729650 0.921239 0.572780 -0.184214
C19   C     C_R   0.819853 0.038132 0.591521 -0.142635
C20   C     C_R   0.921184 0.072690 0.555966 -0.181938
C21   C     C_R   0.931468 0.990201 0.496975 0.080132
C22   C     C_R   0.829913 0.872741 0.467629 0.081975
C23   C     C_R   0.345359 0.285270 0.485139 0.802849
C24   C     C_R   0.038444 0.020586 0.465234 0.070715
C25   C     C_R   0.035838 0.936868 0.396743 0.159201
C26   C     C_R   0.927190 0.825889 0.359077 -0.214387
C27   C     C_R   0.824839 0.794636 0.392711 -0.197471
C28   C     C_R   0.148963 0.131600 0.500528 -0.251595
C29   C     C_R   0.246937 0.078684 0.397651 -0.198126
C30   C     C_R   0.735394 0.837281 0.513281 -0.097837
C31   C     C_R   0.255049 0.686864 0.660573 -0.305037
C32   C     C_R   0.654179 0.341899 0.363814 0.070473
C33   C     C_R   0.731740 0.307602 0.333442 -0.251818
C34   C     C_R   0.382804 0.485559 0.313305 0.795495
C35   C     C_R   0.867434 0.367368 0.384300 -0.168872
C36   C     C_R   0.927866 0.462961 0.466819 0.016186
C37   C     C_R   0.844045 0.495203 0.495093 0.290009
C38   C     C_R   0.067666 0.527456 0.522391 -0.003035
C39   C     C_R   0.119860 0.622602 0.604229 0.180692
C40   C     C_R   0.037066 0.653176 0.629850 -0.295024
C41   C     C_R   0.902637 0.590739 0.577038 -0.192803
C42   C     C_R   0.159129 0.502241 0.501028 0.053239
C43   C     C_R   0.339114 0.657411 0.635962 0.058292
C44   C     C_R   0.694755 0.538561 0.795762 -0.052623
C45   C     C_R   0.328951 0.494902 0.208692 -0.059384
C46   C     C_R   0.724331 0.582340 0.972071 -0.186104
C47   C     C_R   0.650141 0.560434 0.869550 -0.195024
C48   C     C_R   0.814675 0.539915 0.825730 -0.254785
Cu1   Cu    Cu3+1 0.416420 0.526630 0.522910 0.937910
Cu2   Cu    Cu3+1 0.583580 0.473370 0.477090 0.923095
H1    H     H_    0.884803 0.630299 0.160406 0.160104
H2    H     H_    0.394185 0.521796 0.993521 0.129808
H3    H     H_    0.324099 0.101477 0.368296 0.153085
H4    H     H_    0.921292 0.762754 0.303460 0.161131
H5    H     H_    0.159406 0.196962 0.556256 0.146978
H6    H     H_    0.987775 0.164877 0.573999 0.127278
H7    H     H_    0.813640 0.102263 0.636637 0.143891
H8    H     H_    0.443486 0.706875 0.679257 0.121981
H9    H     H_    0.165584 0.496613 0.228920 0.147263
H10   H     H_    0.076607 0.725999 0.692415 0.155662
H11   H     H_    0.295492 0.759505 0.723478 0.141165
H12   H     H_    0.128069 0.431692 0.439971 0.115972
H13   H     H_    0.922518 0.336995 0.357516 0.133112
H14   H     H_    0.848329 0.620553 0.603847 0.206081
H15   H     H_    0.477083 0.487978 0.161894 0.153913
H16   H     H_    0.236069 0.557844 0.868105 0.143914
H17   H     H_    0.687504 0.598106 0.027919 0.129220
H18   H     H_    0.557818 0.560210 0.848146 0.148028
H19   H     H_    0.043051 0.575430 0.815339 0.149185
N1    N     N_R   0.290690 0.566960 0.557640 -0.181519
N2    N     N_R   0.709100 0.433710 0.442970 -0.205903
O1    O     O_R   0.545970 0.684450 0.528810 -0.576841
O2    O     O_R   0.687130 0.639470 0.490120 -0.602405
O3    O     O_R   0.519670 0.535100 0.660030 -0.584564
O4    O     O_R   0.660830 0.490120 0.621340 -0.598693
O5    O     O_R   0.312870 0.360530 0.509880 -0.589584
O6    O     O_R   0.454030 0.315550 0.471190 -0.583651
O7    O     O_R   0.339170 0.509880 0.378660 -0.572815
O8    O     O_R   0.480330 0.464900 0.339970 -0.596061
H20   H     H_    0.139202 0.902597 0.312244 0.157653
H21   H     H_    0.656832 0.896402 0.606955 0.151970
H22   H     H_    0.740498 0.709350 0.356870 0.175258
H23   H     H_    0.549046 0.294865 0.323719 0.125853
H24   H     H_    0.686428 0.234288 0.270154 0.149067
H25   H     H_    0.843469 0.518031 0.767115 0.153069
C49   C     C_2   0.123620 0.661078 0.246837 0.800784
O9    O     O_2   0.075415 0.646029 0.311629 -0.617703
O10   O     O_R   0.259073 0.730779 0.275224 -0.757019
H26   H     H_    0.306510 0.761486 0.351388 0.338714

loop_
_geom_bond_atom_site_label_1
_geom_bond_atom_site_label_2
_ccdc_geom_bond_type
C40   H10   S    
C12   O3    A    
C17   C29   A    
C31   H11   S    
C35   C36   A    
C23   O5    A    
C4    C8    A    
Cu2   O8    S    
C19   H7    S    
C8    H19   S    
C17   C23   S    
C31   C43   A    
C36   C37   A    
C5    C11   A    
C3    C7    A    
C38   C39   A    
C49   O10   S    
C42   N1    A    
C18   H21   S    
Cu1   O7    S    
C18   C19   A    
C9    H16   S    
C43   H8    S    
C11   C15   A    
C19   C20   A    
C8    C9    A    
Cu1   O1    S    
C18   C30   A    
C14   C45   A    
C9    C10   A    
C42   H12   S    
C44   C47   A    
C20   H6    S    
C21   C22   A    
C26   H4    S    
C28   H5    S    
C32   N2    A    
C1    O1    A    
C24   C25   A    
Cu2   O2    S    
C39   C40   A    
C49   O9    D    
C2    C48   A    
C25   C26   A    
C16   H20   S    
C2    C4    A    
Cu2   N2    S    
C34   O8    A    
C13   H2    S    
C20   C21   A    
C26   C27   A    
Cu1   O5    S    
C34   C45   S    
C23   O6    A    
C40   C41   A    
C43   N1    A    
Cu1   N1    S    
C37   N2    A    
C12   O4    A    
C15   C45   A    
Cu2   O6    S    
C47   H18   S    
C16   C25   A    
C32   H23   S    
C46   C47   A    
C22   C30   A    
Cu1   O3    S    
C17   C28   A    
C15   H9    S    
C27   H22   S    
C24   C28   A    
C4    C5    A    
C10   C13   A    
C38   C42   A    
C6    C7    A    
C3    C46   A    
C6    C49   S    
C22   C27   A    
C1    O2    A    
C32   C33   A    
C36   C38   A    
C2    C3    A    
C16   C29   A    
C7    H1    S    
C46   H17   S    
C12   C44   S    
Cu2   O4    S    
C34   O7    A    
C5    C6    A    
C29   H3    S    
C1    C30   S    
C33   C35   A    
C14   H15   S    
C31   C39   A    
C37   C41   A    
C33   H24   S    
C10   C11   A    
O10   H26   S    
Cu1   Cu2   S    
C21   C24   A    
C48   H25   S    
C35   H13   S    
C41   H14   S    
C13   C14   A    
C44   C48   A    
