data_mof_unit_2973.cif
_audit_creation_date              2012-12-10T19:33:12-0500
_audit_creation_method            fapswitch 2.2
_symmetry_space_group_name_H-M    P1
_symmetry_Int_Tables_number       1
_space_group_crystal_system       triclinic
_cell_length_a                    27.540925
_cell_length_b                    15.733474
_cell_length_c                    14.936141
_cell_angle_alpha                 89.832951
_cell_angle_beta                  90.117381
_cell_angle_gamma                 90.192307
_cell_volume                      6471.96797028

loop_
_atom_site_label
_atom_site_type_symbol
_atom_type_description
_atom_site_fract_x
_atom_site_fract_y
_atom_site_fract_z
_atom_type_partial_charge
C1    C     C_R   0.500236 0.337607 0.499955 0.859682
C2    C     C_R   0.499832 0.662392 0.499843 0.859659
C3    C     C_R   0.101170 0.488848 0.469813 -0.197855
C4    C     C_R   0.898057 0.523580 0.469185 -0.197497
C5    C     C_R   0.122063 0.408325 0.487462 -0.166772
C6    C     C_R   0.877052 0.603686 0.487734 -0.168222
C7    C     C_R   0.091654 0.337144 0.502213 0.371534
C8    C     C_R   0.907385 0.674821 0.502980 0.372293
C9    C     C_R   0.131042 0.560953 0.455831 -0.192943
C10   C     C_R   0.868282 0.451567 0.454194 -0.191665
C11   C     C_R   0.352953 0.485916 0.499127 -0.335392
C12   C     C_R   0.646818 0.517580 0.499365 -0.336269
C13   C     C_R   0.969970 0.434040 0.456730 -0.077025
C14   C     C_R   0.029306 0.578852 0.457877 -0.077376
C15   C     C_R   0.978959 0.587636 0.474367 -0.074830
C16   C     C_R   0.020247 0.425016 0.473781 -0.074095
C17   C     C_R   0.948955 0.515198 0.466361 -0.057769
C18   C     C_R   0.050283 0.497494 0.466812 -0.057612
C19   C     C_R   0.940188 0.365476 0.428974 0.432020
C20   C     C_R   0.059207 0.647777 0.431296 0.432140
C21   C     C_R   0.889760 0.372053 0.435013 0.386226
C22   C     C_R   0.109643 0.640879 0.437627 0.385383
C23   C     C_R   0.405700 0.497352 0.499872 0.950753
C24   C     C_R   0.594266 0.503387 0.500006 0.947937
C25   C     C_R   0.041059 0.347320 0.501880 0.439788
C26   C     C_R   0.958009 0.664933 0.502802 0.439916
C27   C     C_3   0.548491 0.968406 0.479317 0.297073
C28   C     C_3   0.458702 0.030314 0.503176 0.260290
C29   C     C_3   0.521356 0.024804 0.410945 0.279374
C30   C     C_3   0.486167 0.975610 0.571804 0.254466
C31   C     C_1   0.502327 0.249090 0.498833 -0.182452
C32   C     C_1   0.499862 0.751010 0.499078 -0.170451
C33   C     C_3   0.533108 0.026764 0.557336 0.337606
C34   C     C_3   0.474619 0.972381 0.425734 0.392147
C35   C     C_3   0.505472 0.083663 0.489030 -0.245267
C36   C     C_3   0.501605 0.916658 0.494425 -0.172926
C37   C     C_1   0.504228 0.174179 0.494713 0.097745
C38   C     C_1   0.500266 0.826088 0.497255 0.157117
C39   C     C_3   0.497526 0.418351 0.971180 0.333226
C40   C     C_3   0.502450 0.579826 0.028950 0.333331
C41   C     C_3   0.538561 0.455415 0.030222 0.327453
C42   C     C_3   0.461411 0.542786 0.969940 0.325962
C43   C     C_3   0.458874 0.462462 0.029639 0.328294
C44   C     C_3   0.541102 0.535736 0.970530 0.330813
C45   C     C_R   0.172913 0.402600 0.493246 0.582300
C46   C     C_R   0.826196 0.608937 0.494004 0.585184
C47   C     C_3   0.499915 0.499528 0.090135 -0.294312
C48   C     C_3   0.500064 0.498709 0.909966 -0.292959
C49   C     C_1   0.499959 0.499853 0.189942 0.296180
C50   C     C_1   0.500028 0.499340 0.810085 0.301041
C51   C     C_R   0.181536 0.550288 0.458981 0.635096
C52   C     C_R   0.817800 0.461877 0.457544 0.631956
C53   C     C_R   0.273846 0.506749 0.567072 0.451840
C54   C     C_R   0.726331 0.501702 0.567880 0.448009
C55   C     C_R   0.324291 0.519664 0.568560 0.296756
C56   C     C_R   0.676255 0.484788 0.568600 0.308263
C57   C     C_R   0.330886 0.439516 0.428930 0.451493
C58   C     C_R   0.667827 0.566312 0.429697 0.448371
C59   C     C_R   0.280523 0.433493 0.424713 -0.287575
C60   C     C_R   0.718046 0.575690 0.425785 -0.291453
C61   C     C_R   0.252180 0.468208 0.492384 0.075259
C62   C     C_R   0.747140 0.542248 0.493458 0.077743
H1    H     H_    0.263346 0.403275 0.367725 0.187353
H2    H     H_    0.734554 0.607156 0.368813 0.185337
N1    N     N_R   0.200883 0.473232 0.480659 -0.317150
N2    N     N_R   0.798363 0.538296 0.480743 -0.316357
N3    N     N_1   0.500020 0.500000 0.268010 -0.088328
N4    N     N_1   0.499980 0.500000 0.731990 -0.094704
O1    O     O_R   0.500000 0.376780 0.574460 -0.612149
O2    O     O_R   0.500000 0.623220 0.425540 -0.598770
O3    O     O_R   0.500010 0.376780 0.425520 -0.622430
O4    O     O_R   0.499990 0.623220 0.574480 -0.623427
O5    O     O_R   0.428750 0.500010 0.574460 -0.581789
O6    O     O_R   0.571250 0.499990 0.425540 -0.575710
O7    O     O_R   0.428760 0.500020 0.425520 -0.570094
O8    O     O_R   0.571240 0.499980 0.574480 -0.578928
O9    O     O_2   0.194543 0.327863 0.512226 -0.541296
O10   O     O_2   0.804454 0.683133 0.514192 -0.541328
O11   O     O_2   0.787818 0.396551 0.437676 -0.550362
O12   O     O_2   0.211594 0.615848 0.440262 -0.546750
Zn1   Zn    Zn3+2 0.499990 0.500000 0.599450 1.014982
Zn2   Zn    Zn3+2 0.500010 0.500000 0.400550 1.026641
O13   O     O_3   0.358192 0.403966 0.361181 -0.563001
C63   C     C_3   0.368508 0.319027 0.384689 -0.236186
H3    H     H_    0.334688 0.280278 0.388825 0.151755
H4    H     H_    0.389042 0.315163 0.448878 0.143382
H5    H     H_    0.391694 0.291021 0.331838 0.186404
O14   O     O_3   0.639641 0.600594 0.362029 -0.576714
C64   C     C_3   0.629939 0.686125 0.383294 -0.217895
H6    H     H_    0.663867 0.724721 0.383802 0.147315
H7    H     H_    0.610830 0.691693 0.448662 0.146223
H8    H     H_    0.605669 0.712921 0.331079 0.203049
O15   O     O_3   0.593191 0.925446 0.470264 -0.632849
C65   C     C_3   0.629487 0.981884 0.440040 0.091430
H9    H     H_    0.628176 0.043637 0.475981 0.146398
H10   H     H_    0.625146 0.992680 0.366984 0.175136
C66   C     C_3   0.679257 0.941901 0.456145 -0.332996
H11   H     H_    0.683624 0.926670 0.528396 0.225187
H12   H     H_    0.681928 0.881768 0.417644 0.224969
C67   C     C_3   0.720177 0.001649 0.427432 -0.962332
H13   H     H_    0.716930 0.017051 0.355043 0.263998
H14   H     H_    0.755753 0.970517 0.439310 0.273692
H15   H     H_    0.718969 0.061391 0.466822 0.262531
O16   O     O_3   0.413275 0.070686 0.512915 -0.645308
C68   C     C_3   0.376556 0.009520 0.527359 0.075863
H16   H     H_    0.381041 0.979642 0.594250 0.177756
H17   H     H_    0.376956 0.959366 0.475032 0.187280
C69   C     C_3   0.327213 0.053463 0.524484 -0.328638
H18   H     H_    0.326020 0.103613 0.576711 0.234218
H19   H     H_    0.322150 0.084143 0.457981 0.223882
C70   C     C_3   0.285882 0.990359 0.540568 -0.971755
H20   H     H_    0.285744 0.940589 0.487962 0.267950
H21   H     H_    0.250598 0.024263 0.538394 0.275435
H22   H     H_    0.289883 0.959737 0.607284 0.264452
O17   O     O_3   0.444310 0.935713 0.359901 -0.588832
C71   C     C_3   0.426820 0.999420 0.301773 -0.248527
H23   H     H_    0.455304 0.018804 0.253354 0.205627
H24   H     H_    0.412841 0.055927 0.338009 0.165259
H25   H     H_    0.396131 0.972721 0.262612 0.171791
O18   O     O_3   0.562728 0.062414 0.624741 -0.613809
C72   C     C_3   0.587944 0.997534 0.670310 -0.293957
H26   H     H_    0.619695 0.976554 0.630821 0.193575
H27   H     H_    0.564481 0.942044 0.687185 0.190600
H28   H     H_    0.601948 0.023742 0.734228 0.172180
O19   O     O_3   0.577736 0.409648 0.067586 -0.610655
C73   C     C_3   0.610029 0.384418 0.999511 -0.253405
H29   H     H_    0.634870 0.437292 0.981446 0.198432
H30   H     H_    0.591231 0.360623 0.938453 0.188529
H31   H     H_    0.632701 0.331728 0.025648 0.165964
O20   O     O_3   0.422236 0.588589 0.932604 -0.605970
C74   C     C_3   0.389827 0.613445 0.000649 -0.242208
H32   H     H_    0.408533 0.636969 0.061923 0.190065
H33   H     H_    0.364978 0.560458 0.018288 0.197174
H34   H     H_    0.367159 0.666218 0.974687 0.167108
O21   O     O_3   0.494340 0.335406 0.935653 -0.599887
C75   C     C_3   0.498046 0.274696 0.005104 -0.280064
H35   H     H_    0.476957 0.291973 0.065826 0.183379
H36   H     H_    0.536565 0.263997 0.023442 0.196007
H37   H     H_    0.483323 0.213388 0.980376 0.170382
O22   O     O_3   0.505662 0.662637 0.064779 -0.598357
C76   C     C_3   0.501795 0.723553 0.995602 -0.251798
H38   H     H_    0.463217 0.734396 0.977787 0.192144
H39   H     H_    0.522692 0.706392 0.934608 0.182562
H40   H     H_    0.516640 0.784744 0.020406 0.174319
O23   O     O_3   0.583655 0.572098 0.934017 -0.605182
C77   C     C_3   0.611964 0.609073 0.002554 -0.246834
H41   H     H_    0.613925 0.569225 0.064139 0.195826
H42   H     H_    0.598181 0.673146 0.019454 0.193915
H43   H     H_    0.649588 0.617098 0.977500 0.167618
O24   O     O_3   0.416351 0.426084 0.066258 -0.596142
C78   C     C_3   0.388043 0.388935 0.997822 -0.251735
H44   H     H_    0.401790 0.324782 0.981155 0.192139
H45   H     H_    0.386117 0.428595 0.936095 0.186430
H46   H     H_    0.350410 0.381041 0.022869 0.172397
O25   O     O_3   0.111009 0.258975 0.525886 -0.586476
C79   C     C_3   0.102422 0.198515 0.457301 0.178812
H47   H     H_    0.137253 0.186487 0.422174 0.148294
H48   H     H_    0.075627 0.219162 0.405390 0.107858
C80   C     C_3   0.084576 0.115421 0.499534 -0.303549
H49   H     H_    0.113625 0.088816 0.542980 0.217667
H50   H     H_    0.052311 0.128094 0.541900 0.259922
C81   C     C_3   0.070663 0.050189 0.428438 -0.983075
H51   H     H_    0.041619 0.075705 0.384275 0.275507
H52   H     H_    0.056709 0.991713 0.461408 0.279703
H53   H     H_    0.102804 0.033562 0.387333 0.263415
O26   O     O_3   0.887957 0.752799 0.526447 -0.585953
C82   C     C_3   0.895854 0.813155 0.457172 0.178172
H54   H     H_    0.860660 0.825214 0.422960 0.148185
H55   H     H_    0.922080 0.792372 0.404648 0.104846
C83   C     C_3   0.914208 0.896277 0.498209 -0.303760
H56   H     H_    0.885648 0.923035 0.542261 0.217972
H57   H     H_    0.946913 0.883622 0.539740 0.261026
C84   C     C_3   0.927410 0.961315 0.426170 -0.984698
H58   H     H_    0.955820 0.935513 0.381177 0.274954
H59   H     H_    0.941957 0.019680 0.458221 0.279844
H60   H     H_    0.894802 0.978188 0.386092 0.263472
O27   O     O_3   0.655853 0.438677 0.638316 -0.605380
C85   C     C_3   0.667310 0.351345 0.629500 0.146187
H61   H     H_    0.668620 0.323424 0.697863 0.159817
H62   H     H_    0.703590 0.339436 0.598979 0.166585
C86   C     C_3   0.627914 0.305283 0.575793 -0.389566
H63   H     H_    0.592386 0.313031 0.609817 0.255487
H64   H     H_    0.625348 0.333058 0.507517 0.202603
C87   C     C_3   0.639087 0.210953 0.567141 -0.915350
H65   H     H_    0.674048 0.201571 0.531623 0.249118
H66   H     H_    0.609778 0.180237 0.527900 0.278040
H67   H     H_    0.640997 0.180564 0.634257 0.288153
O28   O     O_3   0.345809 0.561957 0.639685 -0.606411
C88   C     C_3   0.335747 0.650158 0.635036 0.152481
H68   H     H_    0.327516 0.672191 0.703947 0.170034
H69   H     H_    0.303630 0.666953 0.592823 0.155628
C89   C     C_3   0.380372 0.698133 0.600774 -0.347923
H70   H     H_    0.412022 0.683738 0.644473 0.257562
H71   H     H_    0.388786 0.677107 0.531598 0.206340
C90   C     C_3   0.371849 0.793806 0.599993 -0.960177
H72   H     H_    0.340641 0.809819 0.555928 0.263130
H73   H     H_    0.404649 0.826425 0.573951 0.292839
H74   H     H_    0.364594 0.817071 0.668799 0.262914
O29   O     O_3   0.755836 0.470063 0.634994 -0.614144
C91   C     C_3   0.758975 0.531507 0.703189 -0.294160
H75   H     H_    0.722765 0.544120 0.733288 0.190348
H76   H     H_    0.775468 0.591674 0.678021 0.184340
H77   H     H_    0.782872 0.506703 0.757046 0.183886
O30   O     O_3   0.245089 0.539792 0.634128 -0.611494
C92   C     C_3   0.240474 0.477949 0.702006 -0.297819
H78   H     H_    0.276330 0.462456 0.732382 0.186760
H79   H     H_    0.222612 0.419246 0.676418 0.183802
H80   H     H_    0.217146 0.503925 0.755759 0.184340
O31   O     O_3   0.861932 0.300645 0.416740 -0.596853
C93   C     C_3   0.850525 0.257621 0.497661 0.177010
H81   H     H_    0.812356 0.235027 0.492346 0.184120
H82   H     H_    0.852214 0.298819 0.558477 0.113741
C94   C     C_3   0.883346 0.180193 0.510101 -0.359125
H83   H     H_    0.881854 0.140309 0.448885 0.245154
H84   H     H_    0.921360 0.201335 0.520698 0.277572
C95   C     C_3   0.867715 0.126991 0.590664 -1.000489
H85   H     H_    0.868095 0.166248 0.652362 0.267227
H86   H     H_    0.893308 0.073349 0.600021 0.275773
H87   H     H_    0.830642 0.100855 0.579925 0.273098
O32   O     O_3   0.137567 0.712461 0.420444 -0.597132
C96   C     C_3   0.148920 0.754222 0.501948 0.179380
H88   H     H_    0.187307 0.775845 0.497760 0.187093
H89   H     H_    0.146532 0.712428 0.562479 0.112252
C97   C     C_3   0.116713 0.832389 0.514027 -0.359937
H90   H     H_    0.118804 0.872831 0.453039 0.244934
H91   H     H_    0.078472 0.812136 0.523683 0.276496
C98   C     C_3   0.132470 0.884434 0.595148 -0.998879
H92   H     H_    0.131313 0.844703 0.656717 0.267479
H93   H     H_    0.107426 0.938870 0.603958 0.275084
H94   H     H_    0.169882 0.909401 0.585492 0.274962
O33   O     O_3   0.959461 0.291071 0.394748 -0.599321
C99   C     C_3   0.977683 0.305287 0.307404 0.068079
H95   H     H_    0.006358 0.257236 0.295205 0.156378
H96   H     H_    0.995379 0.368673 0.298916 0.113374
C100  C     C_3   0.937429 0.293274 0.237567 -0.311960
H97   H     H_    0.920238 0.229841 0.246868 0.244637
H98   H     H_    0.909191 0.342763 0.246581 0.227124
C101  C     C_3   0.957435 0.299895 0.142623 -0.985105
H99   H     H_    0.974202 0.363375 0.131582 0.264323
H100  H     H_    0.927434 0.291294 0.093675 0.271448
H101  H     H_    0.985043 0.249826 0.131031 0.265055
O34   O     O_3   0.040074 0.722804 0.397729 -0.598324
C102  C     C_3   0.021903 0.710082 0.310042 0.069529
H102  H     H_    0.993270 0.758396 0.298160 0.156719
H103  H     H_    0.004173 0.646881 0.300588 0.112881
C103  C     C_3   0.062213 0.723177 0.240759 -0.312352
H104  H     H_    0.079448 0.786404 0.251031 0.244791
H105  H     H_    0.090406 0.673469 0.249422 0.227466
C104  C     C_3   0.042268 0.718218 0.145547 -0.984857
H106  H     H_    0.025458 0.654975 0.133538 0.264251
H107  H     H_    0.072309 0.727574 0.097006 0.271761
H108  H     H_    0.014708 0.768549 0.134323 0.264977
O35   O     O_3   0.012636 0.281412 0.534179 -0.575647
C105  C     C_3   0.001825 0.297436 0.624784 -0.333796
H109  H     H_    0.979277 0.355546 0.632129 0.157993
H110  H     H_    0.035499 0.302802 0.665799 0.179139
H111  H     H_    0.980480 0.243106 0.651434 0.186286
O36   O     O_3   0.986306 0.730693 0.535596 -0.574575
C106  C     C_3   0.997205 0.713836 0.626177 -0.331090
H112  H     H_    0.019814 0.655723 0.633386 0.157031
H113  H     H_    0.963566 0.707983 0.666996 0.178811
H114  H     H_    0.018524 0.767971 0.653163 0.186024
O37   O     O_3   0.537860 0.041319 0.322878 -0.629385
C107  C     C_3   0.561090 0.121085 0.315012 0.079988
H115  H     H_    0.593260 0.112482 0.271263 0.155207
H116  H     H_    0.575486 0.146345 0.379299 0.115878
C108  C     C_3   0.526987 0.184567 0.269296 -0.390609
H117  H     H_    0.515146 0.158633 0.203593 0.215827
H118  H     H_    0.494086 0.194033 0.310839 0.225152
C109  C     C_3   0.552007 0.270043 0.253930 -0.839297
H119  H     H_    0.565256 0.296628 0.318333 0.268771
H120  H     H_    0.525860 0.315324 0.223552 0.269971
H121  H     H_    0.583197 0.262541 0.207619 0.264423
O38   O     O_3   0.467858 0.942378 0.652925 -0.652547
C110  C     C_3   0.460021 0.008926 0.714387 0.119362
H122  H     H_    0.440325 0.063257 0.683254 0.174870
H123  H     H_    0.495256 0.032145 0.741234 0.187502
C111  C     C_3   0.429685 0.975092 0.792296 -0.360776
H124  H     H_    0.394113 0.951987 0.766635 0.220873
H125  H     H_    0.448831 0.920795 0.824320 0.232019
C112  C     C_3   0.420957 0.043844 0.862277 -0.968595
H126  H     H_    0.456061 0.066811 0.890053 0.263638
H127  H     H_    0.398842 0.017292 0.917851 0.265294
H128  H     H_    0.401089 0.098193 0.832058 0.271881

loop_
_geom_bond_atom_site_label_1
_geom_bond_atom_site_label_2
_ccdc_geom_bond_type
C40   C47   S    
C103  H105  S    
O15   C65   S    
C12   C24   S    
C27   C29   S    
C8    C26   A    
C14   C18   A    
C110  H122  S    
C9    C51   A    
C63   H5    S    
C74   H34   S    
C10   C52   A    
C97   H90   S    
C85   H61   S    
C52   N2    A    
O37   C107  S    
C39   C41   S    
C39   O21   S    
C84   H58   S    
C27   C33   S    
C112  H128  S    
C20   O34   S    
C68   H17   S    
C101  H101  S    
C104  H106  S    
C73   H29   S    
C83   H57   S    
C67   H13   S    
O13   C63   S    
N4    Zn1   S    
C2    C32   S    
C79   H47   S    
C19   C21   A    
C63   H4    S    
C81   H51   S    
C96   C97   S    
C76   H39   S    
O35   C105  S    
C108  C109  S    
C9    C22   A    
C84   H60   S    
C83   H56   S    
C58   C60   A    
C102  H102  S    
C81   H53   S    
C66   H11   S    
C1    C31   S    
C109  H120  S    
C69   H18   S    
C3    C18   A    
C60   C62   A    
O38   C110  S    
C51   N1    A    
C78   H46   S    
C11   C23   S    
C88   H69   S    
C51   O12   S    
O16   C68   S    
C72   H28   S    
C105  H110  S    
C33   C35   S    
C101  H99   S    
O20   C74   S    
C53   C61   A    
C63   H3    S    
C98   H92   S    
C28   C35   S    
C87   H66   S    
C91   H75   S    
C102  H103  S    
C111  C112  S    
C45   O9    S    
C78   H44   S    
C80   H50   S    
C92   H78   S    
C32   C38   T    
C64   H7    S    
C52   O11   S    
C49   N3    T    
C77   H42   S    
O4    Zn1   S    
C30   C33   S    
C106  H112  S    
C90   H74   S    
C12   C58   A    
O14   C64   S    
C106  H114  S    
C40   C42   S    
C28   C34   S    
O29   C91   S    
C78   H45   S    
C84   H59   S    
C100  H98   S    
C109  H121  S    
C86   C87   S    
C23   O5    A    
C75   H37   S    
C2    O4    A    
O5    Zn1   S    
O32   C96   S    
C66   H12   S    
O23   C77   S    
C82   C83   S    
C81   H52   S    
C56   O27   S    
C53   C55   A    
C10   C21   A    
C86   H64   S    
C68   C69   S    
C101  H100  S    
C104  H107  S    
C53   O30   S    
C59   C61   A    
C62   N2    S    
C89   C90   S    
C14   C20   A    
O21   C75   S    
C110  C111  S    
O22   C76   S    
C47   C49   S    
C57   O13   S    
C76   H40   S    
C82   H54   S    
C5    C7    A    
C25   O35   S    
C107  H115  S    
C15   C26   A    
C39   C43   S    
C90   H72   S    
C54   C62   A    
C65   C66   S    
C3    C5    A    
C34   O17   S    
C86   H63   S    
C5    C45   A    
C29   C34   S    
C67   H15   S    
C1    O1    A    
C54   O29   S    
C31   C37   T    
C82   H55   S    
C97   H91   S    
O28   C88   S    
C89   H71   S    
C88   C89   S    
C96   H88   S    
C3    C9    A    
C41   O19   S    
C77   H43   S    
C28   O16   S    
C85   H62   S    
C80   H49   S    
C26   O36   S    
C94   H83   S    
C100  H97   S    
C102  C103  S    
C41   C44   S    
C99   H96   S    
O31   C93   S    
C41   C47   S    
C80   C81   S    
C65   H9    S    
C70   H21   S    
C16   C18   A    
C42   C48   S    
C55   O28   S    
C95   H85   S    
C64   H8    S    
C65   H10   S    
C72   H26   S    
C12   C56   A    
C43   O24   S    
C8    O26   S    
C33   O18   S    
C87   H67   S    
C4    C17   A    
C4    C6    A    
C98   H93   S    
C67   H14   S    
C20   C22   A    
C30   O38   S    
C43   C47   S    
C93   H82   S    
C7    C25   A    
C45   N1    A    
O26   C82   S    
C100  C101  S    
C111  H125  S    
C27   O15   S    
C57   C59   A    
C42   C43   S    
C4    C10   A    
C74   H32   S    
C97   C98   S    
O25   C79   S    
C66   C67   S    
C11   C55   A    
O18   C72   S    
C75   H36   S    
C46   O10   S    
C77   H41   S    
O6    Zn2   S    
C92   H80   S    
C42   O20   S    
C16   C25   A    
C15   C17   A    
C22   O32   S    
C103  H104  S    
C104  H108  S    
C73   H30   S    
C6    C46   A    
C70   H20   S    
C35   C37   S    
C73   H31   S    
C79   C80   S    
C24   O8    A    
C14   C15   A    
C23   O7    A    
C75   H35   S    
C74   H33   S    
C95   H86   S    
C58   O14   S    
O8    Zn1   S    
C6    C8    A    
C108  H117  S    
C69   C70   S    
C54   C56   A    
C46   N2    A    
C94   C95   S    
C30   C36   S    
C27   C36   S    
C112  H127  S    
C93   C94   S    
C68   H16   S    
C29   C35   S    
C59   H1    S    
C105  H111  S    
C71   H25   S    
C13   C17   A    
C60   H2    S    
C95   H87   S    
C89   H70   S    
C110  H123  S    
C105  H109  S    
C79   H48   S    
O36   C106  S    
C112  H126  S    
C94   H84   S    
C28   C30   S    
C96   H89   S    
C106  H113  S    
C2    O2    A    
C76   H38   S    
C36   C38   S    
C108  H118  S    
C24   O6    A    
O17   C71   S    
O19   C73   S    
C69   H19   S    
C19   O33   S    
C1    O3    A    
C107  C108  S    
O34   C102  S    
C48   C50   S    
O3    Zn2   S    
C29   O37   S    
C71   H24   S    
C71   H23   S    
C40   O22   S    
C70   H22   S    
C34   C36   S    
C99   C100  S    
C88   H68   S    
O2    Zn2   S    
C72   H27   S    
C85   C86   S    
O1    Zn1   S    
O27   C85   S    
C44   O23   S    
C61   N1    S    
C40   C44   S    
C98   H94   S    
C7    O25   S    
O30   C92   S    
N3    Zn2   S    
C107  H116  S    
C93   H81   S    
O7    Zn2   S    
C13   C16   A    
O33   C99   S    
C13   C19   A    
C111  H124  S    
C39   C48   S    
C87   H65   S    
C21   O31   S    
C91   H77   S    
C64   H6    S    
C11   C57   A    
C92   H79   S    
C50   N4    T    
C103  C104  S    
C91   H76   S    
C109  H119  S    
C44   C48   S    
C99   H95   S    
O24   C78   S    
C90   H73   S    
C83   C84   S    
