data_mof_unit_3463.cif
_audit_creation_date              2013-03-05T16:41:02-0500
_audit_creation_method            fapswitch 2.2
_symmetry_space_group_name_H-M    P1
_symmetry_Int_Tables_number       1
_space_group_crystal_system       triclinic
_cell_length_a                    18.620217
_cell_length_b                    18.639509
_cell_length_c                    18.850193
_cell_angle_alpha                 109.634932
_cell_angle_beta                  109.479811
_cell_angle_gamma                 109.012727
_cell_volume                      5053.90652439

loop_
_atom_site_label
_atom_site_type_symbol
_atom_site_description
_atom_site_fract_x
_atom_site_fract_y
_atom_site_fract_z
_atom_type_partial_charge
O1    O     O_R   0.408360 0.551710 0.460090 -0.630204
O2    O     O_R   0.408400 0.448280 0.356670 -0.619789
C1    C     C_R   0.382017 0.503144 0.380582 0.866218
O3    O     O_R   0.591600 0.643340 0.551710 -0.620780
O4    O     O_R   0.591630 0.539900 0.448290 -0.619990
C2    C     C_R   0.621894 0.620716 0.502080 0.874315
Zn1   Zn    Zn3+2 0.499980 0.569060 0.569060 1.039390
Zn2   Zn    Zn3+2 0.500020 0.430940 0.430940 0.974613
O5    O     O_R   0.591600 0.551720 0.643330 -0.583892
O6    O     O_R   0.591640 0.448290 0.539910 -0.629909
O7    O     O_R   0.408370 0.460100 0.551710 -0.600183
O8    O     O_R   0.408400 0.356660 0.448290 -0.624920
C3    C     C_R   0.615610 0.495537 0.619594 0.872723
C4    C     C_R   0.378239 0.379893 0.498474 0.853687
H1    H     H_    0.817924 0.902213 0.906709 0.189991
C5    C     C_R   0.728687 0.854630 0.773231 -0.105901
H2    H     H_    0.684234 0.874142 0.787675 0.148701
C6    C     C_R   0.711962 0.815806 0.687736 -0.108570
H3    H     H_    0.655895 0.808627 0.637319 0.136914
C7    C     C_R   0.768809 0.789313 0.668043 0.113006
C8    C     C_R   0.844595 0.805918 0.736232 -0.156938
H4    H     H_    0.891352 0.789669 0.723254 0.151149
C9    C     C_R   0.862748 0.847889 0.822024 -0.118452
H5    H     H_    0.922784 0.863597 0.874542 0.167758
C10   C     C_R   0.804253 0.870991 0.840380 -0.028545
C11   C     C_R   0.824373 0.820107 0.575321 -0.248309
H6    H     H_    0.880985 0.877440 0.634596 0.159781
C12   C     C_R   0.813267 0.809560 0.495049 -0.066535
C13   C     C_R   0.736853 0.739926 0.416982 -0.006378
C14   C     C_R   0.676012 0.677746 0.421915 -0.247061
H7    H     H_    0.618257 0.621802 0.362576 0.157117
C15   C     C_R   0.687216 0.688367 0.502505 -0.078546
C16   C     C_R   0.759678 0.762985 0.580570 -0.023645
C17   C     C_R   0.638516 0.723488 0.277131 -0.162431
H8    H     H_    0.592579 0.726404 0.299717 0.124766
C18   C     C_R   0.618912 0.713437 0.194874 -0.132410
H9    H     H_    0.558578 0.708911 0.154738 0.137393
C19   C     C_R   0.677110 0.709163 0.164393 -0.094435
H10   H     H_    0.661701 0.700965 0.100543 0.168802
C20   C     C_R   0.755210 0.715440 0.216356 -0.110891
H11   H     H_    0.799973 0.711674 0.192490 0.143564
C21   C     C_R   0.775478 0.726497 0.299040 -0.096889
H12   H     H_    0.836394 0.732206 0.338806 0.086251
C22   C     C_R   0.717320 0.730510 0.330188 0.127201
H13   H     H_    0.489646 0.907287 0.597449 0.176638
C23   C     C_R   0.413471 0.770441 0.549556 -0.186456
H14   H     H_    0.409737 0.780869 0.607985 0.151512
C24   C     C_R   0.369022 0.685817 0.479074 -0.046725
H15   H     H_    0.328407 0.632375 0.483045 0.151130
C25   C     C_R   0.374278 0.670804 0.403207 0.099839
C26   C     C_R   0.420225 0.743428 0.397397 -0.250563
H16   H     H_    0.420667 0.732788 0.337417 0.173160
C27   C     C_R   0.460228 0.829326 0.466050 0.026430
C28   C     C_R   0.458801 0.841981 0.543250 -0.192706
C29   C     C_R   0.253414 0.577148 0.253303 -0.158677
H17   H     H_    0.253610 0.636464 0.256460 0.183522
C30   C     C_R   0.186004 0.496044 0.182255 -0.065066
C31   C     C_R   0.179760 0.417415 0.178759 0.011685
C32   C     C_R   0.247210 0.422924 0.244549 -0.260205
H18   H     H_    0.245458 0.363105 0.241395 0.163559
C33   C     C_R   0.314822 0.504236 0.316146 -0.099613
C34   C     C_R   0.315694 0.582783 0.323639 -0.017384
C35   C     C_R   0.059204 0.273229 0.133850 -0.222174
H19   H     H_    0.080140 0.295601 0.201934 0.171665
C36   C     C_R   0.987295 0.189389 0.070364 0.366790
C37   C     C_R   0.960918 0.161791 0.982330 -0.203853
H20   H     H_    0.906102 0.097467 0.931950 0.169573
C38   C     C_R   0.005283 0.217132 0.958522 -0.174231
H21   H     H_    0.984584 0.195287 0.890623 0.162125
C39   C     C_R   0.076067 0.300580 0.022033 -0.115579
H22   H     H_    0.109039 0.343019 0.002702 0.106268
C40   C     C_R   0.103697 0.329364 0.110162 0.071388
H23   H     H_    0.161497 0.568794 0.478268 0.164600
C41   C     C_R   0.192544 0.509781 0.556246 -0.126924
H24   H     H_    0.186054 0.550845 0.607376 0.136248
C42   C     C_R   0.213727 0.445939 0.562553 -0.096586
H25   H     H_    0.222521 0.437517 0.618372 0.168837
C43   C     C_R   0.222663 0.392676 0.496630 0.121420
C44   C     C_R   0.208668 0.403267 0.423683 -0.119736
H26   H     H_    0.213336 0.361523 0.371306 0.113327
C45   C     C_R   0.186167 0.466300 0.417024 -0.123638
H27   H     H_    0.174253 0.473555 0.360272 0.168321
C46   C     C_R   0.178562 0.519810 0.483429 -0.111756
C47   C     C_R   0.178080 0.255493 0.501373 -0.218664
H28   H     H_    0.122409 0.260325 0.504096 0.154445
C48   C     C_R   0.186563 0.182557 0.496649 -0.055994
C49   C     C_R   0.257414 0.173813 0.491494 0.020123
C50   C     C_R   0.319925 0.240947 0.493195 -0.241531
H29   H     H_    0.375175 0.235955 0.489483 0.156102
C51   C     C_R   0.311143 0.313548 0.497420 -0.073038
C52   C     C_R   0.239371 0.321225 0.500583 0.008728
C53   C     C_R   0.345528 0.102542 0.530937 -0.078570
H30   H     H_    0.399205 0.165896 0.584200 0.156137
C54   C     C_R   0.357472 0.029588 0.513749 -0.094441
H31   H     H_    0.418898 0.036628 0.555073 0.176002
C55   C     C_R   0.291134 0.948141 0.441885 -0.135430
H32   H     H_    0.300988 0.891934 0.427575 0.148881
C56   C     C_R   0.212595 0.939533 0.387636 -0.130707
H33   H     H_    0.162731 0.876891 0.330594 0.155477
C57   C     C_R   0.199394 0.011946 0.405881 -0.129959
H34   H     H_    0.138845 0.004472 0.362017 0.120572
C58   C     C_R   0.265908 0.094332 0.478023 0.109221
H35   H     H_    0.359327 0.366520 0.747537 0.212521
C59   C     C_R   0.460828 0.470538 0.754135 0.294511
C60   C     C_R   0.540736 0.498832 0.754433 -0.118172
H36   H     H_    0.574165 0.564019 0.765410 0.255069
C61   C     C_R   0.578824 0.444980 0.744211 -0.051034
C62   C     C_R   0.537837 0.363450 0.738246 -0.278453
H37   H     H_    0.567856 0.322383 0.732537 0.191049
C63   C     C_R   0.459345 0.335164 0.740778 0.312777
C64   C     C_R   0.420335 0.388314 0.746691 -0.273695
C65   C     C_R   0.733000 0.478302 0.810550 -0.208713
H38   H     H_    0.723982 0.466719 0.860436 0.174745
C66   C     C_R   0.811899 0.495678 0.810162 -0.102816
C67   C     C_R   0.823865 0.508443 0.744482 -0.002546
C68   C     C_R   0.757973 0.509611 0.683682 -0.236240
H39   H     H_    0.766271 0.520563 0.633211 0.147978
C69   C     C_R   0.680063 0.493752 0.685133 -0.032891
C70   C     C_R   0.665170 0.475219 0.747231 0.087630
C71   C     C_R   0.949886 0.583801 0.726723 -0.137912
H40   H     H_    0.934286 0.635843 0.732330 0.159648
C72   C     C_R   0.019733 0.586876 0.712697 -0.119772
H41   H     H_    0.058145 0.641420 0.708410 0.127071
C73   C     C_R   0.039426 0.519160 0.703326 -0.122296
H42   H     H_    0.093206 0.521352 0.692006 0.128109
C74   C     C_R   0.989155 0.448176 0.707746 -0.133905
H43   H     H_    0.003646 0.395157 0.699236 0.138393
C75   C     C_R   0.919829 0.445287 0.722616 -0.099023
H44   H     H_    0.880832 0.389381 0.724908 0.106070
C76   C     C_R   0.900118 0.513560 0.733011 0.128435
O9    O     O_R   0.051730 0.908360 0.460060 -0.616203
O10   O     O_R   0.948280 0.908380 0.356650 -0.622737
C77   C     C_R   0.998033 0.877207 0.380319 0.874090
O11   O     O_R   0.960110 0.908350 0.551690 -0.626380
O12   O     O_R   0.856660 0.908370 0.448270 -0.609079
C78   C     C_R   0.879756 0.877054 0.496851 0.859964
Zn3   Zn    Zn3+2 0.069070 0.999960 0.569030 1.026585
Zn4   Zn    Zn3+2 0.930930 0.999990 0.430930 0.992961
O13   O     O_R   0.051720 0.091580 0.643310 -0.610619
O14   O     O_R   0.948270 0.091600 0.539890 -0.623803
O15   O     O_R   0.143340 0.091590 0.551680 -0.574687
O16   O     O_R   0.039890 0.091610 0.448270 -0.618506
C79   C     C_R   0.998812 0.119257 0.619567 0.878163
C80   C     C_R   0.120295 0.117579 0.497704 0.863001
O17   O     O_R   0.051730 0.460050 0.908360 -0.624103
O18   O     O_R   0.948290 0.356630 0.908390 -0.622822
C81   C     C_R   0.001587 0.379875 0.881089 0.844807
O19   O     O_R   0.143340 0.551690 0.091580 -0.628987
O20   O     O_R   0.039900 0.448270 0.091610 -0.583129
C82   C     C_R   0.119967 0.497048 0.117154 0.913758
Zn5   Zn    Zn3+2 0.069070 0.569030 0.999960 1.009864
Zn6   Zn    Zn3+2 0.930930 0.430930 0.000000 1.033885
O21   O     O_R   0.051710 0.643320 0.091560 -0.624557
O22   O     O_R   0.948270 0.539900 0.091590 -0.591376
O23   O     O_R   0.960100 0.551680 0.908340 -0.608212
O24   O     O_R   0.856660 0.448270 0.908370 -0.629059
C83   C     C_R   0.000098 0.620056 0.119926 0.956860
C84   C     C_R   0.879514 0.498713 0.878554 0.859985
H45   H     H_    0.098500 0.746837 0.631860 0.125490
C85   C     C_R   0.148430 0.792296 0.558316 -0.145950
H46   H     H_    0.216136 0.827589 0.609218 0.139458
C86   C     C_R   0.127376 0.792195 0.479798 -0.062798
H47   H     H_    0.179202 0.827408 0.470526 0.130500
C87   C     C_R   0.039621 0.747012 0.413736 0.181844
C88   C     C_R   0.973552 0.699844 0.426264 -0.098960
H48   H     H_    0.906088 0.661182 0.374654 0.125143
C89   C     C_R   0.994781 0.700357 0.504986 -0.115937
H49   H     H_    0.943587 0.664165 0.514482 0.135159
C90   C     C_R   0.082138 0.746758 0.571072 -0.122792
C91   C     C_R   0.019940 0.684957 0.265507 0.267405
C92   C     C_R   0.001877 0.686241 0.187465 -0.199765
C93   C     C_R   0.980724 0.747462 0.172491 -0.018026
C94   C     C_R   0.977671 0.807710 0.236413 -0.262746
H50   H     H_    0.961853 0.855437 0.225251 0.190777
C95   C     C_R   0.997020 0.808614 0.315011 -0.151557
C96   C     C_R   0.017622 0.746691 0.330329 -0.137935
C97   C     C_R   0.018193 0.771276 0.063476 -0.144331
H51   H     H_    0.086311 0.796017 0.107973 0.183560
C98   C     C_R   0.992811 0.762517 0.980704 -0.029951
C99   C     C_R   0.904341 0.731632 0.924837 -0.287066
H52   H     H_    0.883625 0.722061 0.860002 0.207002
C100  C     C_R   0.842416 0.713479 0.952360 0.360475
C101  C     C_R   0.868444 0.719185 0.033875 -0.244155
H53   H     H_    0.820972 0.702357 0.054908 0.176148
C102  C     C_R   0.955623 0.745993 0.088602 0.029775
H54   H     H_    0.400118 0.597882 0.064361 0.123670
C103  C     C_R   0.281632 0.550587 0.948619 -0.081949
H55   H     H_    0.303780 0.611656 0.948041 0.144503
C104  C     C_R   0.198656 0.479516 0.883778 -0.063078
H56   H     H_    0.157432 0.486195 0.833129 0.129515
C105  C     C_R   0.168993 0.400556 0.884980 0.104874
C106  C     C_R   0.225341 0.392206 0.949056 -0.181227
H57   H     H_    0.205095 0.330594 0.948732 0.142651
C107  C     C_R   0.308138 0.463491 0.014015 -0.118909
H58   H     H_    0.350804 0.457134 0.064054 0.143400
C108  C     C_R   0.336061 0.542779 0.014069 -0.095075
C109  C     C_R   0.078172 0.258707 0.750625 -0.234155
H59   H     H_    0.138220 0.265003 0.750580 0.172961
C110  C     C_R   0.997929 0.185198 0.684743 -0.080421
C111  C     C_R   0.919072 0.174877 0.682902 -0.009638
C112  C     C_R   0.922144 0.239652 0.749052 -0.259173
H60   H     H_    0.861788 0.232368 0.748736 0.172086
C113  C     C_R   0.002550 0.314222 0.814935 -0.097383
C114  C     C_R   0.081639 0.324600 0.815891 -0.012753
C115  C     C_R   0.788656 0.087424 0.534008 -0.089500
H61   H     H_    0.811918 0.141987 0.523247 0.127939
C116  C     C_R   0.715452 0.007554 0.465458 -0.090006
H62   H     H_    0.681771 0.000869 0.402484 0.127160
C117  C     C_R   0.686631 0.935907 0.477835 -0.055187
H63   H     H_    0.630920 0.873630 0.424464 0.134032
C118  C     C_R   0.729094 0.944786 0.559384 -0.124542
H64   H     H_    0.705248 0.889698 0.568972 0.135074
C119  C     C_R   0.803498 0.023892 0.627643 -0.163572
H65   H     H_    0.838141 0.028900 0.689594 0.129727
C120  C     C_R   0.834391 0.095234 0.614800 0.108094
C121  C     C_2   0.497972 0.905300 0.454814 0.865634
O25   O     O_2   0.539604 0.979814 0.516669 -0.638788
O26   O     O_R   0.484873 0.892015 0.372915 -0.826351
H66   H     H_    0.513097 0.948889 0.373374 0.346897
N1    N     N_R   0.941294 0.132963 0.095239 0.209306
O27   O     O_R   0.969031 0.156164 0.176778 -0.386498
O28   O     O_R   0.870468 0.058414 0.036660 -0.416611
N2    N     N_R   0.422173 0.526155 0.763727 0.216089
O29   O     O_R   0.357005 0.507381 0.778751 -0.434202
O30   O     O_R   0.452393 0.596619 0.758486 -0.379207
N3    N     N_R   0.420580 0.253909 0.739673 0.204092
O31   O     O_R   0.341795 0.220930 0.728537 -0.391285
O32   O     O_R   0.464532 0.213218 0.751923 -0.406791
N4    N     N_R   0.043359 0.622784 0.279738 0.205880
O33   O     O_R   0.112649 0.622367 0.278653 -0.451064
O34   O     O_R   0.996870 0.568052 0.295898 -0.385101
C122  C     C_2   0.058376 0.785810 0.952628 0.924787
O35   O     O_2   0.133058 0.802365 0.996679 -0.630393
O36   O     O_R   0.035175 0.789539 0.875877 -0.859179
H67   H     H_    0.085355 0.805743 0.863485 0.341953
N5    N     N_R   0.753867 0.690529 0.898409 0.195833
O37   O     O_R   0.729944 0.687003 0.823580 -0.415248
O38   O     O_R   0.698348 0.679824 0.926605 -0.417101

loop_
_geom_bond_atom_site_label_1
_geom_bond_atom_site_label_2
_geom_bond_distance
_ccdc_geom_bond_type
O12   Zn4   2.018310 S    
C107  C108  1.397324 A    
C49   C50   1.385946 A    
C35   C36   1.406494 A    
C74   H43   1.082238 S    
C103  C108  1.397593 A    
C112  H60   1.084926 S    
C53   H30   1.080001 S    
C2    C15   1.434207 S    
N2    O29   1.301635 A    
O19   Zn5   2.018192 S    
C41   C46   1.397361 A    
C29   H17   1.085804 S    
C75   H44   1.083149 S    
O11   Zn3   2.015994 S    
C65   C66   1.400713 A    
C66   C67   1.409428 A    
O26   H66   1.013837 S    
C85   C90   1.397999 A    
C48   C80   1.431337 S    
O12   C78   1.274523 A    
C89   C90   1.397692 A    
C91   C96   1.393418 A    
C27   C28   1.404720 A    
C62   H37   1.083274 S    
C36   C37   1.406317 A    
Zn1   O7    2.016380 S    
Zn3   O13   2.008854 S    
C11   H6    1.086124 S    
C88   H48   1.080608 S    
C41   C42   1.398349 A    
C71   C76   1.404980 A    
H54   C108  1.081467 S    
C12   C13   1.411130 A    
C19   C20   1.396447 A    
C42   C43   1.404973 A    
C6    H3    1.082953 S    
O1    C1    1.270780 A    
C101  C102  1.398983 A    
O4    C2    1.286139 A    
O7    C4    1.275385 A    
H23   C46   1.082666 S    
H1    C10   1.081185 S    
C5    H2    1.082336 S    
C91   C92   1.405967 A    
O10   Zn4   2.008728 S    
C67   C68   1.384080 A    
C91   N4    1.437098 S    
C111  C120  1.477187 S    
C97   C102  1.401465 A    
C68   H39   1.085695 S    
C109  C114  1.380620 A    
H35   C64   1.082371 S    
C17   H8    1.083277 S    
C109  C110  1.391798 A    
O5    C3    1.272902 A    
C69   C70   1.411488 A    
C4    C51   1.432070 S    
O17   C81   1.274284 A    
C100  C101  1.402551 A    
O13   C79   1.276399 A    
C66   C84   1.439574 S    
Zn6   O24   2.018319 S    
C68   C69   1.394680 A    
C111  C112  1.382579 A    
C97   C98   1.403976 A    
C55   C56   1.396255 A    
C18   H9    1.081707 S    
C61   C62   1.405967 A    
O14   C79   1.275958 A    
C39   H22   1.077935 S    
C115  H61   1.083216 S    
C47   C52   1.384328 A    
Zn5   O23   2.015999 S    
C59   N2    1.439576 S    
C17   C18   1.398323 A    
C53   C58   1.406973 A    
C1    C33   1.435564 S    
C107  H58   1.082383 S    
C110  C111  1.404172 A    
C88   C89   1.398284 A    
O1    Zn1   2.022678 S    
C8    H4    1.083356 S    
C30   C82   1.429093 S    
O23   C84   1.281359 A    
C112  C113  1.399907 A    
C109  H59   1.085881 S    
C21   C22   1.403680 A    
O3    Zn1   2.017858 S    
C61   C70   1.494270 S    
C65   H38   1.085003 S    
C45   C46   1.397488 A    
N4    O33   1.299642 A    
C99   C100  1.405690 A    
C45   H27   1.081863 S    
C86   C87   1.404079 A    
C42   H25   1.082324 S    
C119  C120  1.403088 A    
C8    C9    1.398020 A    
C117  H63   1.081774 S    
C23   C24   1.394924 A    
C32   C33   1.397275 A    
C41   H24   1.082395 S    
C26   H16   1.083667 S    
C3    C69   1.425644 S    
C17   C22   1.406641 A    
C47   H28   1.085593 S    
O22   C83   1.276445 A    
O3    C2    1.270061 A    
N5    O37   1.300735 A    
C63   N3    1.439381 S    
O20   Zn6   2.015997 S    
C63   C64   1.403617 A    
C44   C45   1.398730 A    
C48   C49   1.411166 A    
O10   C77   1.282250 A    
O11   C78   1.281425 A    
C31   C32   1.384738 A    
C94   H50   1.085174 S    
C116  H62   1.082189 S    
C26   C27   1.407349 A    
C59   C64   1.403255 A    
C106  C107  1.398031 A    
C101  H53   1.083330 S    
C13   C14   1.386556 A    
O9    Zn3   2.019960 S    
C36   N1    1.439461 S    
C49   C58   1.486922 S    
C60   C61   1.404519 A    
O36   H67   1.013862 S    
C11   C16   1.381745 A    
C20   C21   1.398320 A    
C118  H64   1.079524 S    
C119  H65   1.083352 S    
C93   C102  1.479671 S    
Zn2   O8    2.017861 S    
C121  O25   1.223448 D    
C55   H32   1.082782 S    
C23   C28   1.394555 A    
C53   C54   1.397358 A    
C25   C26   1.408507 A    
C30   C31   1.408845 A    
C104  H56   1.081478 S    
N3    O31   1.301669 A    
C5    C6    1.397352 A    
C35   C40   1.405862 A    
C54   C55   1.394873 A    
C24   C25   1.405473 A    
C77   C95   1.435825 S    
C92   C93   1.404347 A    
O17   Zn5   2.013859 S    
C94   C95   1.395863 A    
Zn4   O14   2.019920 S    
O18   Zn6   2.015260 S    
C7    C16   1.484379 S    
C29   C34   1.383941 A    
C20   H11   1.081210 S    
C118  C119  1.397913 A    
C57   C58   1.405505 A    
C50   C51   1.394558 A    
H13   C28   1.082924 S    
C97   H51   1.083670 S    
C27   C121  1.482086 S    
N3    O32   1.301708 A    
C29   C30   1.391514 A    
C13   C22   1.486076 S    
Zn4   O16   2.016084 S    
C25   C34   1.490053 S    
O16   C80   1.279976 A    
C44   H26   1.082966 S    
O15   C80   1.276513 A    
O4    Zn2   2.016376 S    
C21   H12   1.077265 S    
C72   C73   1.397745 A    
C18   C19   1.396973 A    
C7    C8    1.406290 A    
C89   H49   1.082497 S    
C93   C94   1.376282 A    
C71   C72   1.398437 A    
C73   C74   1.397470 A    
O18   C81   1.283645 A    
Zn6   O22   2.013646 S    
C5    C10   1.395763 A    
Zn1   O5    2.011292 S    
Zn3   O15   2.018564 S    
C23   H14   1.082451 S    
C87   C88   1.403834 A    
C74   C75   1.397855 A    
H45   C90   1.082400 S    
C122  O36   1.398183 S    
C12   C78   1.430038 S    
C11   C12   1.391375 A    
C38   H21   1.082130 S    
C85   C86   1.398200 A    
O2    Zn2   2.011291 S    
O19   C82   1.280711 A    
C35   H19   1.083385 S    
O9    C77   1.276348 A    
O6    C3    1.280127 A    
C75   C76   1.406132 A    
C59   C60   1.404694 A    
C65   C70   1.387193 A    
N2    O30   1.301609 A    
C37   C38   1.396817 A    
C100  N5    1.437197 S    
C43   C52   1.482328 S    
C86   H47   1.081437 S    
C79   C110  1.425555 S    
C60   H36   1.076562 S    
C56   C57   1.400403 A    
N1    O28   1.301151 A    
C106  H57   1.082913 S    
C81   C113  1.434053 S    
O2    C1    1.286672 A    
C72   H41   1.082454 S    
C103  H55   1.082305 S    
N4    O34   1.300865 A    
C95   C96   1.414681 A    
O20   C82   1.274761 A    
C15   C16   1.413493 A    
C14   C15   1.396464 A    
C43   C44   1.405208 A    
C14   H7    1.085454 S    
C31   C40   1.486392 S    
C51   C52   1.407833 A    
C19   H10   1.082500 S    
C62   C63   1.406320 A    
C24   H15   1.080200 S    
O24   C84   1.278662 A    
C57   H34   1.082913 S    
C117  C118  1.395955 A    
N5    O38   1.301652 A    
N1    O27   1.301731 A    
C87   C96   1.484026 S    
C6    C7    1.407663 A    
Zn5   O21   2.015047 S    
O21   C83   1.274580 A    
C33   C34   1.416959 A    
C105  C106  1.404078 A    
C85   H46   1.082334 S    
C103  C104  1.398117 A    
C9    H5    1.081340 S    
C98   C99   1.404195 A    
O8    C4    1.278787 A    
C32   H18   1.085482 S    
C9    C10   1.395810 A    
C50   H29   1.085325 S    
C115  C120  1.403929 A    
Zn2   O6    2.022682 S    
C56   H33   1.079640 S    
C105  C114  1.481151 S    
C37   H20   1.082662 S    
C116  C117  1.397094 A    
C38   C39   1.396496 A    
C71   H40   1.082448 S    
C47   C48   1.396060 A    
C39   C40   1.401216 A    
C113  C114  1.414507 A    
C104  C105  1.404575 A    
C98   C122  1.482912 S    
C115  C116  1.397959 A    
C54   H31   1.082364 S    
C83   C92   1.426021 S    
C99   H52   1.080968 S    
C121  O26   1.398851 S    
C122  O35   1.223340 D    
C73   H42   1.082454 S    
C67   C76   1.484002 S    
