data_mof_unit_3851.cif
_audit_creation_date              2013-03-05T16:12:05-0500
_audit_creation_method            fapswitch 2.2
_symmetry_space_group_name_H-M    P1
_symmetry_Int_Tables_number       1
_space_group_crystal_system       triclinic
_cell_length_a                    9.864458
_cell_length_b                    10.700448
_cell_length_c                    16.393072
_cell_angle_alpha                 89.543376
_cell_angle_beta                  83.496333
_cell_angle_gamma                 89.640906
_cell_volume                      1719.14110792

loop_
_atom_site_label
_atom_site_type_symbol
_atom_site_description
_atom_site_fract_x
_atom_site_fract_y
_atom_site_fract_z
_atom_type_partial_charge
O1    O     O_R   0.385380 0.683250 0.500010 -0.547869
O2    O     O_R   0.614620 0.316750 0.499990 -0.567826
O3    O     O_R   0.614710 0.683220 0.500000 -0.595338
O4    O     O_R   0.385290 0.316780 0.500000 -0.602967
C1    C     C_R   0.499771 0.739838 0.499534 1.004649
C2    C     C_R   0.500431 0.260400 0.499814 0.987133
O5    O     O_R   0.371780 0.500040 0.615800 -0.599794
O6    O     O_R   0.628220 0.499960 0.384200 -0.588284
O7    O     O_R   0.601110 0.500010 0.615800 -0.566154
O8    O     O_R   0.398890 0.499990 0.384200 -0.574466
C3    C     C_R   0.478859 0.496496 0.654424 0.979768
C4    C     C_R   0.520710 0.495374 0.345857 0.948142
Zn1   Zn    Zn3+2 0.346870 0.500020 0.500000 1.087993
Zn2   Zn    Zn3+2 0.653130 0.499980 0.500000 1.091112
C5    C     C_R   0.459957 0.458910 0.740866 -0.175589
C6    C     C_R   0.536374 0.452730 0.261159 -0.194476
C7    C     C_R   0.545162 0.501345 0.797601 0.439479
C8    C     C_R   0.470270 0.512737 0.200487 0.423409
C9    C     C_R   0.531121 0.451690 0.876707 -0.204674
C10   C     C_R   0.478087 0.461528 0.122581 -0.206074
C11   C     C_R   0.438877 0.353983 0.899145 -0.080832
C12   C     C_R   0.541931 0.345106 0.105593 -0.086888
C13   C     C_R   0.353864 0.311422 0.842202 0.510204
C14   C     C_R   0.605739 0.283512 0.166973 0.522043
C15   C     C_R   0.362676 0.366018 0.764412 -0.203328
C16   C     C_R   0.604182 0.338591 0.243850 -0.201352
C17   C     C_2   0.427382 0.304975 0.984405 0.199261
C18   C     C_2   0.542433 0.293007 0.022191 0.197247
H1    H     H_    0.648489 0.288128 0.291854 0.227294
H2    H     H_    0.298799 0.330082 0.720419 0.205094
H3    H     H_    0.430667 0.511545 0.075459 0.201300
H4    H     H_    0.593861 0.489012 0.920795 0.200886
C19   C     C_R   0.567835 0.934406 0.557939 0.317604
C20   C     C_R   0.435190 0.066590 0.440199 0.313710
C21   C     C_R   0.571118 0.063461 0.556890 0.221228
C22   C     C_R   0.435122 0.937469 0.439941 0.214279
C23   C     C_R   0.501485 0.128222 0.499365 -0.343415
C24   C     C_R   0.499365 0.872449 0.499746 -0.350896
C25   C     C_R   0.939400 0.422283 0.449338 0.457642
C26   C     C_R   0.060788 0.577215 0.551091 0.453944
C27   C     C_R   0.082744 0.422820 0.449355 -0.115019
C28   C     C_R   0.917354 0.577140 0.550761 -0.114825
H5    H     H_    0.145885 0.361253 0.408904 0.228856
H6    H     H_    0.854259 0.638587 0.591321 0.240331
N1    N     N_R   0.142790 0.500030 0.500020 -0.153078
N2    N     N_R   0.857210 0.499970 0.499980 -0.152348
Cl1   Cl    Cl    0.669786 0.616557 0.772852 -0.414751
Cl2   Cl    Cl    0.372790 0.649174 0.219946 -0.389685
N3    N     N_R   0.671428 0.262721 0.975653 0.235084
O9    O     O_R   0.784942 0.305129 0.997849 -0.254004
O10   O     O_R   0.676081 0.189293 0.912455 -0.245784
N4    N     N_R   0.294989 0.304445 0.032151 0.236175
O11   O     O_R   0.196474 0.374658 0.010849 -0.268460
O12   O     O_R   0.272132 0.232426 0.096551 -0.246915
Cl3   Cl    Cl    0.241595 0.185012 0.863890 -0.352386
Cl4   Cl    Cl    0.679510 0.134009 0.151994 -0.342628
Cl5   Cl    Cl    0.641570 0.852473 0.636221 -0.398425
Cl6   Cl    Cl    0.356303 0.149494 0.363942 -0.470394
N5    N     N_R   0.642284 0.128423 0.615275 0.266311
O13   O     O_R   0.576109 0.201474 0.669044 -0.380891
O14   O     O_R   0.772777 0.111336 0.616485 -0.247553
N6    N     N_R   0.378095 0.873067 0.375682 0.249141
O15   O     O_R   0.432146 0.888843 0.300208 -0.228337
O16   O     O_R   0.257260 0.824015 0.389898 -0.267599
Cl7   Cl    Cl    0.869965 0.319064 0.383211 -0.491831
Cl8   Cl    Cl    0.131034 0.677882 0.618757 -0.434179

loop_
_geom_bond_atom_site_label_1
_geom_bond_atom_site_label_2
_geom_bond_distance
_ccdc_geom_bond_type
Zn1   N1    2.013101 S    
O7    Zn2   1.909520 S    
C13   Cl3   1.761947 S    
N6    O15   1.300740 A    
C14   Cl4   1.760750 S    
C20   C23   1.400940 A    
C25   Cl7   1.749544 S    
C18   N3    1.443977 S    
C27   H5    1.081645 S    
C8    C10   1.387637 A    
C19   C24   1.402649 A    
O6    C4    1.293977 A    
C17   C18   1.358042 D    
O3    C1    1.282928 A    
C26   C28   1.415528 A    
N6    O16   1.301374 A    
C11   C17   1.481389 S    
C2    C23   1.414412 S    
N5    O13   1.299352 A    
C25   C27   1.414097 A    
C6    C8    1.399374 A    
C26   Cl8   1.753128 S    
C1    C24   1.419009 S    
C17   N4    1.444549 S    
O5    C3    1.291772 A    
O7    C3    1.297626 A    
C19   C21   1.381450 A    
O2    C2    1.281274 A    
O3    Zn2   1.994708 S    
C28   H6    1.081608 S    
C20   Cl6   1.774628 S    
C25   N2    1.373910 A    
O1    C1    1.283163 A    
C9    H4    1.083470 S    
O8    C4    1.292372 A    
C12   C14   1.403829 A    
C12   C18   1.480101 S    
C9    C11   1.409384 A    
C14   C16   1.393978 A    
C20   C22   1.381691 A    
C11   C13   1.403891 A    
C6    C16   1.404227 A    
C26   N1    1.373542 A    
O2    Zn2   1.999446 S    
C21   N5    1.435623 S    
C22   N6    1.432370 S    
C5    C15   1.407063 A    
O4    C2    1.282451 A    
O1    Zn1   1.999446 S    
C10   C12   1.407860 A    
C22   C24   1.403982 A    
C4    C6    1.456206 S    
O5    Zn1   1.941563 S    
C13   C15   1.392371 A    
N4    O11   1.301666 A    
C16   H1    1.081692 S    
Zn2   N2    2.013102 S    
N3    O9    1.301332 A    
C28   N2    1.362285 A    
N5    O14   1.301376 A    
C15   H2    1.084165 S    
C5    C7    1.402226 A    
C27   N1    1.360788 A    
C7    C9    1.390107 A    
C19   Cl5   1.769186 S    
O6    Zn2   1.941563 S    
C21   C23   1.404150 A    
C3    C5    1.461687 S    
C10   H3    1.083564 S    
C7    Cl1   1.758914 S    
O4    Zn1   1.994708 S    
N4    O12   1.301745 A    
N3    O10   1.301744 A    
O8    Zn1   1.909520 S    
C8    Cl2   1.754466 S    
