data_mof_unit_4553.cif
_audit_creation_date              2012-10-26T19:59:40-0400
_audit_creation_method            fapswitch 2.2
_symmetry_space_group_name_H-M    P1
_symmetry_Int_Tables_number       1
_space_group_crystal_system       triclinic
_cell_length_a                    10.744531
_cell_length_b                    8.683065
_cell_length_c                    7.458366
_cell_angle_alpha                 102.943869
_cell_angle_beta                  94.304117
_cell_angle_gamma                 92.421443
_cell_volume                      674.98813361

loop_
_atom_site_label
_atom_site_type_symbol
_atom_type_description
_atom_site_fract_x
_atom_site_fract_y
_atom_site_fract_z
_atom_type_partial_charge
C1    C     C_R   0.496184 0.199762 0.453289 0.549589
C2    C     C_R   0.503768 0.800233 0.546723 0.530367
C3    C     C_R   0.737375 0.506425 0.498847 0.536935
C4    C     C_R   0.150706 0.773511 0.731589 -0.101537
C5    C     C_R   0.095316 0.900968 0.838299 -0.120087
C6    C     C_R   0.965770 0.903121 0.833551 -0.119984
C7    C     C_R   0.890836 0.777845 0.721980 -0.103215
C8    C     C_R   0.944959 0.646127 0.614600 0.025791
C9    C     C_R   0.076574 0.643875 0.619618 0.025405
C10   C     C_R   0.129603 0.514186 0.506947 0.005330
C11   C     C_R   0.054464 0.393923 0.386474 -0.148951
C12   C     C_R   0.926156 0.396129 0.381617 -0.148526
C13   C     C_R   0.871340 0.518579 0.497362 0.004246
C14   C     C_2   0.494285 0.031820 0.427073 -0.155665
C15   C     C_2   0.505473 0.968140 0.572994 -0.163160
C16   C     C_R   0.262891 0.504325 0.502730 0.537049
Cu1   Cu    Cu3+1 0.513920 0.517380 0.684380 0.943507
Cu2   Cu    Cu3+1 0.486080 0.482620 0.315620 0.951911
H1    H     H_    0.095600 0.296268 0.297779 0.121859
H2    H     H_    0.402237 0.377866 0.948643 0.239591
H3    H     H_    0.597753 0.622158 0.051344 0.240177
H4    H     H_    0.251526 0.779553 0.735853 0.141965
H5    H     H_    0.153169 0.999411 0.923298 0.113300
H6    H     H_    0.923119 0.003236 0.914870 0.113512
H7    H     H_    0.790708 0.787199 0.718142 0.132097
H8    H     H_    0.869289 0.299418 0.290992 0.125712
H9    H     H_    0.483729 0.960233 0.286459 0.132940
H10   H     H_    0.515983 0.039699 0.713616 0.131916
N1    N     N_2   0.465100 0.456430 0.038520 -0.255085
N2    N     N_2   0.534900 0.543570 0.961480 -0.255668
O1    O     O_R   0.509050 0.286130 0.619770 -0.500672
O2    O     O_R   0.485540 0.256780 0.308360 -0.501291
O3    O     O_R   0.331410 0.514680 0.655740 -0.510880
O4    O     O_R   0.307900 0.485330 0.344330 -0.496462
O5    O     O_R   0.514460 0.743220 0.691640 -0.515949
O6    O     O_R   0.490950 0.713870 0.380230 -0.502129
O7    O     O_R   0.692100 0.514670 0.655670 -0.500513
O8    O     O_R   0.668590 0.485320 0.344260 -0.503428

loop_
_geom_bond_atom_site_label_1
_geom_bond_atom_site_label_2
_ccdc_geom_bond_type
C2    O5    A    
C11   C12   A    
C6    C7    A    
C2    C15   S    
C14   H9    S    
C4    H4    S    
C9    C10   A    
C5    H5    S    
C6    H6    S    
Cu1   Cu2   S    
Cu2   O8    S    
C7    C8    A    
Cu2   N1    S    
Cu1   O7    S    
C7    H7    S    
Cu1   N2    S    
Cu2   O4    S    
C11   H1    S    
C15   H10   S    
N1    N2    D    
Cu1   O3    S    
H2    N1    S    
C5    C6    A    
Cu1   O1    S    
Cu2   O2    S    
C10   C11   A    
C8    C13   A    
C1    O1    A    
C12   C13   A    
C3    O7    A    
C16   O3    A    
H3    N2    S    
C2    O6    A    
C14   C15   D    
C8    C9    A    
C10   C16   S    
C1    C14   S    
Cu1   O5    S    
C16   O4    A    
C4    C9    A    
Cu2   O6    S    
C1    O2    A    
C3    O8    A    
C12   H8    S    
C4    C5    A    
C3    C13   S    
