data_mof_unit_750.cif
_audit_creation_date              2013-03-05T15:47:45-0500
_audit_creation_method            fapswitch 2.2
_symmetry_space_group_name_H-M    P1
_symmetry_Int_Tables_number       1
_space_group_crystal_system       triclinic
_cell_length_a                    10.754782
_cell_length_b                    12.995999
_cell_length_c                    11.691151
_cell_angle_alpha                 100.967814
_cell_angle_beta                  93.418597
_cell_angle_gamma                 91.192901
_cell_volume                      1600.4972784

loop_
_atom_site_label
_atom_site_type_symbol
_atom_site_description
_atom_site_fract_x
_atom_site_fract_y
_atom_site_fract_z
_atom_type_partial_charge
O1    O     O_R   0.506570 0.354460 0.582000 -0.574872
O2    O     O_R   0.493430 0.645540 0.418000 -0.588646
O3    O     O_R   0.490940 0.341410 0.386200 -0.573353
O4    O     O_R   0.509060 0.658590 0.613800 -0.581923
C1    C     C_R   0.499564 0.298868 0.477500 0.830500
C2    C     C_R   0.500345 0.701221 0.522545 0.910524
O5    O     O_R   0.327470 0.506520 0.597900 -0.600576
O6    O     O_R   0.672530 0.493480 0.402100 -0.589759
O7    O     O_R   0.311840 0.493460 0.402100 -0.617582
O8    O     O_R   0.688160 0.506540 0.597900 -0.602030
C3    C     C_R   0.262543 0.512883 0.503000 0.845376
C4    C     C_R   0.737281 0.486632 0.496944 0.786120
Cu1   Cu    Cu3+1 0.509250 0.507730 0.615930 0.958247
Cu2   Cu    Cu3+1 0.490750 0.492270 0.384070 0.939309
H1    H     H_    0.071360 0.581953 0.127616 0.125772
H2    H     H_    0.931383 0.413546 0.871538 0.167474
C5    C     C_R   0.123957 0.540835 0.723318 -0.114907
C6    C     C_R   0.875999 0.457448 0.276426 -0.147344
C7    C     C_R   0.072011 0.508436 0.817284 -0.170559
C8    C     C_R   0.929217 0.488111 0.182034 -0.103710
C9    C     C_R   0.964536 0.444829 0.798998 -0.070861
C10   C     C_R   0.037043 0.551292 0.200156 -0.182471
C11   C     C_R   0.901573 0.420742 0.688020 0.016680
C12   C     C_R   0.098170 0.577218 0.311470 0.032537
C13   C     C_R   0.945500 0.466791 0.595620 -0.012469
C14   C     C_R   0.054068 0.531923 0.404358 0.074197
C15   C     C_R   0.066840 0.512400 0.609163 0.061925
C16   C     C_R   0.932857 0.486175 0.390716 0.059138
C17   C     C_R   0.872992 0.469598 0.491108 -0.237472
C18   C     C_R   0.126622 0.529198 0.508809 -0.153626
H3    H     H_    0.206905 0.591125 0.741868 0.177068
H4    H     H_    0.792317 0.408225 0.258016 0.157901
H5    H     H_    0.118071 0.529339 0.903794 0.138944
H6    H     H_    0.883668 0.466521 0.095369 0.149394
C19   C     C_R   0.495183 0.815217 0.536584 -0.195118
C20   C     C_R   0.502969 0.184960 0.463336 -0.241273
C21   C     C_R   0.544088 0.012988 0.351251 0.431766
C22   C     C_R   0.442744 0.985981 0.644767 0.437130
C23   C     C_R   0.542459 0.122114 0.360727 0.382310
C24   C     C_R   0.457136 0.877963 0.639902 0.404393
C25   C     C_R   0.469846 0.139203 0.556548 -0.245928
C26   C     C_R   0.524457 0.860722 0.442113 -0.270520
C27   C     C_R   0.475995 0.031420 0.550166 -0.064158
C28   C     C_R   0.515341 0.968094 0.447499 -0.068525
H7    H     H_    0.555015 0.811721 0.363783 0.214576
H8    H     H_    0.439558 0.188368 0.634898 0.226098
N1    N     N_R   0.523180 0.519350 0.790130 -0.212868
N2    N     N_R   0.476820 0.480650 0.209870 -0.226284
C29   C     C_R   0.369076 0.414842 0.019939 -0.284715
C30   C     C_R   0.630941 0.585175 0.980049 -0.300528
C31   C     C_R   0.382164 0.419397 0.141655 0.196595
C32   C     C_R   0.618379 0.579943 0.858228 0.208119
C33   C     C_R   0.558424 0.535644 0.157103 -0.001966
C34   C     C_R   0.441149 0.464852 0.842994 0.041077
C35   C     C_R   0.547776 0.530570 0.034612 0.030289
C36   C     C_R   0.451848 0.469900 0.965482 0.030930
H9    H     H_    0.367656 0.416918 0.789862 0.125192
H10   H     H_    0.631771 0.583728 0.210273 0.138808
H11   H     H_    0.295225 0.366822 0.967047 0.177780
H12   H     H_    0.705019 0.633018 0.032804 0.181293
C37   C     C_2   0.800687 0.338095 0.666764 0.414152
H13   H     H_    0.768362 0.302327 0.578221 0.026310
O9    O     O_2   0.753261 0.308434 0.747689 -0.537262
C38   C     C_2   0.196395 0.661612 0.329643 0.384035
H14   H     H_    0.245080 0.678022 0.256035 0.056781
O10   O     O_2   0.219869 0.716672 0.425726 -0.566237
O11   O     O_3   0.421928 0.831917 0.730999 -0.564809
C39   C     C_3   0.513178 0.856248 0.824773 -0.243497
H15   H     H_    0.499747 0.935473 0.877087 0.211670
H16   H     H_    0.610051 0.850449 0.795682 0.136130
H17   H     H_    0.502061 0.798888 0.882831 0.158653
O12   O     O_3   0.575244 0.166095 0.267513 -0.557391
C40   C     C_3   0.705367 0.185117 0.277307 -0.217453
H18   H     H_    0.756799 0.111559 0.276429 0.180404
H19   H     H_    0.734375 0.243854 0.357285 0.111001
H20   H     H_    0.732031 0.217723 0.200881 0.185384
O13   O     O_3   0.582408 0.951320 0.250423 -0.576892
C41   C     C_3   0.477286 0.923354 0.171779 -0.284940
H21   H     H_    0.438558 0.993297 0.142147 0.198454
H22   H     H_    0.403837 0.881462 0.210295 0.151505
H23   H     H_    0.506604 0.868908 0.093880 0.174984
O14   O     O_3   0.400400 0.047526 0.743874 -0.584156
C42   C     C_3   0.269028 0.045086 0.733299 -0.277242
H24   H     H_    0.229794 0.964569 0.729886 0.203870
H25   H     H_    0.233611 0.075881 0.655328 0.147873
H26   H     H_    0.235071 0.096373 0.811449 0.195975
C43   C     C_2   0.710683 0.643126 0.809119 0.357241
H27   H     H_    0.691516 0.669702 0.728647 0.125163
O15   O     O_2   0.811978 0.668771 0.860786 -0.569035
C44   C     C_2   0.291137 0.354615 0.190401 0.384867
H28   H     H_    0.309929 0.329311 0.271625 0.134150
O16   O     O_2   0.191053 0.326210 0.137517 -0.583105

loop_
_geom_bond_atom_site_label_1
_geom_bond_atom_site_label_2
_geom_bond_distance
_ccdc_geom_bond_type
C43   H27   1.072558 S    
H2    C9    1.082992 S    
C4    C17   1.484421 S    
C40   H19   1.112657 S    
C40   H18   1.113056 S    
C35   C36   1.401239 A    
H1    C10   1.083519 S    
O13   C41   1.409747 S    
O5    C3    1.292406 A    
O1    C1    1.292730 A    
C16   C17   1.420938 A    
C7    C9    1.388733 A    
C12   C14   1.429643 A    
C31   C44   1.485511 S    
C41   H22   1.113981 S    
C32   C43   1.484181 S    
C1    C20   1.459420 S    
C2    C19   1.461788 S    
O4    Cu1   1.965507 S    
C37   O9    1.221476 D    
C19   C26   1.396775 A    
N2    C31   1.390653 A    
C3    C18   1.485152 S    
C39   H15   1.110017 S    
C29   C31   1.411374 A    
C24   O11   1.384537 S    
C30   C32   1.411069 A    
C25   H8    1.083954 S    
C37   H13   1.084328 S    
C8    H6    1.082689 S    
C12   C38   1.483358 S    
Cu1   Cu2   2.674822 S    
C22   O14   1.383878 S    
C15   C18   1.420968 A    
C25   C27   1.391652 A    
C20   C25   1.397195 A    
O2    C2    1.293623 A    
C26   C28   1.390582 A    
C33   C35   1.418614 A    
C13   C17   1.416649 A    
N2    C33   1.366687 A    
C34   C36   1.418629 A    
O11   C39   1.411334 S    
C5    C15   1.414273 A    
C6    C16   1.414891 A    
O4    C2    1.291940 A    
C7    H5    1.082688 S    
Cu1   N1    2.009634 S    
C41   H21   1.112711 S    
Cu2   N2    2.009634 S    
C21   O13   1.383446 S    
C26   H7    1.083910 S    
C38   O10   1.220822 D    
O7    Cu2   1.948165 S    
C44   O16   1.222447 D    
C42   H24   1.112796 S    
O5    Cu1   1.953210 S    
O6    C4    1.292455 A    
O7    C3    1.305075 A    
O3    Cu2   1.965509 S    
O8    C4    1.304974 A    
N1    C34   1.366565 A    
C42   H25   1.113541 S    
C8    C10   1.388783 A    
C14   C18   1.416086 A    
C9    C11   1.404203 A    
C27   C28   1.412897 A    
C5    H3    1.081080 S    
C40   H20   1.108940 S    
C10   C12   1.400438 A    
O1    Cu1   1.954847 S    
O6    Cu2   1.953211 S    
C20   C23   1.410283 A    
O12   C40   1.410107 S    
O3    C1    1.291705 A    
O8    Cu1   1.948165 S    
C33   H10   1.082751 S    
N1    C32   1.390275 A    
C13   C15   1.409546 A    
C29   C36   1.387148 A    
C14   C16   1.408948 A    
C30   C35   1.387213 A    
C29   H11   1.084725 S    
C30   H12   1.084694 S    
C38   H14   1.085877 S    
C21   C28   1.409241 A    
C43   O15   1.221704 D    
C19   C24   1.410489 A    
C22   C27   1.409516 A    
C21   C23   1.401912 A    
C22   C24   1.406251 A    
C41   H23   1.108078 S    
C44   H28   1.072118 S    
C39   H17   1.108712 S    
C5    C7    1.391281 A    
C6    C8    1.391901 A    
C11   C13   1.429471 A    
C23   O12   1.383140 S    
O2    Cu2   1.954845 S    
C11   C37   1.486741 S    
C42   H26   1.109332 S    
C6    H4    1.079830 S    
C39   H16   1.114702 S    
O14   C42   1.410075 S    
C34   H9    1.082759 S    
