data_mof_unit_2021.cif
_audit_creation_date              2012-12-10T17:04:28-0500
_audit_creation_method            fapswitch 2.2
_symmetry_space_group_name_H-M    P1
_symmetry_Int_Tables_number       1
_space_group_crystal_system       triclinic
_cell_length_a                    14.940464
_cell_length_b                    10.579282
_cell_length_c                    10.020262
_cell_angle_alpha                 92.449457
_cell_angle_beta                  90.071456
_cell_angle_gamma                 90.031982
_cell_volume                      1582.3477941

loop_
_atom_site_label
_atom_site_type_symbol
_atom_type_description
_atom_site_fract_x
_atom_site_fract_y
_atom_site_fract_z
_atom_type_partial_charge
C1    C     C_R   0.499113 0.261788 0.496465 0.929048
C2    C     C_R   0.187920 0.383461 0.544431 0.136920
C3    C     C_R   0.232266 0.490784 0.499286 -0.106838
C4    C     C_R   0.327286 0.497837 0.499932 0.881180
C5    C     C_R   0.186763 0.594353 0.453817 -0.294644
C6    C     C_2   0.431749 0.929535 0.403860 -0.073173
C7    C     C_2   0.457179 0.867090 0.513079 -0.049556
C8    C     C_2   0.431589 0.067921 0.410521 0.201037
C9    C     C_2   0.495460 0.127731 0.484386 -0.321651
C10   C     C_2   0.550961 0.573999 0.928392 0.002241
C11   C     C_2   0.555329 0.566838 0.078266 -0.142058
C12   C     C_R   0.908114 0.602152 0.459759 0.075975
C13   C     C_R   0.489216 0.737357 0.502910 0.892694
C14   C     C_R   0.672682 0.498868 0.499996 0.914960
C15   C     C_R   0.814656 0.605467 0.464745 -0.093330
C16   C     C_R   0.768169 0.496621 0.499503 -0.164040
C17   C     C_R   0.812030 0.383488 0.527494 0.138014
C18   C     C_R   0.905438 0.380722 0.526270 0.078146
C19   C     C_R   0.953547 0.489885 0.493107 0.008102
C20   C     C_1   0.765616 0.720070 0.436114 0.171915
C21   C     C_3   0.358040 0.935797 0.693243 -0.734773
C22   C     C_3   0.380125 0.160786 0.205702 -0.728994
C23   C     C_R   0.951298 0.270076 0.556431 -0.253576
C24   C     C_1   0.607803 0.665348 0.867777 0.261070
C25   C     C_3   0.742205 0.191708 0.438301 -0.796905
C26   C     C_1   0.084592 0.144071 0.577105 0.205657
C27   C     C_3   0.238965 0.292086 0.748223 -0.734721
C28   C     C_1   0.411261 0.866586 0.275969 0.199260
C29   C     C_R   0.044165 0.266293 0.558037 -0.020563
C30   C     C_R   0.093811 0.377248 0.532999 0.032970
C31   C     C_R   0.047345 0.487252 0.493802 0.023467
C32   C     C_R   0.094661 0.595572 0.455420 0.136705
C33   C     C_R   0.049710 0.704381 0.419163 -0.193420
C34   C     C_R   0.957309 0.708351 0.422546 -0.189419
H1    H     H_    0.547763 0.077243 0.535250 0.133343
H2    H     H_    0.357799 0.986687 0.792479 0.231788
H3    H     H_    0.329359 0.839772 0.703821 0.242393
H4    H     H_    0.315655 0.989558 0.624341 0.255323
H5    H     H_    0.299912 0.099616 0.358474 0.222077
H6    H     H_    0.341705 0.245650 0.178334 0.234069
H7    H     H_    0.357978 0.079426 0.140166 0.223651
H8    H     H_    0.452290 0.178590 0.187443 0.254405
H9    H     H_    0.708354 0.285667 0.617364 0.240879
H10   H     H_    0.694816 0.240132 0.371946 0.246742
H11   H     H_    0.711041 0.102552 0.469858 0.245922
H12   H     H_    0.464763 0.431168 0.894740 0.152314
H13   H     H_    0.804277 0.167216 0.382005 0.256158
H14   H     H_    0.299813 0.267086 0.562971 0.232603
H15   H     H_    0.273711 0.207777 0.785392 0.231167
H16   H     H_    0.169782 0.293863 0.788708 0.242737
H17   H     H_    0.275031 0.378309 0.785605 0.248253
H18   H     H_    0.606166 0.622509 0.131396 0.172226
H19   H     H_    0.449105 0.454863 0.099808 0.159091
H20   H     H_    0.914868 0.184806 0.578565 0.189596
H21   H     H_    0.223706 0.676230 0.421847 0.150528
H22   H     H_    0.086193 0.787357 0.389819 0.153803
H23   H     H_    0.924975 0.795134 0.395384 0.158339
H24   H     H_    0.493176 0.895047 0.714177 0.251542
N1    N     N_2   0.500970 0.501330 0.852150 -0.214584
N2    N     N_1   0.394797 0.816420 0.173948 -0.207659
N3    N     N_2   0.500990 0.501360 0.147810 -0.194908
N4    N     N_1   0.726428 0.811054 0.413452 -0.226265
N5    N     N_2   0.448860 0.926417 0.643885 -0.311003
N6    N     N_2   0.363119 0.135997 0.344506 -0.308770
N7    N     N_1   0.653609 0.738807 0.819404 -0.218197
N8    N     N_2   0.762575 0.271882 0.554998 -0.321354
N9    N     N_1   0.116473 0.045965 0.592057 -0.224272
N10   N     N_2   0.237579 0.284943 0.603591 -0.307116
O1    O     O_R   0.499990 0.319060 0.613040 -0.618943
O2    O     O_R   0.500010 0.319100 0.386900 -0.597361
O3    O     O_R   0.367830 0.499950 0.613080 -0.619695
O4    O     O_R   0.367860 0.499990 0.386940 -0.610912
O5    O     O_R   0.499990 0.680900 0.613100 -0.609139
O6    O     O_R   0.500010 0.680940 0.386960 -0.603425
O7    O     O_R   0.632140 0.500010 0.613060 -0.618171
O8    O     O_R   0.632170 0.500050 0.386920 -0.610770
Zn1   Zn    Zn3+2 0.499980 0.499970 0.650990 0.946859
Zn2   Zn    Zn3+2 0.500020 0.500030 0.349010 0.955033

loop_
_geom_bond_atom_site_label_1
_geom_bond_atom_site_label_2
_ccdc_geom_bond_type
H12   N1    S    
O2    Zn2   S    
O1    Zn1   S    
C4    O4    A    
C19   C31   A    
N1    Zn1   S    
C21   H2    S    
H5    N6    S    
C17   N8    S    
C26   N9    T    
C23   C29   A    
O8    Zn2   S    
C2    N10   S    
C30   C31   A    
C22   H7    S    
C15   C16   A    
C18   C19   A    
O4    Zn2   S    
C11   H18   S    
H19   N3    S    
C6    C28   S    
C21   H4    S    
C8    C9    D    
C34   H23   S    
C27   N10   S    
C25   H13   S    
C27   H16   S    
C3    C5    A    
C5    C32   A    
C33   H22   S    
C25   H10   S    
C27   H17   S    
C33   C34   A    
C28   N2    T    
C15   C20   S    
C18   C23   A    
C1    C9    S    
C16   C17   A    
C6    C8    S    
C10   C24   S    
C1    O1    A    
C14   O8    A    
C29   C30   A    
C31   C32   A    
C12   C15   A    
N3    Zn2   S    
C22   H6    S    
C17   C18   A    
H14   N10   S    
O7    Zn1   S    
C7    N5    S    
C24   N7    T    
C8    N6    S    
C13   O5    A    
C14   C16   S    
C12   C34   A    
C3    C4    S    
C25   H11   S    
O3    Zn1   S    
C23   H20   S    
H24   N5    S    
C5    H21   S    
C25   N8    S    
C11   N3    D    
C6    C7    D    
C1    O2    A    
C2    C30   A    
C14   O7    A    
C2    C3    A    
C32   C33   A    
C22   H8    S    
H9    N8    S    
C12   C19   A    
C10   N1    D    
C20   N4    T    
C21   N5    S    
C10   C11   S    
C22   N6    S    
C7    C13   S    
C21   H3    S    
C13   O6    A    
C26   C29   S    
O6    Zn2   S    
C9    H1    S    
O5    Zn1   S    
C4    O3    A    
C27   H15   S    
