data_mof_unit_4851.cif
_audit_creation_date              2012-12-10T16:49:22-0500
_audit_creation_method            fapswitch 2.2
_symmetry_space_group_name_H-M    P1
_symmetry_Int_Tables_number       1
_space_group_crystal_system       triclinic
_cell_length_a                    7.812345
_cell_length_b                    8.718314
_cell_length_c                    12.789225
_cell_angle_alpha                 88.654014
_cell_angle_beta                  87.230226
_cell_angle_gamma                 92.591934
_cell_volume                      868.884680022

loop_
_atom_site_label
_atom_site_type_symbol
_atom_type_description
_atom_site_fract_x
_atom_site_fract_y
_atom_site_fract_z
_atom_type_partial_charge
C1    C     C_R   0.456301 0.206464 0.497625 0.910458
C2    C     C_R   0.636797 0.365392 0.148590 -0.211304
C3    C     C_R   0.520255 0.401334 0.873658 -0.069151
C4    C     C_R   0.479745 0.598666 0.126342 -0.069151
C5    C     C_R   0.536444 0.433005 0.979237 0.117448
C6    C     C_R   0.463556 0.566995 0.020763 0.117448
C7    C     C_2   0.436537 0.046220 0.486231 -0.258694
C8    C     C_2   0.563462 0.953780 0.513769 -0.258694
C9    C     C_1   0.417415 0.739228 0.170197 0.154285
C10   C     C_1   0.582585 0.260772 0.829803 0.154285
C11   C     C_1   0.991541 0.622922 0.388791 0.437173
C12   C     C_R   0.543699 0.793536 0.502375 0.910458
C13   C     C_1   0.008459 0.377078 0.611209 0.437173
C14   C     C_1   0.280357 0.996583 0.436192 0.280267
C15   C     C_1   0.719642 0.003417 0.563808 0.280267
C16   C     C_R   0.464571 0.500671 0.699290 0.885092
C17   C     C_R   0.535429 0.499329 0.300710 0.885092
C18   C     C_R   0.558737 0.492637 0.189741 -0.074124
C19   C     C_R   0.441263 0.507363 0.810259 -0.074124
C20   C     C_R   0.373501 0.664327 0.956243 -0.189809
C21   C     C_R   0.626499 0.335672 0.043757 -0.189809
C22   C     C_R   0.363202 0.634608 0.851410 -0.211305
H1    H     H_    0.697598 0.284385 0.198835 0.164024
H2    H     H_    0.302401 0.715615 0.801165 0.164024
H3    H     H_    0.314215 0.765783 0.985407 0.162808
H4    H     H_    0.685785 0.234216 0.014593 0.162808
N1    N     N_2   0.054030 0.541640 0.471970 -0.166236
N2    N     N_2   0.945970 0.458360 0.528030 -0.166236
N3    N     N_1   0.368343 0.851540 0.204678 -0.196367
N4    N     N_1   0.631657 0.148460 0.795322 -0.196367
N5    N     N_1   0.941804 0.691674 0.318825 -0.223357
N6    N     N_1   0.058196 0.308326 0.681175 -0.223357
N7    N     N_1   0.155272 0.960068 0.396755 -0.184974
N8    N     N_1   0.844728 0.039932 0.603245 -0.184974
O1    O     O_R   0.609680 0.261530 0.506880 -0.619520
O2    O     O_R   0.390320 0.738470 0.493120 -0.619520
O3    O     O_R   0.323330 0.288220 0.488910 -0.630866
O4    O     O_R   0.676670 0.711780 0.511090 -0.630866
O5    O     O_R   0.619510 0.488830 0.661140 -0.620057
O6    O     O_R   0.380490 0.511170 0.338860 -0.620057
O7    O     O_R   0.333160 0.515520 0.643180 -0.634806
O8    O     O_R   0.666840 0.484480 0.356820 -0.634806
Zn1   Zn    Zn3+2 0.691200 0.482180 0.511990 0.967711
Zn2   Zn    Zn3+2 0.308800 0.517820 0.488010 0.967711

loop_
_geom_bond_atom_site_label_1
_geom_bond_atom_site_label_2
_ccdc_geom_bond_type
C21   H4    S    
C13   N2    S    
C3    C19   A    
C9    N3    T    
C2    C18   A    
N2    Zn1   S    
O1    Zn1   S    
C10   N4    T    
C13   N6    T    
C11   N1    S    
C8    C12   S    
C4    C18   A    
C14   N7    T    
C17   C18   S    
C11   N5    T    
C7    C8    D    
C3    C10   S    
C2    C21   A    
C16   C19   S    
N1    Zn2   S    
C20   C22   A    
C8    C15   S    
C12   O4    A    
C5    C6    A    
O7    Zn2   S    
C22   H2    S    
O2    Zn2   S    
C12   O2    A    
C20   H3    S    
C16   O5    A    
O3    Zn2   S    
O6    Zn2   S    
C19   C22   A    
C6    C20   A    
C1    O1    A    
C4    C6    A    
O8    Zn1   S    
C2    H1    S    
C17   O8    A    
O5    Zn1   S    
C15   N8    T    
C3    C5    A    
C4    C9    S    
C1    C7    S    
C16   O7    A    
C17   O6    A    
C7    C14   S    
O4    Zn1   S    
C1    O3    A    
N1    N2    D    
C5    C21   A    
