data_mof_unit_2734.cif
_audit_creation_date              2012-12-10T21:27:24-0500
_audit_creation_method            fapswitch 2.2
_symmetry_space_group_name_H-M    P1
_symmetry_Int_Tables_number       1
_space_group_crystal_system       triclinic
_cell_length_a                    10.646509
_cell_length_b                    16.307885
_cell_length_c                    16.56594
_cell_angle_alpha                 88.873713
_cell_angle_beta                  91.170178
_cell_angle_gamma                 103.79772
_cell_volume                      2792.30938076

loop_
_atom_site_label
_atom_site_type_symbol
_atom_type_description
_atom_site_fract_x
_atom_site_fract_y
_atom_site_fract_z
_atom_type_partial_charge
C1    C     C_R   0.492970 0.489093 0.654056 0.906109
C2    C     C_R   0.503157 0.510046 0.346566 1.033647
C3    C     C_R   0.523292 0.416853 0.782780 -0.017920
C4    C     C_R   0.409951 0.532445 0.212174 0.040636
C5    C     C_R   0.451650 0.758798 0.453823 0.035911
C6    C     C_R   0.565695 0.248968 0.540352 0.008032
C7    C     C_R   0.460546 0.847186 0.456740 0.221899
C8    C     C_R   0.547119 0.161616 0.557303 0.243290
C9    C     C_R   0.504145 0.891539 0.528965 0.015579
C10   C     C_R   0.445442 0.102681 0.517746 0.036142
C11   C     C_R   0.556487 0.846252 0.589547 0.226500
C12   C     C_R   0.360854 0.136608 0.466871 0.211030
C13   C     C_R   0.582991 0.767497 0.571388 0.436366
C14   C     C_R   0.391664 0.224962 0.446034 0.378112
C15   C     C_R   0.744429 0.534016 0.502989 0.905439
C16   C     C_R   0.256172 0.465995 0.503906 0.810743
C17   C     C_2   0.885223 0.550447 0.511503 0.309551
C18   C     C_2   0.117977 0.449926 0.521431 0.178150
C19   C     C_2   0.936060 0.505406 0.567303 0.025582
C20   C     C_2   0.073610 0.506155 0.565941 0.018616
C21   C     C_R   0.470081 0.478087 0.742286 -0.174429
C22   C     C_R   0.508634 0.510102 0.258366 -0.222595
C23   C     C_R   0.373465 0.510099 0.781705 0.192354
C24   C     C_R   0.592899 0.466483 0.222600 0.199960
C25   C     C_R   0.315581 0.466718 0.851152 0.287574
C26   C     C_R   0.563420 0.432798 0.145238 0.324852
C27   C     C_R   0.381150 0.415921 0.895744 0.197573
C28   C     C_R   0.470175 0.459574 0.097288 0.120959
C29   C     C_R   0.481357 0.387736 0.860140 0.022588
C30   C     C_R   0.395671 0.511624 0.130283 0.002986
N1    N     N_2   0.369053 0.413560 0.980785 -0.053717
N2    N     N_2   0.474001 0.449691 0.012956 -0.100729
N3    N     N_R   0.515370 0.719110 0.509820 -0.197553
N4    N     N_R   0.484630 0.280890 0.490180 -0.195670
N5    N     N_2   0.523912 0.982419 0.534561 0.007729
N6    N     N_2   0.425083 0.010973 0.523689 -0.004793
O1    O     O_R   0.494500 0.421750 0.612630 -0.647341
O2    O     O_R   0.505500 0.578250 0.387370 -0.630572
O3    O     O_R   0.504370 0.562470 0.618930 -0.535400
O4    O     O_R   0.495630 0.437530 0.381070 -0.520800
O5    O     O_R   0.679100 0.455920 0.498020 -0.639235
O6    O     O_R   0.320900 0.544080 0.501980 -0.663164
O7    O     O_R   0.688960 0.596630 0.504320 -0.512960
O8    O     O_R   0.311040 0.403370 0.495680 -0.567592
Zn1   Zn    Zn3+2 0.493410 0.406040 0.495790 1.046825
Zn2   Zn    Zn3+2 0.506590 0.593960 0.504210 1.063878
N7    N     N_3   0.156345 0.564279 0.619033 -0.335026
H1    H     H_    0.211394 0.615256 0.586558 0.272990
H2    H     H_    0.217401 0.531846 0.648917 0.192431
N8    N     N_3   0.858936 0.462486 0.632607 -0.450291
H3    H     H_    0.914718 0.432274 0.670060 0.276682
H4    H     H_    0.833615 0.508488 0.667709 0.215598
S1    S     S_3+6 0.734505 0.751226 0.607137 0.142079
O9    O     O_2   0.717993 0.671042 0.656024 -0.258904
O10   O     O_2   0.816725 0.747940 0.535402 -0.234432
O11   O     O_3   0.816217 0.831483 0.663913 -0.455460
H5    H     H_    0.899407 0.817109 0.677861 0.404231
S2    S     S_3+6 0.346983 0.257689 0.348013 0.154657
O12   O     O_2   0.276924 0.326981 0.352669 -0.228128
O13   O     O_2   0.469613 0.290075 0.302403 -0.251927
O14   O     O_3   0.254711 0.179859 0.293124 -0.422126
H6    H     H_    0.245130 0.205849 0.239475 0.399160
S3    S     S_3+6 0.015102 0.351665 0.495222 0.088812
O15   O     O_2   0.943254 0.312618 0.568852 -0.294003
O16   O     O_2   0.921356 0.365513 0.430532 -0.190715
O17   O     O_3   0.097142 0.283866 0.461719 -0.402493
H7    H     H_    0.132351 0.261470 0.511026 0.372456
S4    S     S_3+6 0.984364 0.629137 0.449056 0.093879
O18   O     O_2   0.078692 0.690313 0.500709 -0.299502
O19   O     O_2   0.057762 0.587467 0.392473 -0.285334
O20   O     O_3   0.894761 0.683328 0.395004 -0.450472
H8    H     H_    0.957920 0.725024 0.362810 0.401996
S5    S     S_3+6 0.741179 0.463190 0.272101 0.139258
O21   O     O_2   0.783366 0.539727 0.323174 -0.297595
O22   O     O_2   0.722771 0.385900 0.325432 -0.141381
O23   O     O_3   0.858290 0.462771 0.205594 -0.428983
H9    H     H_    0.868959 0.516731 0.174987 0.361660
S6    S     S_3+6 0.364645 0.618279 0.773375 0.103585
O24   O     O_2   0.426336 0.663494 0.699688 -0.249766
O25   O     O_2   0.227007 0.626310 0.774168 -0.206753
O26   O     O_3   0.441880 0.666833 0.855288 -0.500676
H10   H     H_    0.400537 0.713896 0.865577 0.402855
S7    S     S_3+6 0.630364 0.350509 0.109342 0.120172
O27   O     O_2   0.735121 0.386932 0.050359 -0.298021
O28   O     O_2   0.685040 0.305843 0.176658 -0.137870
O29   O     O_3   0.512197 0.278979 0.063146 -0.510314
H11   H     H_    0.552504 0.232363 0.049276 0.397733
S8    S     S_3+6 0.159712 0.473232 0.882552 0.071018
O30   O     O_2   0.167302 0.555528 0.923821 -0.251565
O31   O     O_2   0.071428 0.467361 0.809828 -0.273309
O32   O     O_3   0.098101 0.392952 0.946495 -0.527628
H12   H     H_    0.013663 0.402499 0.962579 0.408085
N9    N     N_3   0.538175 0.328187 0.903023 -0.344097
H13   H     H_    0.521226 0.272525 0.870055 0.206499
H14   H     H_    0.637903 0.352882 0.907910 0.247341
N10   N     N_3   0.304686 0.543614 0.081913 -0.392959
H15   H     H_    0.352601 0.575394 0.031788 0.254707
H16   H     H_    0.231744 0.492500 0.062870 0.273190
N11   N     N_3   0.625920 0.388045 0.746682 -0.436314
H17   H     H_    0.598661 0.322267 0.743258 0.224315
H18   H     H_    0.709028 0.405218 0.783100 0.227437
N12   N     N_3   0.322386 0.574406 0.249146 -0.420576
H19   H     H_    0.327563 0.631840 0.218675 0.244136
H20   H     H_    0.228436 0.537019 0.242005 0.261419
N13   N     N_3   0.680696 0.303428 0.569573 -0.296376
H21   H     H_    0.657063 0.349847 0.603500 0.254065
H22   H     H_    0.733049 0.329024 0.519138 0.297436
N14   N     N_3   0.383757 0.713656 0.386900 -0.336624
H23   H     H_    0.324090 0.657060 0.406915 0.267290
H24   H     H_    0.451434 0.703347 0.346097 0.249160
S9    S     S_3+6 0.639252 0.130836 0.637939 0.130619
O33   O     O_2   0.734702 0.086613 0.604075 -0.152526
O34   O     O_2   0.712995 0.203668 0.687181 -0.257760
O35   O     O_3   0.535903 0.066873 0.699823 -0.443410
H25   H     H_    0.477045 0.101309 0.718039 0.348240
S10   S     S_3+6 0.425939 0.897860 0.365698 0.145427
O36   O     O_2   0.473155 0.992213 0.367413 -0.207473
O37   O     O_2   0.491142 0.866175 0.297299 -0.216995
O38   O     O_3   0.265400 0.870454 0.347853 -0.431517
H26   H     H_    0.225632 0.863870 0.401865 0.380162
S11   S     S_3+6 0.569244 0.879334 0.691337 0.176822
O39   O     O_2   0.682125 0.953631 0.701757 -0.132541
O40   O     O_2   0.446004 0.902363 0.713454 -0.223233
O41   O     O_3   0.592041 0.802266 0.754613 -0.431446
H27   H     H_    0.607257 0.828786 0.808333 0.392581
S12   S     S_3+6 0.210549 0.068642 0.436791 0.132732
O42   O     O_2   0.226354 0.027820 0.358496 -0.146228
O43   O     O_2   0.166262 0.000947 0.499916 -0.264328
O44   O     O_3   0.095677 0.122851 0.424363 -0.452473
H28   H     H_    0.017515 0.080645 0.406235 0.412492

loop_
_geom_bond_atom_site_label_1
_geom_bond_atom_site_label_2
_ccdc_geom_bond_type
S3    O16   D    
C1    C21   S    
S12   O42   D    
C27   C29   A    
S5    O21   D    
S9    O33   D    
S6    O26   S    
O35   H25   S    
N7    H2    S    
S1    O9    D    
N14   H23   S    
N13   H22   S    
C26   S7    S    
S7    O27   D    
C24   C26   A    
S6    O25   D    
C18   S3    S    
C12   S12   S    
S2    O13   D    
O11   H5    S    
C15   C17   S    
O6    Zn2   S    
C3    C29   A    
S11   O41   S    
C30   N10   S    
N9    H13   S    
C19   C20   S    
N10   H16   S    
S4    O18   D    
C4    N12   S    
C2    C22   S    
N8    H4    S    
C16   O8    A    
O14   H6    S    
C1    O1    A    
S2    O14   S    
O17   H7    S    
S3    O17   S    
N9    H14   S    
N3    Zn2   S    
S5    O22   D    
C11   S11   S    
O26   H10   S    
C13   S1    S    
S1    O10   D    
O4    Zn1   S    
C14   S2    S    
S11   O40   D    
C27   N1    S    
C28   N2    S    
O23   H9    S    
C15   O5    A    
C8    S9    S    
O32   H12   S    
C5    C7    A    
O29   H11   S    
C6    C8    A    
S12   O44   S    
S2    O12   D    
C25   S8    S    
C6    N4    A    
C5    N3    A    
N5    N6    D    
C7    S10   S    
C13   N3    A    
C3    N11   S    
C4    C22   A    
C2    O2    A    
N7    H1    S    
S8    O32   S    
N10   H15   S    
N8    H3    S    
S9    O34   D    
N4    Zn1   S    
N12   H20   S    
C9    C11   A    
S11   O39   D    
C10   C12   A    
O3    Zn2   S    
C16   C18   S    
N11   H18   S    
C12   C14   A    
C21   C23   A    
S5    O23   S    
C22   C24   A    
C3    C21   A    
O1    Zn1   S    
C16   O6    A    
O8    Zn1   S    
O44   H28   S    
S1    O11   S    
C7    C9    A    
C17   S4    S    
S12   O43   D    
S7    O28   D    
S6    O24   D    
N1    N2    D    
S8    O31   D    
C14   N4    A    
O38   H26   S    
N14   H24   S    
C25   C27   A    
N13   H21   S    
C26   C28   A    
S10   O38   S    
C28   C30   A    
C15   O7    A    
O20   H8    S    
N11   H17   S    
C29   N9    S    
C11   C13   A    
C19   N8    S    
S4    O20   S    
C17   C19   D    
C6    N13   S    
S10   O37   D    
S10   O36   D    
S9    O35   S    
C18   C20   D    
C23   C25   A    
C23   S6    S    
N12   H19   S    
C24   S5    S    
O7    Zn2   S    
O2    Zn2   S    
C20   N7    S    
C1    O3    A    
S3    O15   D    
C2    O4    A    
S7    O29   S    
S8    O30   D    
C8    C10   A    
C9    N5    S    
S4    O19   D    
O5    Zn1   S    
C10   N6    S    
C4    C30   A    
O41   H27   S    
C5    N14   S    
