data_mof_unit_931.cif
_audit_creation_date              2012-12-11T15:18:31-0500
_audit_creation_method            fapswitch 2.2
_symmetry_space_group_name_H-M    P1
_symmetry_Int_Tables_number       1
_space_group_crystal_system       triclinic
_cell_length_a                    6.940614
_cell_length_b                    19.985933
_cell_length_c                    23.689784
_cell_angle_alpha                 93.481518
_cell_angle_beta                  90.318815
_cell_angle_gamma                 89.503507
_cell_volume                      3279.89034273

loop_
_atom_site_label
_atom_site_type_symbol
_atom_type_description
_atom_site_fract_x
_atom_site_fract_y
_atom_site_fract_z
_atom_type_partial_charge
O1    O     O_R   0.620100 0.812200 0.810870 -0.548018
O2    O     O_R   0.379900 0.187800 0.189130 -0.548220
O3    O     O_R   0.296960 0.671650 0.794750 -0.546938
O4    O     O_R   0.703040 0.328350 0.205250 -0.547220
O5    O     O_R   0.120160 0.687800 0.689130 -0.528048
O6    O     O_R   0.879840 0.312200 0.310870 -0.525902
C1    C     C_R   0.466683 0.646966 0.804438 0.679435
C2    C     C_R   0.533318 0.353038 0.195566 0.679088
O7    O     O_R   0.290810 0.810670 0.817290 -0.551560
O8    O     O_R   0.709190 0.189330 0.182710 -0.551520
O9    O     O_R   0.113980 0.827820 0.711840 -0.527264
O10   O     O_R   0.886020 0.172180 0.288160 -0.527091
C3    C     C_R   0.459288 0.831807 0.834348 0.688544
C4    C     C_R   0.540712 0.168192 0.165653 0.688026
O11   O     O_R   0.626290 0.672180 0.788160 -0.544714
O12   O     O_R   0.373710 0.327820 0.211840 -0.544790
O13   O     O_3   0.451520 0.755460 0.715370 -0.346148
O14   O     O_3   0.548480 0.244540 0.284630 -0.345297
V1    V     V_3+5 0.179200 0.748980 0.756420 1.470363
V2    V     V_3+5 0.820800 0.251020 0.243580 1.472791
O15   O     O_R   0.783880 0.828350 0.705250 -0.532163
O16   O     O_R   0.216120 0.171650 0.294750 -0.532163
C5    C     C_R   0.952734 0.853703 0.695955 0.782895
C6    C     C_R   0.047298 0.146339 0.304101 0.780636
O17   O     O_R   0.790030 0.689320 0.682700 -0.529403
O18   O     O_R   0.209970 0.310680 0.317300 -0.530471
C7    C     C_R   0.959511 0.668783 0.665466 0.828848
C8    C     C_R   0.040497 0.331279 0.334487 0.831292
V3    V     V_3+5 0.678400 0.751010 0.743570 1.510548
V4    V     V_3+5 0.321600 0.248990 0.256430 1.510578
O19   O     O_3   0.955950 0.744540 0.784620 -0.391235
O20   O     O_3   0.044050 0.255460 0.215380 -0.391492
C9    C     C_R   0.961735 0.444193 0.376939 -0.293225
C10   C     C_R   0.039132 0.556061 0.622845 -0.287211
C11   C     C_R   0.027770 0.378953 0.384879 -0.188190
C12   C     C_R   0.972276 0.621212 0.614995 -0.173568
C13   C     C_R   0.070959 0.359847 0.440368 0.414116
C14   C     C_R   0.928330 0.640339 0.559546 0.357505
C15   C     C_R   0.074328 0.409860 0.485890 -0.035537
C16   C     C_R   0.925886 0.590416 0.513930 -0.043476
C17   C     C_R   0.005413 0.475455 0.477032 0.021875
C18   C     C_R   0.995258 0.524858 0.522752 0.037051
C19   C     C_R   0.945128 0.491738 0.422629 0.119880
C20   C     C_R   0.055752 0.508567 0.577138 0.114267
C21   C     C_R   0.145194 0.396696 0.540039 -0.065848
C22   C     C_R   0.855380 0.603586 0.459740 -0.108352
C23   C     C_R   0.132805 0.444875 0.585100 -0.179674
C24   C     C_R   0.868228 0.555446 0.414650 -0.173870
H1    H     H_    0.920871 0.457684 0.334811 0.127134
H2    H     H_    0.080374 0.542570 0.664944 0.126744
H3    H     H_    0.215809 0.349860 0.548034 0.214614
H4    H     H_    0.784667 0.650376 0.451709 0.225589
H5    H     H_    0.185675 0.432383 0.626324 0.138883
H6    H     H_    0.815587 0.567954 0.373405 0.134450
C25   C     C_R   0.971205 0.916281 0.665770 -0.069010
C26   C     C_R   0.029549 0.083585 0.334079 -0.063456
C27   C     C_R   0.138425 0.021570 0.662129 -0.039478
C28   C     C_R   0.867917 0.977133 0.337012 -0.039890
C29   C     C_R   0.074629 0.968748 0.692381 -0.198863
C30   C     C_R   0.928531 0.030742 0.307140 -0.199032
C31   C     C_R   0.923549 0.919188 0.608179 -0.085595
C32   C     C_R   0.077493 0.080443 0.391624 -0.098371
C33   C     C_R   0.993846 0.971503 0.575153 0.059840
C34   C     C_R   0.012101 0.026915 0.424111 0.057479
C35   C     C_R   0.107047 0.022737 0.603286 0.007475
C36   C     C_R   0.900923 0.975340 0.395749 -0.001569
C37   C     C_R   0.962064 0.973098 0.515053 -0.008378
C38   C     C_R   0.046158 0.024629 0.484015 0.002795
C39   C     C_R   0.162867 0.072279 0.513657 -0.240817
C40   C     C_R   0.849480 0.924428 0.485063 -0.169974
C41   C     C_R   0.191800 0.072729 0.571952 0.427520
C42   C     C_R   0.820142 0.924265 0.426734 0.439540
H7    H     H_    0.154586 0.122647 0.410258 0.178566
H8    H     H_    0.841679 0.877835 0.590101 0.182456
H9    H     H_    0.889311 0.032283 0.262871 0.107199
H10   H     H_    0.113458 0.967426 0.736695 0.109802
H11   H     H_    0.219873 0.059852 0.685501 0.199843
H12   H     H_    0.787905 0.938625 0.313445 0.191848
H13   H     H_    0.237506 0.109812 0.492026 0.204367
H14   H     H_    0.779761 0.885486 0.506286 0.211273
C43   C     C_R   0.481384 0.585593 0.835439 -0.041403
C44   C     C_R   0.518622 0.414414 0.164568 -0.040544
C45   C     C_R   0.560065 0.467636 0.835244 -0.150217
C46   C     C_R   0.439978 0.532374 0.164767 -0.155554
C47   C     C_R   0.531430 0.525330 0.806170 -0.172330
C48   C     C_R   0.468594 0.474677 0.193839 -0.173586
C49   C     C_R   0.460916 0.588076 0.894470 -0.214378
C50   C     C_R   0.539093 0.411933 0.105538 -0.214488
C51   C     C_R   0.493378 0.530129 0.925463 0.086772
C52   C     C_R   0.506652 0.469882 0.074547 0.086930
C53   C     C_R   0.542972 0.469541 0.894330 0.133412
C54   C     C_R   0.457071 0.530471 0.105681 0.136078
C55   C     C_R   0.481249 0.530273 0.985980 0.057801
C56   C     C_R   0.518788 0.469739 0.014031 0.057043
C57   C     C_R   0.566446 0.411093 0.980625 -0.186404
C58   C     C_R   0.433605 0.588921 0.019386 -0.186627
C59   C     C_R   0.577769 0.411192 0.922184 -0.191716
C60   C     C_R   0.422287 0.588821 0.077827 -0.195724
H15   H     H_    0.615640 0.364877 0.898464 0.134506
H16   H     H_    0.384429 0.635137 0.101548 0.130503
H17   H     H_    0.575219 0.363771 0.085334 0.093625
H18   H     H_    0.424772 0.636237 0.914673 0.093288
H19   H     H_    0.450378 0.476893 0.239319 0.110192
H20   H     H_    0.549648 0.523113 0.760690 0.111618
H21   H     H_    0.598736 0.421460 0.811479 0.130113
H22   H     H_    0.401322 0.578551 0.188533 0.124218
H23   H     H_    0.596775 0.363768 0.998288 0.125292
H24   H     H_    0.403289 0.636247 0.001723 0.124451
C61   C     C_R   0.684193 0.074238 0.103762 -0.218063
C62   C     C_R   0.315802 0.925755 0.896244 -0.216704
C63   C     C_R   0.530553 0.119159 0.116034 -0.077969
C64   C     C_R   0.469446 0.880836 0.883969 -0.078048
C65   C     C_R   0.365019 0.116147 0.081316 -0.220305
C66   C     C_R   0.634977 0.883846 0.918689 -0.220704
C67   C     C_R   0.352868 0.069442 0.034664 0.089560
C68   C     C_R   0.647124 0.930548 0.965343 0.090417
C69   C     C_R   0.506265 0.023927 0.023190 0.054142
C70   C     C_R   0.493727 0.976063 0.976818 0.054069
C71   C     C_R   0.672034 0.026124 0.058059 0.091653
C72   C     C_R   0.327958 0.973866 0.941949 0.090978
C73   C     C_R   0.189899 0.067387 0.999250 -0.187319
C74   C     C_R   0.810091 0.932602 0.000758 -0.189294
C75   C     C_R   0.177729 0.020129 0.953274 -0.175767
C76   C     C_R   0.822260 0.979860 0.046735 -0.178757
H25   H     H_    0.811578 0.075804 0.130505 0.119157
H26   H     H_    0.188418 0.924189 0.869501 0.119568
H27   H     H_    0.246265 0.150710 0.090259 0.124413
H28   H     H_    0.753733 0.849283 0.909745 0.124173
H29   H     H_    0.070999 0.102091 0.007321 0.134576
H30   H     H_    0.928990 0.897898 0.992687 0.133742
H31   H     H_    0.049909 0.019479 0.926774 0.138516
H32   H     H_    0.950079 0.980510 0.073235 0.137278
S1    S     S_3+6 0.090389 0.273070 0.453210 -0.021879
O21   O     O_2   0.966174 0.233193 0.411661 -0.374729
O22   O     O_2   0.296711 0.250864 0.446269 -0.323441
O23   O     O_3   0.014572 0.257962 0.518567 -0.484417
H33   H     H_    0.000289 0.208697 0.518291 0.386033
S2    S     S_3+6 0.905632 0.727163 0.547064 -0.006923
O24   O     O_2   0.698670 0.748341 0.554519 -0.305071
O25   O     O_2   0.028296 0.767696 0.588546 -0.372597
O26   O     O_3   0.978044 0.743935 0.481782 -0.462555
H34   H     H_    0.116471 0.731462 0.480588 0.365279
S3    S     S_3+6 0.343415 0.136011 0.603547 0.008703
O27   O     O_2   0.230144 0.177816 0.646810 -0.325891
O28   O     O_2   0.510954 0.103563 0.632062 -0.332945
O29   O     O_3   0.428195 0.186053 0.554919 -0.463798
H35   H     H_    0.498199 0.222016 0.576880 0.389318
S4    S     S_3+6 0.672742 0.860117 0.394454 0.034774
O30   O     O_2   0.603447 0.813204 0.437133 -0.272911
O31   O     O_2   0.501160 0.891703 0.367222 -0.339783
O32   O     O_3   0.801320 0.816188 0.344709 -0.496074
H36   H     H_    0.710128 0.782986 0.327356 0.364610

loop_
_geom_bond_atom_site_label_1
_geom_bond_atom_site_label_2
_ccdc_geom_bond_type
S3    O29   S    
V4    O20   S    
C33   C35   A    
C55   C56   A    
C67   C73   A    
O11   V3    S    
C25   C29   A    
O13   V3    S    
C17   C18   A    
S4    O32   S    
O4    C2    A    
V1    O19   S    
C70   C72   A    
C64   C66   A    
C50   H17   S    
C54   C60   A    
C15   C17   A    
C71   C76   A    
C24   H6    S    
O9    V1    S    
C68   C74   A    
C2    C44   S    
C34   C38   A    
C11   C13   A    
C46   C48   A    
O5    V1    S    
C3    C64   S    
O3    C1    A    
C69   C71   A    
C27   C29   A    
C21   H3    S    
C28   C30   A    
S3    O27   D    
C22   H4    S    
C76   H32   S    
C31   C33   A    
C39   C41   A    
O7    C3    A    
C32   C34   A    
C9    C11   A    
C1    C43   S    
O5    C7    A    
C28   C36   A    
C36   C42   A    
C8    C11   S    
O8    V2    S    
C38   C39   A    
C67   C69   A    
C58   C60   A    
S1    O23   S    
C46   H22   S    
O32   H36   S    
C32   H7    S    
O3    V1    S    
O14   V4    S    
C51   C53   A    
C19   C24   A    
C10   C12   A    
C20   C23   A    
C23   H5    S    
C26   C32   A    
C73   H29   S    
C16   C18   A    
C58   H24   S    
C2    O12   A    
C17   C19   A    
C18   C20   A    
C48   H19   S    
C59   H15   S    
O7    V1    S    
C52   C56   A    
C22   C24   A    
C21   C23   A    
O17   V3    S    
C4    C63   S    
C33   C37   A    
C10   H2    S    
C40   H14   S    
C37   C38   A    
C9    C19   A    
C27   H11   S    
C10   C20   A    
S4    O30   D    
O8    C4    A    
C62   C72   A    
C1    O11   A    
C44   C48   A    
O15   V3    S    
C45   H21   S    
C34   C36   A    
C16   C22   A    
C49   H18   S    
C66   H28   S    
C52   C54   A    
O10   V2    S    
O1    V3    S    
C14   S2    S    
C63   C65   A    
C53   C59   A    
C43   C49   A    
C47   H20   S    
C57   H23   S    
C62   H26   S    
C65   H27   S    
S4    O31   D    
C61   H25   S    
C45   C47   A    
C50   C52   A    
O18   V4    S    
C55   C58   A    
C60   H16   S    
O15   C5    A    
S1    O21   D    
C31   H8    S    
O16   C6    A    
C39   H13   S    
O1    C3    A    
C74   C76   A    
C12   C14   A    
O6    V2    S    
C61   C71   A    
C41   S3    S    
O29   H35   S    
V2    O20   S    
S3    O28   D    
C57   C59   A    
O16   V4    S    
C75   H31   S    
C27   C35   A    
O23   H33   S    
S2    O26   S    
C66   C68   A    
C72   C75   A    
C5    C25   S    
S2    O25   D    
C7    C12   S    
C6    C26   S    
C45   C53   A    
O10   C6    A    
C30   H9    S    
O18   C8    A    
C15   C21   A    
O2    V4    S    
C37   C40   A    
C61   C63   A    
V3    O19   S    
C42   S4    S    
C69   C70   A    
C14   C16   A    
C44   C50   A    
C25   C31   A    
O9    C5    A    
O13   V1    S    
C68   C70   A    
O14   V2    S    
C51   C55   A    
C56   C57   A    
O2    C4    A    
C13   S1    S    
C62   C64   A    
C73   C75   A    
S2    O24   D    
C28   H12   S    
O4    V2    S    
C26   C30   A    
O6    C8    A    
C35   C41   A    
C13   C15   A    
C9    H1    S    
S1    O22   D    
C49   C51   A    
C40   C42   A    
C46   C54   A    
O26   H34   S    
O12   V4    S    
C29   H10   S    
C74   H30   S    
C43   C47   A    
C65   C67   A    
O17   C7    A    
