data_mof_unit_1855.cif
_audit_creation_date              2013-03-05T15:50:11-0500
_audit_creation_method            fapswitch 2.2
_symmetry_space_group_name_H-M    P1
_symmetry_Int_Tables_number       1
_space_group_crystal_system       triclinic
_cell_length_a                    15.332496
_cell_length_b                    15.436265
_cell_length_c                    9.573332
_cell_angle_alpha                 90.003728
_cell_angle_beta                  87.708709
_cell_angle_gamma                 90.001327
_cell_volume                      2263.97090158

loop_
_atom_site_label
_atom_site_type_symbol
_atom_site_description
_atom_site_fract_x
_atom_site_fract_y
_atom_site_fract_z
_atom_type_partial_charge
O1    O     O_R   0.409820 0.909830 0.618810 -0.598677
O2    O     O_R   0.409820 0.090170 0.618810 -0.598593
O3    O     O_R   0.909820 0.409830 0.618810 -0.598665
O4    O     O_R   0.909820 0.590170 0.618810 -0.598647
O5    O     O_R   0.409840 0.909830 0.381240 -0.584121
O6    O     O_R   0.409840 0.090170 0.381240 -0.584083
O7    O     O_R   0.909840 0.409830 0.381240 -0.584096
O8    O     O_R   0.909840 0.590170 0.381240 -0.584105
C1    C     C_R   0.380310 0.881246 0.502935 0.830894
C2    C     C_R   0.380287 0.118732 0.502945 0.830898
C3    C     C_R   0.880295 0.381259 0.502935 0.830943
C4    C     C_R   0.880311 0.618755 0.502938 0.830897
Cu1   Cu    Cu3+1 0.499990 0.000000 0.640660 0.942713
Cu2   Cu    Cu3+1 0.999990 0.500000 0.640660 0.942688
Cu3   Cu    Cu3+1 0.500010 0.000000 0.359340 1.004252
Cu4   Cu    Cu3+1 0.000010 0.500000 0.359340 1.004241
O9    O     O_R   0.590170 0.090170 0.618760 -0.605229
O10   O     O_R   0.590170 0.909830 0.618760 -0.605220
O11   O     O_R   0.090170 0.590170 0.618760 -0.605220
O12   O     O_R   0.090170 0.409830 0.618760 -0.605225
O13   O     O_R   0.590190 0.090180 0.381190 -0.557739
O14   O     O_R   0.590190 0.909820 0.381190 -0.557740
O15   O     O_R   0.090190 0.590180 0.381190 -0.557745
O16   O     O_R   0.090190 0.409820 0.381190 -0.557747
C5    C     C_R   0.610660 0.126055 0.498296 0.818899
C6    C     C_R   0.610680 0.873957 0.498285 0.818858
C7    C     C_R   0.110673 0.626046 0.498291 0.818853
C8    C     C_R   0.110677 0.373957 0.498285 0.818857
H1    H     H_    0.319519 0.198644 0.284759 0.203494
H2    H     H_    0.319496 0.801359 0.284714 0.203409
H3    H     H_    0.819534 0.698662 0.284726 0.203438
H4    H     H_    0.819419 0.301425 0.284708 0.203383
C9    C     C_R   0.280011 0.177782 0.770641 -0.158464
C10   C     C_R   0.280198 0.822039 0.770614 -0.158499
C11   C     C_R   0.780170 0.677953 0.770609 -0.158479
C12   C     C_R   0.780185 0.322065 0.770623 -0.158525
H5    H     H_    0.343350 0.155493 0.797766 0.187963
H6    H     H_    0.343607 0.844148 0.797662 0.188052
H7    H     H_    0.843569 0.655826 0.797669 0.188053
H8    H     H_    0.843591 0.344187 0.797662 0.188035
C13   C     C_R   0.219895 0.184541 0.882857 -0.113356
C14   C     C_R   0.220103 0.815359 0.882865 -0.113474
C15   C     C_R   0.720066 0.684647 0.882849 -0.113417
C16   C     C_R   0.720112 0.315365 0.882898 -0.113495
H9    H     H_    0.237357 0.163209 0.985816 0.171564
H10   H     H_    0.237627 0.836638 0.985820 0.171611
H11   H     H_    0.737576 0.663367 0.985806 0.171632
H12   H     H_    0.737648 0.336647 0.985845 0.171614
C17   C     C_R   0.635711 0.711863 0.860564 -0.107617
C18   C     C_R   0.635757 0.288122 0.860673 -0.107512
C19   C     C_R   0.135575 0.211866 0.860546 -0.107567
C20   C     C_R   0.135742 0.788151 0.860599 -0.107577
H13   H     H_    0.586491 0.706470 0.944526 0.180205
H14   H     H_    0.586564 0.293490 0.944680 0.180321
H15   H     H_    0.086334 0.206515 0.944487 0.180161
H16   H     H_    0.086531 0.793550 0.944574 0.180231
C21   C     C_R   0.613718 0.740700 0.728535 0.010116
C22   C     C_R   0.613729 0.259277 0.728660 0.009977
C23   C     C_R   0.113631 0.240706 0.728499 0.010110
C24   C     C_R   0.113733 0.759306 0.728574 0.010097
C25   C     C_R   0.678629 0.747934 0.619370 0.001548
C26   C     C_R   0.678603 0.252087 0.619422 0.001511
C27   C     C_R   0.178569 0.247906 0.619367 0.001550
C28   C     C_R   0.178631 0.752072 0.619389 0.001529
C29   C     C_R   0.257933 0.202698 0.633405 0.099272
C30   C     C_R   0.258029 0.797219 0.633389 0.099210
C31   C     C_R   0.758021 0.702782 0.633384 0.099193
C32   C     C_R   0.757999 0.297248 0.633402 0.099268
C33   C     C_R   0.308960 0.182825 0.509140 -0.139961
C34   C     C_R   0.309009 0.817126 0.509109 -0.139874
C35   C     C_R   0.809014 0.682878 0.509114 -0.139896
C36   C     C_R   0.808969 0.317163 0.509112 -0.139867
C37   C     C_R   0.284113 0.216262 0.380801 -0.265433
C38   C     C_R   0.284116 0.783724 0.380768 -0.265406
C39   C     C_R   0.784142 0.716291 0.380775 -0.265368
C40   C     C_R   0.784054 0.283779 0.380770 -0.265427
C41   C     C_R   0.713362 0.771451 0.371428 0.332882
C42   C     C_R   0.713273 0.228616 0.371443 0.332931
C43   C     C_R   0.213343 0.271431 0.371439 0.332853
C44   C     C_R   0.213332 0.728566 0.371431 0.332904
C45   C     C_R   0.665011 0.794580 0.494366 -0.219584
C46   C     C_R   0.664962 0.205455 0.494399 -0.219616
C47   C     C_R   0.164991 0.294569 0.494367 -0.219564
C48   C     C_R   0.164998 0.705430 0.494378 -0.219591
H17   H     H_    0.363308 0.999965 0.137923 0.130108
H18   H     H_    0.863308 0.500006 0.137922 0.130115
C49   C     C_R   0.660325 0.000013 0.134960 -0.001595
C50   C     C_R   0.160325 0.499989 0.134960 -0.001625
H19   H     H_    0.667716 1.000000 0.244338 0.180538
H20   H     H_    0.167716 0.499993 0.244338 0.180530
C51   C     C_R   0.739077 0.000029 0.058561 -0.039336
C52   C     C_R   0.239077 0.499983 0.058561 -0.039314
H21   H     H_    0.800148 0.000034 0.111657 0.161604
H22   H     H_    0.300147 0.499978 0.111657 0.161613
C53   C     C_R   0.739696 0.000032 0.914968 -0.167699
C54   C     C_R   0.239696 0.499989 0.914968 -0.167676
H23   H     H_    0.801281 0.000039 0.855437 0.160397
H24   H     H_    0.301281 0.499988 0.855437 0.160392
C55   C     C_R   0.661567 0.000019 0.846943 -0.128468
C56   C     C_R   0.161567 0.499999 0.846943 -0.128471
H25   H     H_    0.671083 0.000011 0.736888 0.205346
H26   H     H_    0.171083 0.500007 0.736888 0.205338
C57   C     C_R   0.579215 0.000012 0.920474 0.210458
C58   C     C_R   0.079215 0.499998 0.920474 0.210466
C59   C     C_R   0.578951 0.000010 0.070171 0.229295
C60   C     C_R   0.078951 0.499996 0.070172 0.229307
N1    N     N_R   0.501200 0.000000 0.147910 -0.189874
N2    N     N_R   0.001200 0.500000 0.147910 -0.189870
C61   C     C_R   0.424905 0.999981 0.078745 -0.030381
C62   C     C_R   0.924905 0.500003 0.078744 -0.030438
H27   H     H_    0.363443 0.999952 0.879265 0.124599
H28   H     H_    0.863444 0.500006 0.879262 0.124705
C63   C     C_R   0.424955 0.999977 0.930745 -0.101121
C64   C     C_R   0.924955 0.500003 0.930744 -0.101168
N3    N     N_R   0.501270 0.000000 0.852040 -0.199519
N4    N     N_R   0.001270 0.500000 0.852040 -0.199530
C65   C     C_1   0.523018 0.736181 0.697170 0.244535
N5    N     N_1   0.450414 0.728540 0.672194 -0.297279
C66   C     C_1   0.522998 0.263688 0.697448 0.244771
N6    N     N_1   0.450358 0.271237 0.672631 -0.297099
C67   C     C_1   0.022941 0.236187 0.697072 0.244512
N7    N     N_1   0.950345 0.228537 0.672053 -0.297284
C68   C     C_1   0.023026 0.763807 0.697247 0.244578
N8    N     N_1   0.950416 0.771431 0.672305 -0.297251
N9    N     N_R   0.688462 0.797862 0.234863 0.109120
O17   O     O_R   0.608822 0.784681 0.197679 -0.377260
O18   O     O_R   0.748476 0.813790 0.138361 -0.411597
N10   N     N_R   0.688338 0.202216 0.234885 0.109137
O19   O     O_R   0.608683 0.215377 0.197769 -0.377279
O20   O     O_R   0.748328 0.186289 0.138342 -0.411651
N11   N     N_R   0.188450 0.297840 0.234867 0.109131
O21   O     O_R   0.108805 0.284679 0.197689 -0.377245
O22   O     O_R   0.248468 0.313732 0.138355 -0.411525
N12   N     N_R   0.188411 0.702160 0.234868 0.109136
O23   O     O_R   0.108765 0.715338 0.197717 -0.377244
O24   O     O_R   0.248411 0.686228 0.138345 -0.411620

loop_
_geom_bond_atom_site_label_1
_geom_bond_atom_site_label_2
_geom_bond_distance
_ccdc_geom_bond_type
C23   C67   1.436077 S    
C55   C57   1.420837 A    
C27   C29   1.413816 A    
C22   C26   1.418512 A    
C49   C51   1.386472 A    
C11   H7    1.071843 S    
O10   C6    1.306384 A    
C52   C54   1.374312 A    
C44   C48   1.411523 A    
C42   N10   1.435680 S    
N10   O19   1.301492 A    
C10   C30   1.422590 A    
C58   C60   1.432946 A    
C9    C29   1.422761 A    
C68   N8    1.153932 T    
O7    C3    1.309526 A    
C59   N1    1.379879 A    
C18   H14   1.083530 S    
Cu1   O10   1.967230 S    
C7    C48   1.481282 S    
H18   C62   1.081732 S    
C40   C42   1.385107 A    
H17   C61   1.081735 S    
H2    C38   1.083553 S    
C53   C55   1.386163 A    
H1    C37   1.083554 S    
C56   C58   1.420837 A    
C44   N12   1.435689 S    
C14   H10   1.082894 S    
Cu3   N1    2.023443 S    
O2    Cu1   1.978827 S    
C25   C31   1.413736 A    
C28   C48   1.419226 A    
C20   C24   1.394141 A    
O6    Cu3   1.967122 S    
C58   N4    1.385667 A    
Cu3   O14   1.979044 S    
C50   C52   1.386471 A    
C10   C14   1.391140 A    
C43   C47   1.411491 A    
C54   H24   1.083231 S    
C34   C38   1.399463 A    
C33   C37   1.399498 A    
O15   C7    1.299991 A    
O4    C4    1.292324 A    
C11   C15   1.391148 A    
C62   C64   1.416827 A    
C19   H15   1.083558 S    
C61   C63   1.416823 A    
N9    O17   1.301492 A    
C26   C46   1.419266 A    
O8    Cu4   1.967122 S    
C38   C44   1.385112 A    
C8    C47   1.481283 S    
N1    C61   1.367030 A    
C41   N9    1.435693 S    
C56   H26   1.057852 S    
C18   C22   1.394131 A    
Cu2   O12   1.967230 S    
C12   H8    1.071840 S    
O1    C1    1.292300 A    
C1    C34   1.474135 S    
H27   C63   1.081464 S    
C3    C36   1.474179 S    
C15   C17   1.384535 A    
N12   O24   1.301032 A    
O12   C8    1.306383 A    
C9    H5    1.071981 S    
C27   C47   1.419235 A    
C32   C36   1.430639 A    
C28   C30   1.413725 A    
C24   C68   1.436081 S    
C57   N3    1.385668 A    
O5    C1    1.309520 A    
C51   H21   1.083144 S    
C50   C60   1.415363 A    
C42   C46   1.411514 A    
H3    C39   1.083553 S    
C49   C59   1.415365 A    
C11   C31   1.422598 A    
O8    C4    1.309507 A    
C43   N11   1.435709 S    
C52   H22   1.083143 S    
C37   C43   1.385102 A    
C36   C40   1.399468 A    
C57   C59   1.432946 A    
C39   C41   1.385118 A    
C67   N7    1.153930 T    
Cu1   N3    2.024491 S    
O3    Cu2   1.978763 S    
H28   C64   1.081461 S    
O7    Cu4   1.967097 S    
C55   H25   1.057852 S    
C4    C35   1.474152 S    
C50   H20   1.057720 S    
C6    C45   1.481300 S    
Cu1   Cu3   2.693157 S    
C5    C46   1.481304 S    
Cu2   Cu4   2.693157 S    
C12   C16   1.391114 A    
C19   C23   1.394102 A    
N11   O21   1.301494 A    
O2    C2    1.292287 A    
O11   C7    1.306397 A    
C21   C65   1.436081 S    
C16   C18   1.384508 A    
C29   C33   1.430722 A    
O13   C5    1.300032 A    
C53   H23   1.083232 S    
C10   H6    1.071828 S    
Cu2   O11   1.967203 S    
O16   C8    1.299992 A    
N11   O22   1.301047 A    
N10   O20   1.301037 A    
H4    C40   1.083554 S    
C17   C21   1.394137 A    
C64   N4    1.366133 A    
C66   N6    1.153956 T    
C12   C32   1.422613 A    
C21   C25   1.418449 A    
N12   O23   1.301489 A    
Cu1   O9    1.967203 S    
Cu4   O15   1.978979 S    
C23   C27   1.418469 A    
C26   C32   1.413778 A    
C24   C28   1.418454 A    
C9    C13   1.391171 A    
C49   H19   1.057722 S    
O9    C5    1.306372 A    
C25   C45   1.419242 A    
C65   N5    1.153934 T    
C35   C39   1.399482 A    
C30   C34   1.430612 A    
C60   N2    1.379879 A    
Cu2   N4    2.024491 S    
C54   C56   1.386164 A    
C22   C66   1.436108 S    
N2    C62   1.367031 A    
C31   C35   1.430601 A    
O4    Cu2   1.978827 S    
O5    Cu3   1.967097 S    
C17   H13   1.083529 S    
O3    C3    1.292313 A    
O6    C2    1.309559 A    
Cu4   N2    2.023443 S    
C51   C53   1.374313 A    
C2    C33   1.474181 S    
C20   H16   1.083534 S    
Cu3   O13   1.978979 S    
O1    Cu1   1.978763 S    
Cu4   O16   1.979044 S    
C41   C45   1.411517 A    
O14   C6    1.300008 A    
N9    O18   1.301044 A    
C13   H9    1.082949 S    
C15   H11   1.082898 S    
C13   C19   1.384578 A    
C16   H12   1.082900 S    
C14   C20   1.384529 A    
C63   N3    1.366139 A    
