data_mof_unit_2933.cif
_audit_creation_date              2012-12-10T17:57:26-0500
_audit_creation_method            fapswitch 2.2
_symmetry_space_group_name_H-M    P1
_symmetry_Int_Tables_number       1
_space_group_crystal_system       triclinic
_cell_length_a                    9.523577
_cell_length_b                    10.844958
_cell_length_c                    13.482898
_cell_angle_alpha                 90.752289
_cell_angle_beta                  73.042209
_cell_angle_gamma                 90.136975
_cell_volume                      1331.88674035

loop_
_atom_site_label
_atom_site_type_symbol
_atom_type_description
_atom_site_fract_x
_atom_site_fract_y
_atom_site_fract_z
_atom_type_partial_charge
C1    C     C_R   0.499400 0.737735 0.501607 0.860318
C2    C     C_R   0.444937 0.444507 0.974182 0.089870
C3    C     C_R   0.490577 0.440646 0.864195 0.074807
C4    C     C_R   0.552530 0.463076 0.027420 0.073494
C5    C     C_R   0.702305 0.471889 0.969659 0.093641
C6    C     C_R   0.745942 0.444728 0.864241 -0.248233
C7    C     C_R   0.641714 0.423218 0.813251 -0.175148
C8    C     C_R   0.516422 0.476494 0.135601 -0.313090
C9    C     C_R   0.772619 0.511133 0.125624 0.387940
C10   C     C_R   0.383184 0.452639 0.809834 -0.112088
C11   C     C_R   0.621333 0.934899 0.514050 -0.173208
C12   C     C_R   0.423530 0.484878 0.698631 0.770475
C13   C     C_R   0.619191 0.061997 0.523047 0.334953
C14   C     C_R   0.492817 0.127944 0.518284 -0.233291
C15   C     C_R   0.362809 0.062636 0.521875 0.415515
C16   C     C_R   0.366865 0.934783 0.514162 -0.301460
C17   C     C_R   0.496568 0.871145 0.508128 -0.173278
C18   C     C_R   0.899171 0.582621 0.561473 0.571381
C19   C     C_R   0.050683 0.582507 0.559638 -0.278640
C20   C     C_R   0.100428 0.416765 0.439045 0.611558
C21   C     C_R   0.948893 0.416767 0.441191 -0.243317
C22   C     C_R   0.497192 0.262193 0.506851 0.815156
C23   C     C_R   0.578580 0.500355 0.299865 0.825217
C24   C     C_R   0.808348 0.503215 0.018166 -0.230351
C25   C     C_R   0.624853 0.495786 0.185691 -0.136737
C26   C     C_R   0.234789 0.435584 0.863996 -0.211090
C27   C     C_R   0.192737 0.416742 0.970357 -0.131528
C28   C     C_R   0.294277 0.428246 0.025735 -0.164434
Cu1   Cu    Cu3+1 0.359340 0.499980 0.500000 0.988389
Cu2   Cu    Cu3+1 0.640660 0.500020 0.500000 0.989842
H1    H     H_    0.267939 0.885920 0.513061 0.173424
H2    H     H_    0.092439 0.648041 0.604947 0.146063
H3    H     H_    0.906225 0.349968 0.397556 0.174220
H4    H     H_    0.861319 0.438566 0.821130 0.131262
H5    H     H_    0.920078 0.519597 0.971941 0.149154
H6    H     H_    0.404118 0.472118 0.182824 0.176243
H7    H     H_    0.151231 0.435602 0.824050 0.143178
H8    H     H_    0.251534 0.420761 0.108340 0.115534
H9    H     H_    0.080101 0.396074 0.011416 0.152184
H10   H     H_    0.683177 0.389402 0.734615 0.172919
H11   H     H_    0.720287 0.886121 0.514631 0.206462
N1    N     N_R   0.147940 0.499970 0.499970 -0.212442
N2    N     N_R   0.852060 0.500060 0.499990 -0.209430
O1    O     O_R   0.381250 0.680340 0.500010 -0.595035
O2    O     O_R   0.618820 0.680370 0.500010 -0.530217
O3    O     O_R   0.323240 0.499950 0.650980 -0.598180
O4    O     O_R   0.560810 0.499980 0.650980 -0.557705
O5    O     O_R   0.381180 0.319630 0.499990 -0.482043
O6    O     O_R   0.618750 0.319660 0.499990 -0.594950
O7    O     O_R   0.439190 0.500020 0.349020 -0.558898
O8    O     O_R   0.676760 0.500050 0.349020 -0.571211
O9    O     O_3   0.883640 0.535615 0.169065 -0.724281
H12   H     H_    0.892563 0.461378 0.208920 0.316447
O10   O     O_3   0.741241 0.117813 0.538206 -0.744685
H13   H     H_    0.705750 0.176381 0.597297 0.320585
O11   O     O_3   0.232580 0.123754 0.529721 -0.533107
C29   C     C_3   0.137908 0.111801 0.631659 0.097557
H14   H     H_    0.197466 0.118024 0.691721 0.111661
H15   H     H_    0.079251 0.022037 0.638877 0.138028
C30   C     C_3   0.025185 0.215416 0.653925 -0.758134
H16   H     H_    0.967249 0.216288 0.593572 0.270947
H17   H     H_    0.943678 0.202040 0.730851 0.184622
H18   H     H_    0.080522 0.305564 0.654433 0.240479
O12   O     O_3   0.795465 0.665902 0.620051 -0.544926
C31   C     C_3   0.835149 0.723561 0.702400 0.015890
H19   H     H_    0.918259 0.796519 0.671854 0.135094
H20   H     H_    0.877472 0.655749 0.747986 0.138902
C32   C     C_3   0.699815 0.784521 0.775331 -0.735033
H21   H     H_    0.614266 0.714047 0.807240 0.254400
H22   H     H_    0.729224 0.830775 0.840482 0.197278
H23   H     H_    0.655099 0.854315 0.733030 0.240597
O13   O     O_3   0.202188 0.329868 0.383813 -0.518350
C33   C     C_3   0.170666 0.276593 0.296394 0.012289
H24   H     H_    0.276490 0.264321 0.234804 0.169564
H25   H     H_    0.102597 0.335818 0.261854 0.093796
C34   C     C_3   0.103613 0.148783 0.321873 -0.728839
H26   H     H_    0.004020 0.152879 0.389526 0.276460
H27   H     H_    0.073541 0.110477 0.254068 0.195114
H28   H     H_    0.184450 0.086092 0.340135 0.270449

loop_
_geom_bond_atom_site_label_1
_geom_bond_atom_site_label_2
_ccdc_geom_bond_type
C22   O5    A    
Cu2   O8    S    
Cu1   N1    S    
C33   H24   S    
Cu2   O2    S    
C34   H28   S    
C4    C8    A    
C18   O12   S    
C9    C25   A    
C16   H1    S    
C26   C27   A    
C30   H18   S    
C34   H27   S    
C3    C7    A    
C5    C6    A    
C29   H15   S    
C21   H3    S    
C15   C16   A    
O11   C29   S    
C30   H17   S    
C18   C19   A    
C8    H6    S    
C21   N2    A    
C27   H9    S    
C16   C17   A    
C31   H20   S    
C7    H10   S    
C19   N1    A    
C10   C26   A    
C13   C14   A    
C8    C25   A    
C33   H25   S    
C9    O9    S    
C12   O4    A    
C19   H2    S    
Cu1   O7    S    
C24   H5    S    
Cu1   O5    S    
Cu2   O4    S    
C34   H26   S    
C12   O3    A    
C4    C5    A    
C23   O7    A    
C6    H4    S    
C30   H16   S    
C2    C4    A    
Cu1   Cu2   S    
C1    O1    A    
C23   O8    A    
C28   H8    S    
C31   C32   S    
C26   H7    S    
C10   C12   S    
C22   O6    A    
Cu2   O6    S    
Cu1   O1    S    
C33   C34   S    
Cu2   N2    S    
O9    H12   S    
C13   O10   S    
O10   H13   S    
C11   C17   A    
C32   H21   S    
O13   C33   S    
C29   C30   S    
C20   N1    A    
C9    C24   A    
C6    C7    A    
C1    C17   S    
Cu1   O3    S    
C15   O11   S    
C14   C22   S    
C2    C3    A    
C3    C10   A    
C18   N2    A    
O12   C31   S    
C11   C13   A    
C1    O2    A    
C29   H14   S    
C5    C24   A    
C32   H23   S    
C11   H11   S    
C23   C25   S    
C20   C21   A    
C32   H22   S    
C31   H19   S    
C27   C28   A    
C14   C15   A    
C20   O13   S    
C2    C28   A    
