data_mof_unit_2028.cif
_audit_creation_date              2012-12-10T18:03:18-0500
_audit_creation_method            fapswitch 2.2
_symmetry_space_group_name_H-M    P1
_symmetry_Int_Tables_number       1
_space_group_crystal_system       triclinic
_cell_length_a                    10.860218
_cell_length_b                    9.523714
_cell_length_c                    15.136122
_cell_angle_alpha                 89.666391
_cell_angle_beta                  89.791047
_cell_angle_gamma                 89.814318
_cell_volume                      1565.4781368

loop_
_atom_site_label
_atom_site_type_symbol
_atom_type_description
_atom_site_fract_x
_atom_site_fract_y
_atom_site_fract_z
_atom_type_partial_charge
C1    C     C_R   0.262429 0.499701 0.499858 0.894982
C2    C     C_R   0.737949 0.499899 0.500690 0.926199
C3    C     C_R   0.497689 0.500550 0.329640 0.870268
C4    C     C_R   0.499784 0.500051 0.669700 0.843074
C5    C     C_R   0.415665 0.075283 0.451856 0.003905
C6    C     C_R   0.582915 0.924738 0.549440 0.026424
C7    C     C_R   0.582431 0.073337 0.549689 0.021376
C8    C     C_R   0.416283 0.926595 0.451280 -0.015415
C9    C     C_R   0.065098 0.404954 0.555798 0.207788
C10   C     C_R   0.936680 0.591395 0.443610 0.218334
C11   C     C_R   0.936648 0.406101 0.556524 0.205022
C12   C     C_R   0.065060 0.587293 0.441063 0.214856
C13   C     C_R   0.553992 0.604541 0.091463 -0.226887
C14   C     C_R   0.377608 0.504216 0.902686 -0.176700
C15   C     C_R   0.600661 0.499810 0.906006 -0.226494
C16   C     C_R   0.417343 0.404894 0.094319 -0.218018
C17   C     C_R   0.555410 0.607218 0.183560 0.192634
C18   C     C_R   0.378966 0.508076 0.809750 0.220185
C19   C     C_R   0.605041 0.501345 0.814086 0.211728
C20   C     C_R   0.421953 0.401131 0.186670 0.211547
C21   C     C_R   0.492009 0.502538 0.232323 -0.090412
C22   C     C_R   0.494354 0.501935 0.765857 -0.107627
C23   C     C_R   0.485621 0.503792 0.046860 0.059509
C24   C     C_R   0.487717 0.501131 0.950247 0.038315
C25   C     C_R   0.872163 0.499793 0.500772 -0.270651
C26   C     C_R   0.128961 0.497947 0.499324 -0.265437
Cu1   Cu    Cu3+1 0.500000 0.640660 0.500000 1.000900
Cu2   Cu    Cu3+1 0.500000 0.359340 0.500000 1.021873
H1    H     H_    0.347095 0.132136 0.414378 0.159553
H2    H     H_    0.649427 0.868285 0.589103 0.127831
H3    H     H_    0.647093 0.128139 0.590475 0.178755
H4    H     H_    0.349602 0.871654 0.411908 0.170459
H5    H     H_    0.605196 0.682990 0.054523 0.148210
H6    H     H_    0.291915 0.507672 0.939204 0.148601
H7    H     H_    0.685841 0.498266 0.943136 0.147622
H8    H     H_    0.363012 0.327844 0.059449 0.150312
N1    N     N_R   0.500000 0.852070 0.500000 -0.165807
N2    N     N_R   0.500000 0.147930 0.500000 -0.172187
O1    O     O_R   0.319640 0.618740 0.499990 -0.571340
O2    O     O_R   0.680360 0.381260 0.500010 -0.560610
O3    O     O_R   0.680360 0.618740 0.500010 -0.558071
O4    O     O_R   0.319640 0.381260 0.499990 -0.551899
O5    O     O_R   0.499990 0.618780 0.371460 -0.546144
O6    O     O_R   0.500010 0.381220 0.628540 -0.546012
O7    O     O_R   0.500010 0.618780 0.628540 -0.612102
O8    O     O_R   0.499990 0.381220 0.371460 -0.576680
N3    N     N_2   0.624601 0.713005 0.226381 -0.378836
H9    H     H_    0.711209 0.725168 0.199244 0.282195
C27   C     C_3   0.561206 0.846319 0.232987 -0.598753
H10   H     H_    0.551101 0.894883 0.166454 0.198970
H11   H     H_    0.615158 0.918064 0.275395 0.243266
H12   H     H_    0.468560 0.832525 0.263054 0.240246
N4    N     N_2   0.267259 0.518216 0.759607 -0.397047
H13   H     H_    0.274536 0.566427 0.698682 0.252060
C28   C     C_3   0.151033 0.545311 0.803753 -0.601082
H14   H     H_    0.154850 0.646548 0.839743 0.213155
H15   H     H_    0.128300 0.457700 0.849692 0.239352
H16   H     H_    0.076213 0.551917 0.754070 0.235811
N5    N     N_2   0.721280 0.501823 0.770495 -0.408007
H17   H     H_    0.787056 0.442729 0.802945 0.284087
C29   C     C_3   0.766912 0.640322 0.748715 -0.657044
H18   H     H_    0.787445 0.699354 0.810029 0.220254
H19   H     H_    0.698591 0.699828 0.709055 0.238885
H20   H     H_    0.852745 0.630615 0.709104 0.234220
N6    N     N_2   0.351791 0.298491 0.233004 -0.410696
H21   H     H_    0.259739 0.301896 0.216521 0.266653
C30   C     C_3   0.401371 0.157721 0.226443 -0.680733
H22   H     H_    0.405905 0.123764 0.156394 0.220778
H23   H     H_    0.340865 0.083209 0.262594 0.222628
H24   H     H_    0.494948 0.153332 0.255729 0.246114
Br1   Br    Br    0.151358 0.274827 0.633054 -0.421651
Br2   Br    Br    0.851942 0.720263 0.365778 -0.450752
Br3   Br    Br    0.852084 0.283235 0.638209 -0.494786
Br4   Br    Br    0.151829 0.692768 0.350700 -0.501058

loop_
_geom_bond_atom_site_label_1
_geom_bond_atom_site_label_2
_ccdc_geom_bond_type
C14   H6    S    
C5    C8    A    
C23   C24   S    
C17   N3    S    
Cu2   O2    S    
C13   H5    S    
C6    C7    A    
C12   Br4   S    
C29   H20   S    
C4    C22   S    
C14   C18   A    
C3    O8    A    
N3    H9    S    
N6    C30   S    
C13   C17   A    
C16   C20   A    
C30   H24   S    
C3    O5    A    
Cu1   O7    S    
C28   H14   S    
N4    C28   S    
C6    N1    A    
N5    H17   S    
N3    C27   S    
C18   C22   A    
N4    H13   S    
C16   H8    S    
C30   H23   S    
C15   C19   A    
C9    C11   A    
Cu2   O8    S    
C2    C25   S    
C29   H18   S    
C10   C12   A    
Cu1   N1    S    
C10   C25   A    
C15   H7    S    
C15   C24   A    
C6    H2    S    
C7    N2    A    
C9    C26   A    
C27   H10   S    
C16   C23   A    
C5    H1    S    
C4    O7    A    
C28   H15   S    
C1    C26   S    
C19   C22   A    
C3    C21   S    
C7    H3    S    
C8    N1    A    
C1    O1    A    
C2    O3    A    
Cu1   O1    S    
C30   H22   S    
C8    H4    S    
C2    O2    A    
C20   N6    S    
C1    O4    A    
C20   C21   A    
C13   C23   A    
C9    Br1   S    
N6    H21   S    
C11   Br3   S    
C28   H16   S    
C14   C24   A    
Cu1   Cu2   S    
C29   H19   S    
Cu1   O5    S    
C11   C25   A    
C4    O6    A    
C18   N4    S    
C19   N5    S    
Cu2   N2    S    
C5    N2    A    
Cu2   O6    S    
C17   C21   A    
C27   H11   S    
C27   H12   S    
C12   C26   A    
Cu1   O3    S    
N5    C29   S    
Cu2   O4    S    
C10   Br2   S    
