data_mof_unit_2214.cif
_audit_creation_date              2012-12-11T19:47:19-0500
_audit_creation_method            fapswitch 2.2
_symmetry_space_group_name_H-M    P1
_symmetry_Int_Tables_number       1
_space_group_crystal_system       triclinic
_cell_length_a                    8.482668
_cell_length_b                    14.862525
_cell_length_c                    18.700911
_cell_angle_alpha                 101.66839
_cell_angle_beta                  92.27751
_cell_angle_gamma                 97.62638
_cell_volume                      2283.15932487

loop_
_atom_site_label
_atom_site_type_symbol
_atom_type_description
_atom_site_fract_x
_atom_site_fract_y
_atom_site_fract_z
_atom_type_partial_charge
Ba1   Ba    Ba6+2 0.853520 0.540910 0.466490 1.736023
Ba2   Ba    Ba6+2 0.336320 0.459170 0.533520 1.689557
C1    C     C_3   0.501604 0.830513 0.268241 0.281855
C2    C     C_R   0.900821 0.419723 0.094810 -0.059016
C3    C     C_R   0.771465 0.442521 0.953204 -0.074253
C4    C     C_3   0.085077 0.721221 0.274425 0.297470
C5    C     C_R   0.933377 0.471292 0.977420 0.024217
C6    C     C_R   0.715737 0.443748 0.882749 -0.059794
C7    C     C_R   0.818257 0.474121 0.832738 -0.045895
C8    C     C_R   0.978712 0.510382 0.856958 -0.004234
C9    C     C_R   0.036498 0.509417 0.929687 0.028779
C10   C     C_R   0.764948 0.468460 0.759123 0.005561
C11   C     C_R   0.872128 0.496672 0.710354 -0.292628
C12   C     C_3   0.564308 0.761714 0.308484 0.422012
C13   C     C_R   0.027704 0.539464 0.734178 0.046395
C14   C     C_R   0.080954 0.548180 0.808742 -0.040232
C15   C     C_R   0.153644 0.502651 0.072773 0.033793
C16   C     C_3   0.039689 0.742136 0.200580 -0.211371
C17   C     C_R   0.211088 0.501713 0.145663 -0.010412
C18   C     C_R   0.108313 0.464670 0.194011 -0.058289
C19   C     C_R   0.958633 0.418372 0.164981 0.073600
C20   C     C_R   0.232487 0.593980 0.837049 -0.014085
C21   C     C_R   0.289957 0.592186 0.907424 -0.068169
C22   C     C_R   0.196941 0.546323 0.953966 0.013003
C23   C     C_3   0.445873 0.216106 0.254923 0.805713
C24   C     C_R   0.257337 0.539552 0.024695 0.032058
C25   C     C_R   0.420145 0.565162 0.048171 -0.033856
C26   C     C_R   0.372334 0.535007 0.169177 -0.035319
C27   C     C_R   0.476056 0.562521 0.118445 -0.007458
C28   C     C_3   0.246947 0.744322 0.628634 0.287609
C29   C     C_R   0.426039 0.538956 0.242373 0.058900
C30   C     C_R   0.320071 0.507972 0.291091 -0.209930
C31   C     C_R   0.161760 0.469113 0.268238 0.064809
C32   C     C_R   0.837802 0.172686 0.531889 0.016116
C33   C     C_R   0.770729 0.079711 0.531280 0.019791
C34   C     C_3   0.466619 0.113176 0.255917 0.281638
C35   C     C_R   0.639934 0.890851 0.524716 -0.040531
C36   C     C_R   0.784570 0.930340 0.564893 -0.000242
C37   C     C_R   0.849613 0.021998 0.567124 0.006036
C38   C     C_R   0.576823 0.795670 0.517856 0.043050
C39   C     C_R   0.427405 0.762082 0.479879 -0.276590
C40   C     C_3   0.275128 0.849989 0.649369 -0.333106
C41   C     C_R   0.605398 0.190372 0.454873 -0.036256
C42   C     C_R   0.538073 0.098863 0.456038 -0.044423
C43   C     C_R   0.621851 0.042594 0.492519 0.049856
C44   C     C_R   0.387144 0.062683 0.422944 -0.046759
C45   C     C_3   0.919280 0.243283 0.704706 0.265240
C46   C     C_R   0.321695 0.972067 0.421442 -0.040678
C47   C     C_R   0.403682 0.913503 0.454027 -0.083322
C48   C     C_R   0.555613 0.948688 0.490188 0.010151
C49   C     C_R   0.337295 0.820842 0.451076 -0.028233
C50   C     C_R   0.753369 0.226458 0.494703 -0.243318
C51   C     C_3   0.041536 0.238706 0.362384 0.357409
C52   C     C_3   0.938949 0.141115 0.348507 0.564674
C53   C     C_3   0.738148 0.680414 0.690949 0.290461
C54   C     C_3   0.753846 0.715215 0.773630 -0.338974
C55   C     C_3   0.919006 0.226031 0.782319 0.400729
C56   C     C_3   0.391726 0.252588 0.718439 0.285777
C57   C     C_3   0.386074 0.151611 0.724896 0.273365
C58   C     C_R   0.993424 0.465627 0.048373 -0.005412
Cl1   Cl    Cl    0.003566 0.073155 0.407826 -0.754742
Cl2   Cl    Cl    0.444113 0.779443 0.174587 -0.617025
H1    H     H_    0.634890 0.800740 0.359162 0.005140
H2    H     H_    0.593940 0.890805 0.271831 0.139942
H3    H     H_    0.842195 0.779353 0.788364 0.156989
H4    H     H_    0.794313 0.662224 0.801199 0.049960
H5    H     H_    0.636715 0.730647 0.793567 0.133340
H6    H     H_    0.458787 0.720098 0.325214 -0.201417
H7    H     H_    0.396795 0.856212 0.294538 -0.011491
H8    H     H_    0.371626 0.083728 0.285309 -0.011610
H9    H     H_    0.576298 0.109944 0.288608 -0.003836
H10   H     H_    0.056101 0.682914 0.156055 0.063852
H11   H     H_    0.936604 0.319438 0.708515 -0.076916
H12   H     H_    0.361474 0.873577 0.697902 0.176661
H13   H     H_    0.801406 0.212533 0.675828 -0.001469
H14   H     H_    0.035730 0.255982 0.812005 0.006259
H15   H     H_    0.826957 0.262434 0.811604 0.031835
H16   H     H_    0.366636 0.252804 0.659787 0.062655
H17   H     H_    0.299617 0.284540 0.751428 0.053464
H18   H     H_    0.483354 0.121727 0.694760 0.045708
H19   H     H_    0.272535 0.111058 0.698381 0.071288
H20   H     H_    0.003433 0.659860 0.281865 0.084081
H21   H     H_    0.831614 0.488112 0.653443 0.061462
H22   H     H_    0.590376 0.420127 0.868486 0.120935
H23   H     H_    0.323685 0.879505 0.603633 0.051684
H24   H     H_    0.884913 0.378976 0.195827 0.200274
H25   H     H_    0.310039 0.631596 0.805367 0.101645
H26   H     H_    0.602186 0.583652 0.132307 0.104285
H27   H     H_    0.363256 0.511480 0.346963 0.066834
H28   H     H_    0.682873 0.419904 0.987978 0.082405
H29   H     H_    0.783847 0.381435 0.077919 0.126846
H30   H     H_    0.407693 0.629421 0.924418 0.083745
H31   H     H_    0.208441 0.704516 0.274079 -0.018866
H32   H     H_    0.508927 0.586113 0.012823 0.068509
H33   H     H_    0.850796 0.891332 0.595055 0.100228
H34   H     H_    0.160980 0.876546 0.662350 0.125973
H35   H     H_    0.964021 0.045851 0.596754 0.133097
H36   H     H_    0.206962 0.948382 0.392782 0.194311
H37   H     H_    0.317275 0.104419 0.397863 0.119940
H38   H     H_    0.376509 0.690436 0.476082 0.062659
H39   H     H_    0.805832 0.297251 0.496477 0.058197
H40   H     H_    0.913299 0.753624 0.197620 0.172157
H41   H     H_    0.115438 0.805701 0.192592 0.211033
H42   H     H_    0.362097 0.718945 0.616976 0.014862
H43   H     H_    0.162706 0.722767 0.579211 0.063081
H44   H     H_    0.882188 0.075148 0.148001 0.406386
H45   H     H_    0.023449 0.278590 0.417571 -0.068496
H46   H     H_    0.391456 0.325436 0.117663 0.337496
H47   H     H_    0.732825 0.308154 0.342689 0.311362
H48   H     H_    0.472050 0.033011 0.052332 0.389049
H49   H     H_    0.990059 0.982687 0.749413 0.354765
H50   H     H_    0.292954 0.250133 0.881587 0.321359
H51   H     H_    0.161970 0.222808 0.359057 0.084547
H52   H     H_    0.814062 0.146181 0.359189 -0.012262
H53   H     H_    0.855522 0.664832 0.672191 0.015940
H54   H     H_    0.647825 0.616997 0.677442 0.042227
O1    O     O_2   0.871960 0.437280 0.322960 -0.444585
O2    O     O_2   0.174483 0.173488 0.545918 -0.446761
O3    O     O_3   0.044459 0.204660 0.668666 -0.624403
O4    O     O_3   0.121410 0.444460 0.412450 -0.505415
O5    O     O_3   0.580430 0.613240 0.540320 -0.496063
O6    O     O_2   0.337390 0.273050 0.457610 -0.456996
O7    O     O_3   0.405589 0.270502 0.324032 -0.680300
O8    O     O_2   0.427315 0.457894 0.759167 -0.515238
O9    O     O_3   0.543516 0.300443 0.743444 -0.633398
O10   O     O_3   0.661450 0.607570 0.372550 -0.466512
O11   O     O_2   0.764578 0.546959 0.242027 -0.495138
O12   O     O_3   0.690503 0.750401 0.659011 -0.627848
O13   O     O_3   0.014872 0.287533 0.306663 -0.508972
O14   O     O_3   0.663861 0.708230 0.264404 -0.581921
O15   O     O_2   0.852310 0.726980 0.542430 -0.472695
O16   O     O_3   0.084010 0.657370 0.410280 -0.513114
O17   O     O_2   0.013105 0.822757 0.467133 -0.452987
O18   O     O_2   0.107842 0.046498 0.249977 -0.254249
O19   O     O_2   0.836467 0.981626 0.257037 -0.249673
O20   O     O_3   0.887669 0.122871 0.193786 -0.360430
O21   O     O_2   0.198666 0.133098 0.149447 -0.150305
O22   O     O_2   0.196696 0.292114 0.207486 -0.329800
O23   O     O_3   0.071995 0.798629 0.329883 -0.563393
O24   O     O_3   0.392766 0.257585 0.109704 -0.402132
O25   O     O_2   0.680512 0.234077 0.161486 -0.187338
O26   O     O_2   0.606812 0.374291 0.239582 -0.356316
O27   O     O_3   0.740497 0.258296 0.300513 -0.592233
O28   O     O_2   0.600583 0.977390 0.168199 -0.217275
O29   O     O_2   0.313003 0.966756 0.155349 -0.197605
O30   O     O_3   0.485096 0.084566 0.095904 -0.371093
O31   O     O_2   0.859126 0.094448 0.861118 -0.165471
O32   O     O_2   0.725771 0.062153 0.738103 -0.313809
O33   O     O_3   0.026353 0.048950 0.749811 -0.497551
O34   O     O_2   0.317750 0.562750 0.677090 -0.472717
O35   O     O_2   0.396640 0.039181 0.820332 -0.191542
O36   O     O_2   0.561094 0.191253 0.854734 -0.237258
O37   O     O_3   0.255872 0.182728 0.865003 -0.433230
O38   O     O_3   0.068300 0.555620 0.587560 -0.495847
O39   O     O_3   0.528270 0.392500 0.627460 -0.462838
O40   O     O_3   0.183429 0.710749 0.687649 -0.631067
O41   O     O_3   0.609290 0.386840 0.459690 -0.465334
O42   O     O_3   0.105700 0.342700 0.589730 -0.468371
P1    P     P_3+3 0.039430 0.410940 0.333230 1.093402
P2    P     P_3+3 0.676770 0.715000 0.563590 0.978340
P3    P     P_3+3 0.128506 0.775510 0.414888 0.967820
P4    P     P_3+3 0.150290 0.589140 0.666780 0.979605
P5    P     P_3+3 0.038207 0.224326 0.579604 0.957887
P6    P     P_3+3 0.629398 0.595070 0.279044 1.034449
P7    P     P_3+3 0.497351 0.273778 0.415300 0.900185
P8    P     P_3+3 0.563525 0.410427 0.721975 0.918895
S1    S     S_3+6 0.944289 0.070718 0.260151 0.059142
S2    S     S_3+6 0.302855 0.223132 0.180529 0.073641
S3    S     S_3+6 0.622733 0.274021 0.234357 -0.032003
S4    S     S_3+6 0.466319 0.032960 0.167802 0.076347
S5    S     S_3+6 0.877276 0.104854 0.783481 0.017276
S6    S     S_3+6 0.404415 0.140218 0.818379 0.051037

loop_
_geom_bond_atom_site_label_1
_geom_bond_atom_site_label_2
_ccdc_geom_bond_type
Ba2   O34   S    
C53   C54   S    
O24   S2    S    
Ba2   O39   S    
C4    H20   S    
O1    P1    D    
C13   P4    S    
C17   C18   A    
C52   S1    S    
C44   H37   S    
Ba1   O16   S    
Ba2   P4    S    
C1    H2    S    
C5    C9    A    
C10   C11   A    
C24   C25   A    
O11   P6    D    
O18   S1    D    
C40   H34   S    
C15   C24   A    
C55   H14   S    
C26   C27   A    
C1    H7    S    
C22   C24   A    
C32   C33   A    
C35   C38   A    
C10   P8    S    
C36   C37   A    
O36   S6    D    
C41   C50   A    
Ba2   O5    S    
C25   C27   A    
C53   H54   S    
O39   P8    S    
O14   P6    S    
O2    P5    D    
O28   S4    D    
C9    C22   A    
O32   S5    D    
O22   S2    D    
Ba1   Ba2   S    
C16   H40   S    
C4    O23   S    
O16   P3    S    
C27   H26   S    
C51   H51   S    
O29   S4    D    
Ba2   O6    S    
C29   C30   A    
O31   S5    D    
C6    C7    A    
C47   C49   A    
O5    P2    S    
C36   H33   S    
O4    P1    S    
C21   C22   A    
C7    C8    A    
C3    H28   S    
C34   H9    S    
C2    H29   S    
C28   O40   S    
O40   P4    S    
Ba2   O38   S    
O6    P7    D    
C6    H22   S    
O15   P2    D    
O10   P6    S    
H49   O33   S    
C42   C44   A    
O19   S1    D    
C41   P7    S    
C23   S2    S    
C16   H10   S    
C4    C16   S    
C44   C46   A    
C50   H39   S    
C40   H12   S    
C55   H15   S    
Ba1   P1    S    
Ba1   O10   S    
C45   H11   S    
C32   P5    S    
O3    P5    S    
C3    C5    A    
Ba2   O4    S    
C15   C58   A    
C56   C57   S    
C51   C52   S    
O35   S6    D    
O34   P4    D    
Ba1   O4    S    
C33   C37   A    
C41   C42   A    
C26   C29   A    
C35   C36   A    
C45   C55   S    
C54   H3    S    
C51   H45   S    
C30   H27   S    
C11   C13   A    
O23   P3    S    
Ba2   O42   S    
C4    H31   S    
C2    C58   A    
O25   S3    D    
C39   H38   S    
H47   O27   S    
C40   H23   S    
Ba1   O1    S    
C20   H25   S    
C18   C19   A    
C2    C19   A    
C17   C26   A    
C23   O7    S    
O27   S3    S    
C1    C12   S    
C56   H17   S    
O26   S3    D    
O8    P8    D    
C18   C31   A    
O42   P5    S    
C46   C47   A    
C34   H8    S    
H50   O37   S    
O30   S4    S    
C28   H43   S    
C51   O13   S    
O41   P7    S    
C57   S6    S    
C33   C43   A    
C5    C58   A    
O13   P1    S    
C42   C43   A    
O12   P2    S    
H46   O24   S    
C12   O14   S    
C1    Cl2   S    
C23   S3    S    
C29   P6    S    
C38   C39   A    
C14   C20   A    
O33   S5    S    
C34   S4    S    
O38   P4    S    
C20   C21   A    
C57   H19   S    
Ba1   O15   S    
O17   P3    D    
C57   H18   S    
C19   H24   S    
C3    C6    A    
C52   Cl1   S    
C54   H5    S    
C46   H36   S    
C11   H21   S    
C32   C50   A    
C30   C31   A    
Ba1   O41   S    
O9    P8    S    
C45   H13   S    
C8    C14   A    
C35   C48   A    
Ba1   P2    S    
C53   H53   S    
C43   C48   A    
Ba2   O41   S    
C54   H4    S    
C12   H1    S    
C52   H52   S    
O37   S6    S    
C45   O3    S    
C15   C17   A    
C49   P3    S    
C16   H41   S    
C38   P2    S    
Ba1   O38   S    
C7    C10   A    
Ba1   O5    S    
O20   S1    S    
C37   H35   S    
C8    C9    A    
C56   H16   S    
C23   C34   S    
O7    P7    S    
C31   P1    S    
C53   O12   S    
C56   O9    S    
C47   C48   A    
C28   H42   S    
C12   H6    S    
C21   H30   S    
C28   C40   S    
C25   H32   S    
H48   O30   S    
C39   C49   A    
O21   S2    D    
C13   C14   A    
H44   O20   S    
C55   S5    S    
