data_mof_unit_3125.cif
_audit_creation_date              2012-10-26T20:51:07-0400
_audit_creation_method            fapswitch 2.2
_symmetry_space_group_name_H-M    P1
_symmetry_Int_Tables_number       1
_space_group_crystal_system       triclinic
_cell_length_a                    13.000677
_cell_length_b                    10.818641
_cell_length_c                    9.539634
_cell_angle_alpha                 89.998907
_cell_angle_beta                  96.006074
_cell_angle_gamma                 90.174112
_cell_volume                      1334.37492868

loop_
_atom_site_label
_atom_site_type_symbol
_atom_type_description
_atom_site_fract_x
_atom_site_fract_y
_atom_site_fract_z
_atom_type_partial_charge
C1    C     C_R   0.497893 0.262299 0.499656 0.546860
C2    C     C_R   0.474392 0.935476 0.369415 -0.157671
C3    C     C_R   0.487663 0.870741 0.497866 0.020176
C4    C     C_R   0.300692 0.503823 0.474094 0.564983
C5    C     C_R   0.485879 0.936335 0.623539 0.059143
C6    C     C_3   0.557214 0.930284 0.756697 -0.270985
C7    C     C_3   0.556578 0.070636 0.756961 -0.271695
C8    C     C_R   0.550853 0.590649 0.080944 0.157394
C9    C     C_R   0.441634 0.417990 0.066129 -0.006219
C10   C     C_R   0.441627 0.417979 0.917181 0.007302
C11   C     C_R   0.551026 0.590456 0.933523 0.161674
C12   C     C_R   0.025822 0.545339 0.559753 0.030222
C13   C     C_3   0.664031 0.617765 0.944376 -0.286743
C14   C     C_3   0.663651 0.619038 0.103206 -0.273914
C15   C     C_R   0.498133 0.737700 0.499666 0.561903
C16   C     C_R   0.699157 0.501990 0.526082 0.542528
C17   C     C_R   0.811057 0.512324 0.540755 0.005124
C18   C     C_R   0.187784 0.507281 0.460275 -0.015454
C19   C     C_R   0.027219 0.436154 0.335454 -0.137745
C20   C     C_R   0.133750 0.448402 0.344179 -0.149647
C21   C     C_R   0.133914 0.560455 0.566986 0.049987
C22   C     C_2   0.190188 0.633358 0.683038 0.573832
C23   C     C_R   0.973149 0.482098 0.443101 0.028269
C24   C     C_R   0.866425 0.466344 0.434553 -0.126958
C25   C     C_R   0.862103 0.575273 0.655711 -0.145710
C26   C     C_R   0.968347 0.592723 0.664835 -0.116896
C27   C     C_R   0.485563 0.063540 0.623538 0.025261
C28   C     C_R   0.487276 0.129184 0.497849 0.006345
C29   C     C_R   0.474184 0.064337 0.369405 -0.160770
Cu1   Cu    Cu3+1 0.499990 0.499980 0.640670 0.975462
Cu2   Cu    Cu3+1 0.500010 0.500020 0.359330 0.940456
H1    H     H_    0.826293 0.418137 0.345128 0.110785
H2    H     H_    0.679171 0.711984 0.150550 0.127619
H3    H     H_    0.819480 0.614635 0.736297 0.114554
H4    H     H_    0.987218 0.388616 0.245577 0.115727
H5    H     H_    0.004089 0.644389 0.754023 0.156457
H6    H     H_    0.174460 0.407935 0.262020 0.138773
H7    H     H_    0.468950 0.112460 0.269337 0.130711
H8    H     H_    0.469300 0.887325 0.269349 0.137012
H9    H     H_    0.519268 0.889145 0.844983 0.147074
H10   H     H_    0.233019 0.649701 0.891575 0.337187
H11   H     H_    0.633843 0.890505 0.740390 0.124501
H12   H     H_    0.517906 0.110538 0.845130 0.135640
H13   H     H_    0.632887 0.112309 0.741435 0.141561
H14   H     H_    0.396013 0.350050 0.115534 0.113505
H15   H     H_    0.396003 0.350029 0.854793 0.126085
H16   H     H_    0.709589 0.539829 0.907202 0.151010
H17   H     H_    0.680844 0.709663 0.900022 0.113689
H18   H     H_    0.709996 0.542758 0.155604 0.153539
N1    N     N_R   0.500660 0.500930 0.148010 -0.234374
N2    N     N_R   0.500660 0.500890 0.852110 -0.231241
O1    O     O_R   0.500000 0.319640 0.618810 -0.509036
O2    O     O_R   0.190485 0.593747 0.822581 -0.714781
O3    O     O_R   0.500010 0.319680 0.381230 -0.515428
O4    O     O_R   0.348990 0.499960 0.599490 -0.471348
O5    O     O_R   0.349000 0.500000 0.361910 -0.506971
O6    O     O_R   0.499990 0.680320 0.618770 -0.481992
O7    O     O_R   0.500000 0.680360 0.381190 -0.509158
O8    O     O_R   0.651000 0.500000 0.638090 -0.512404
O9    O     O_R   0.651010 0.500040 0.400510 -0.510868
O10   O     O_2   0.238324 0.726001 0.655622 -0.514342

loop_
_geom_bond_atom_site_label_1
_geom_bond_atom_site_label_2
_ccdc_geom_bond_type
Cu2   O9    S    
C29   H7    S    
C13   H17   S    
C19   C23   A    
Cu1   N2    S    
C24   H1    S    
C9    H14   S    
C6    C7    S    
C7    H12   S    
Cu2   O5    S    
C1    C28   S    
C18   C21   A    
C11   C13   S    
C9    C10   A    
C7    C27   S    
C5    C27   A    
C19   C20   A    
C8    C11   A    
C25   H3    S    
C23   C24   A    
C4    C18   S    
Cu1   O8    S    
C14   H2    S    
C2    C3    A    
C17   C25   A    
C4    O4    A    
C19   H4    S    
C21   C22   S    
C4    O5    A    
C22   O10   D    
C20   H6    S    
C15   O6    A    
C12   C23   A    
H10   O2    S    
Cu1   Cu2   S    
C1    O3    A    
C16   O9    A    
C10   N2    A    
C12   C21   A    
Cu2   O7    S    
C26   H5    S    
C28   C29   A    
C15   O7    A    
C22   O2    S    
C18   C20   A    
C2    C29   A    
Cu2   O3    S    
C6    H11   S    
C5    C6    S    
C1    O1    A    
C6    H9    S    
C17   C24   A    
C11   N2    A    
Cu2   N1    S    
C14   H18   S    
Cu1   O6    S    
C8    N1    A    
C10   H15   S    
C3    C15   S    
Cu1   O4    S    
C27   C28   A    
C13   H16   S    
Cu1   O1    S    
C8    C14   S    
C7    H13   S    
C25   C26   A    
C13   C14   S    
C2    H8    S    
C9    N1    A    
C12   C26   A    
C16   C17   S    
C3    C5    A    
C16   O8    A    
