data_mof_unit_1305.cif
_audit_creation_date              2012-12-10T16:44:13-0500
_audit_creation_method            fapswitch 2.2
_symmetry_space_group_name_H-M    P1
_symmetry_Int_Tables_number       1
_space_group_crystal_system       triclinic
_cell_length_a                    7.509321
_cell_length_b                    8.68866
_cell_length_c                    13.388456
_cell_angle_alpha                 95.202473
_cell_angle_beta                  78.250958
_cell_angle_gamma                 103.076022
_cell_volume                      832.153110436

loop_
_atom_site_label
_atom_site_type_symbol
_atom_type_description
_atom_site_fract_x
_atom_site_fract_y
_atom_site_fract_z
_atom_type_partial_charge
C1    C     C_R   0.544747 0.799935 0.503826 0.853827
C2    C     C_R   0.408283 0.492147 0.976124 0.127419
C3    C     C_R   0.446662 0.548680 0.876433 0.115397
C4    C     C_R   0.544944 0.543062 0.038933 0.011893
C5    C     C_R   0.708837 0.658197 0.003995 0.063085
C6    C     C_R   0.726098 0.729833 0.912190 -0.222556
C7    C     C_R   0.593984 0.677999 0.850794 -0.242084
C8    C     C_R   0.523922 0.483152 0.135306 -0.250400
C9    C     C_R   0.822492 0.642102 0.159501 -0.274346
C10   C     C_R   0.333520 0.477594 0.805298 -0.093549
C11   C     C_2   0.568569 0.968028 0.507093 -0.374808
C12   C     C_R   0.399502 0.493324 0.694174 0.753804
C13   C     C_2   0.429784 0.031858 0.494868 -0.357909
C14   C     C_R   0.454758 0.200040 0.496903 0.853289
C15   C     C_R   0.599560 0.510403 0.306366 0.798257
C16   C     C_R   0.849173 0.704839 0.063427 0.504722
C17   C     C_R   0.655759 0.538579 0.197337 -0.115341
C18   C     C_R   0.163226 0.374445 0.839592 -0.177035
C19   C     C_R   0.112238 0.334049 0.941101 -0.146416
C20   C     C_R   0.234757 0.388089 0.008312 -0.178682
Cu1   Cu    Cu3+1 0.321300 0.483160 0.488710 1.017625
Cu2   Cu    Cu3+1 0.678700 0.516840 0.511290 1.021335
H1    H     H_    0.402856 0.396212 0.166038 0.147225
H2    H     H_    0.979916 0.255099 0.966920 0.137503
H3    H     H_    0.701248 0.039602 0.519942 0.169914
N1    N     N_2   0.947230 0.542220 0.528320 0.154050
N2    N     N_2   0.052770 0.457780 0.471680 0.159475
O1    O     O_R   0.383920 0.714220 0.492660 -0.519183
O2    O     O_R   0.685730 0.742660 0.511730 -0.602741
O3    O     O_R   0.275440 0.478800 0.636790 -0.568843
O4    O     O_R   0.577250 0.507240 0.655860 -0.610787
O5    O     O_R   0.314270 0.257340 0.488270 -0.631168
O6    O     O_R   0.616080 0.285780 0.507340 -0.548515
O7    O     O_R   0.422750 0.492760 0.344140 -0.592077
O8    O     O_R   0.724560 0.521200 0.363210 -0.532784
H4    H     H_    0.927207 0.681009 0.206589 0.174172
H5    H     H_    0.296363 0.960295 0.482771 0.198078
O9    O     O_3   0.046024 0.672009 0.569881 -0.481383
C21   C     C_3   0.947308 0.705775 0.666135 -0.151414
H6    H     H_    0.888923 0.597435 0.710428 0.166286
H7    H     H_    0.841559 0.771346 0.658152 0.159208
H8    H     H_    0.045519 0.785602 0.709417 0.133185
O10   O     O_3   0.973924 0.375690 0.395518 -0.471442
C22   C     C_3   0.035429 0.233713 0.372971 -0.156859
H9    H     H_    0.011025 0.165480 0.442514 0.149367
H10   H     H_    0.181909 0.254205 0.332226 0.164517
H11   H     H_    0.951076 0.159587 0.320179 0.113772
H12   H     H_    0.841614 0.826658 0.887489 0.175660
O11   O     O_3   0.015503 0.805827 0.025048 -0.574720
C23   C     C_3   0.024640 0.953598 0.079147 -0.367958
H13   H     H_    0.040761 0.945637 0.159103 0.157656
H14   H     H_    0.900810 0.003301 0.077879 0.153584
H15   H     H_    0.149443 0.037440 0.041406 0.201174
H16   H     H_    0.071743 0.320982 0.787145 0.148273
H17   H     H_    0.187689 0.348508 0.085054 0.124456
H18   H     H_    0.604709 0.740967 0.783347 0.134790

loop_
_geom_bond_atom_site_label_1
_geom_bond_atom_site_label_2
_ccdc_geom_bond_type
C9    H4    S    
C2    C4    A    
O10   C22   S    
C6    C7    A    
Cu2   O2    S    
C1    O1    A    
Cu1   O3    S    
C15   O7    A    
C13   H5    S    
C19   C20   A    
C1    C11   S    
C22   H11   S    
C4    C8    A    
C14   O6    A    
C1    O2    A    
C19   H2    S    
Cu1   N2    S    
C21   H7    S    
C3    C10   A    
C13   C14   S    
C16   O11   S    
Cu2   O8    S    
C11   C13   D    
N1    N2    D    
O9    C21   S    
C6    H12   S    
C7    H18   S    
C10   C18   A    
C20   H17   S    
C10   C12   S    
C15   O8    A    
Cu1   O1    S    
C22   H10   S    
C23   H13   S    
C21   H8    S    
C2    C3    A    
C12   O4    A    
C5    C6    A    
Cu1   O5    S    
C23   H15   S    
Cu2   O4    S    
C11   H3    S    
C2    C20   A    
N2    O10   S    
C21   H6    S    
C8    H1    S    
C22   H9    S    
O11   C23   S    
Cu2   N1    S    
C9    C17   A    
C23   H14   S    
C15   C17   S    
Cu2   O6    S    
C18   H16   S    
C18   C19   A    
C5    C16   A    
Cu1   O7    S    
C3    C7    A    
C12   O3    A    
Cu1   Cu2   S    
C9    C16   A    
N1    O9    S    
C8    C17   A    
C14   O5    A    
C4    C5    A    
