data_mof_unit_4167.cif
_audit_creation_date              2012-10-26T20:43:30-0400
_audit_creation_method            fapswitch 2.2
_symmetry_space_group_name_H-M    P1
_symmetry_Int_Tables_number       1
_space_group_crystal_system       triclinic
_cell_length_a                    10.9968
_cell_length_b                    9.597903
_cell_length_c                    23.0863
_cell_angle_alpha                 90.152841
_cell_angle_beta                  92.032761
_cell_angle_gamma                 90.379247
_cell_volume                      2435.07470119

loop_
_atom_site_label
_atom_site_type_symbol
_atom_type_description
_atom_site_fract_x
_atom_site_fract_y
_atom_site_fract_z
_atom_type_partial_charge
C1    C     C_R   0.262405 0.499524 0.502649 0.543746
C2    C     C_R   0.608070 0.521259 0.705990 0.006801
C3    C     C_R   0.391582 0.504259 0.232949 0.040596
C4    C     C_R   0.606232 0.509285 0.767369 0.041772
C5    C     C_R   0.500903 0.461647 0.206581 0.155871
C6    C     C_R   0.497074 0.463338 0.793315 0.156395
C7    C     C_R   0.061599 0.372177 0.499876 0.221029
C8    C     C_R   0.938281 0.628247 0.500237 0.218782
C9    C     C_R   0.935607 0.374441 0.490756 0.220767
C10   C     C_R   0.064418 0.626088 0.508917 0.216026
C11   C     C_R   0.871719 0.501551 0.494729 -0.068963
C12   C     C_R   0.737578 0.500524 0.497310 0.544400
C13   C     C_R   0.128245 0.498801 0.505189 -0.067369
C14   C     C_R   0.437508 0.073626 0.457316 0.146228
C15   C     C_R   0.562353 0.926633 0.542725 0.138139
C16   C     C_R   0.563432 0.075395 0.542302 0.152729
C17   C     C_R   0.437015 0.924861 0.457555 0.145353
C18   C     C_R   0.499584 0.499706 0.390826 0.500004
C19   C     C_R   0.500326 0.500074 0.609182 0.500123
C20   C     C_R   0.601566 0.350661 0.878375 0.389694
C21   C     C_R   0.396667 0.347674 0.121108 0.389233
C22   C     C_R   0.391407 0.351539 0.875589 0.464764
C23   C     C_R   0.610594 0.496450 0.237789 0.074374
C24   C     C_R   0.606777 0.352054 0.123978 0.465472
C25   C     C_R   0.386687 0.342072 0.936823 0.004967
C26   C     C_R   0.611489 0.342698 0.062694 0.005394
C27   C     C_R   0.498371 0.347306 0.969147 -0.036693
C28   C     C_R   0.499860 0.346991 0.030362 -0.036392
C29   C     C_R   0.608601 0.343058 0.939626 -0.008432
C30   C     C_R   0.389625 0.341137 0.059847 -0.008061
C31   C     C_R   0.276319 0.327663 0.966432 0.018308
C32   C     C_R   0.721748 0.329303 0.033028 0.017753
C33   C     C_R   0.277673 0.331806 0.027718 0.008741
C34   C     C_R   0.387421 0.494982 0.761884 0.074251
C35   C     C_R   0.720501 0.334137 0.971754 0.008451
C36   C     C_2   0.158079 0.309943 0.934402 0.370827
C37   C     C_2   0.839727 0.311205 0.064983 0.371353
C38   C     C_2   0.160795 0.344757 0.057137 0.350282
C39   C     C_2   0.837630 0.347437 0.942451 0.350679
C40   C     C_2   0.711640 0.568836 0.208216 0.326967
C41   C     C_2   0.285522 0.565123 0.791241 0.327302
C42   C     C_2   0.728636 0.494195 0.333592 0.271086
C43   C     C_2   0.270572 0.489295 0.665798 0.269640
C44   C     C_2   0.277378 0.546900 0.325593 0.335539
C45   C     C_R   0.611887 0.494855 0.298928 -0.035029
C46   C     C_2   0.720873 0.556453 0.675200 0.328308
C47   C     C_2   0.287608 0.554328 0.195764 0.370007
C48   C     C_2   0.709376 0.561781 0.804996 0.370208
C49   C     C_2   0.368282 0.147882 0.410905 0.331869
C50   C     C_2   0.630701 0.852926 0.589471 0.339975
C51   C     C_2   0.639906 0.151455 0.585939 0.338623
C52   C     C_2   0.362850 0.849202 0.413049 0.346170
C53   C     C_R   0.386902 0.493035 0.700757 -0.034710
C54   C     C_R   0.500179 0.498718 0.327117 -0.033261
C55   C     C_R   0.498934 0.499992 0.672890 -0.032169
C56   C     C_R   0.390343 0.516054 0.294369 0.006597
Cl1   Cl    Cl    0.129404 0.205857 0.509563 -0.418500
Cl2   Cl    Cl    0.870041 0.794670 0.491538 -0.432929
Cl3   Cl    Cl    0.863505 0.215530 0.468638 -0.405174
Cl4   Cl    Cl    0.136856 0.785606 0.530028 -0.427588
Cu1   Cu    Cu3+1 0.500000 0.640660 0.500000 1.024831
Cu2   Cu    Cu3+1 0.500000 0.359340 0.500000 1.048403
H1    H     H_    0.129238 0.384302 0.901456 0.190450
H2    H     H_    0.742468 0.500069 0.636099 0.090114
H3    H     H_    0.305667 0.608721 0.155776 0.120480
H4    H     H_    0.690425 0.614848 0.845235 0.119857
H5    H     H_    0.297131 0.219744 0.421074 0.157046
H6    H     H_    0.699452 0.777775 0.579640 0.171325
H7    H     H_    0.722291 0.203858 0.573547 0.152405
H8    H     H_    0.282542 0.791701 0.424729 0.163995
H9    H     H_    0.869903 0.385804 0.097925 0.191082
H10   H     H_    0.131019 0.263761 0.086126 0.207363
H11   H     H_    0.866338 0.266979 0.912985 0.206633
H12   H     H_    0.800522 0.581885 0.229309 0.189631
H13   H     H_    0.196798 0.575893 0.769916 0.190646
H14   H     H_    0.734985 0.543619 0.375849 0.136062
H15   H     H_    0.264311 0.538657 0.623669 0.139797
H16   H     H_    0.257276 0.489558 0.364611 0.085873
N1    N     N_R   0.496646 0.394577 0.850649 -0.365716
N2    N     N_R   0.501452 0.393163 0.149034 -0.365279
N3    N     N_R   0.500000 0.852070 0.500000 -0.282894
N4    N     N_R   0.500000 0.147930 0.500000 -0.280697
O1    O     O_R   0.319640 0.618740 0.500000 -0.492780
O2    O     O_2   0.305175 0.297342 0.152359 -0.453093
O3    O     O_2   0.296226 0.309275 0.841513 -0.452356
O4    O     O_2   0.702139 0.311848 0.157973 -0.452563
O5    O     O_2   0.092855 0.210182 0.944520 -0.443947
O6    O     O_2   0.903195 0.210841 0.054793 -0.443722
O7    O     O_2   0.097662 0.447491 0.049086 -0.439905
O8    O     O_2   0.902269 0.449751 0.951185 -0.438599
O9    O     O_2   0.694592 0.621672 0.160565 -0.473679
O10   O     O_2   0.301634 0.618646 0.838986 -0.473878
O11   O     O_2   0.817742 0.434076 0.316084 -0.428073
O12   O     O_R   0.680360 0.381260 0.500000 -0.487869
O13   O     O_2   0.181749 0.426867 0.682949 -0.432776
O14   O     O_2   0.210138 0.641676 0.310399 -0.393842
O15   O     O_2   0.786258 0.653689 0.690857 -0.392853
O16   O     O_2   0.182299 0.528330 0.207148 -0.377101
O17   O     O_2   0.815052 0.539221 0.793653 -0.376768
O18   O     O_2   0.392861 0.131943 0.360176 -0.419353
O19   O     O_2   0.608073 0.873314 0.640164 -0.413413
O20   O     O_2   0.611481 0.155200 0.636561 -0.419368
O21   O     O_2   0.391435 0.850891 0.362443 -0.414098
O22   O     O_R   0.680360 0.618740 0.500000 -0.493447
O23   O     O_R   0.319640 0.381260 0.500000 -0.487420
O24   O     O_R   0.499960 0.618810 0.417880 -0.494604
O25   O     O_R   0.500040 0.381190 0.582120 -0.473954
O26   O     O_R   0.500040 0.618810 0.582120 -0.509613
O27   O     O_R   0.499960 0.381190 0.417880 -0.489745
O28   O     O_2   0.693340 0.303120 0.846846 -0.452915

loop_
_geom_bond_atom_site_label_1
_geom_bond_atom_site_label_2
_ccdc_geom_bond_type
C25   C31   A    
C52   O21   D    
C26   C32   A    
C23   C45   A    
C27   C29   A    
C42   O11   D    
C37   O6    D    
C35   C39   S    
C18   O27   A    
C15   N3    A    
Cu2   O23   S    
C2    C46   S    
C51   O20   D    
C38   O7    D    
C47   O16   D    
C47   H3    S    
C24   C26   A    
C22   N1    A    
C12   O22   A    
C2    C55   A    
C43   H15   S    
C22   O3    S    
C14   C49   S    
C23   C40   S    
C15   C50   S    
C3    C47   S    
Cu1   O26   S    
C8    Cl2   S    
C24   N2    A    
C22   C25   A    
C43   O13   D    
C16   C51   S    
C36   H1    S    
C39   O8    D    
C30   C33   A    
C19   O26   A    
Cu2   N4    S    
C14   C17   A    
C12   O12   A    
C34   C41   S    
C17   C52   S    
C16   N4    A    
C43   C53   S    
C54   C56   A    
C20   C29   A    
C53   C55   A    
C36   O5    D    
C38   H10   S    
C37   H9    S    
C32   C35   A    
Cu1   O22   S    
C4    C6    A    
Cu1   O1    S    
Cu2   O25   S    
C6    C34   A    
C46   H2    S    
C9    Cl3   S    
C42   C45   S    
C10   Cl4   S    
C18   O24   A    
C44   O14   D    
C41   H13   S    
C3    C56   A    
C44   C56   S    
C5    C23   A    
C21   O2    S    
C31   C33   A    
C32   C37   S    
C5    N2    S    
Cu1   O24   S    
C9    C11   A    
C34   C53   A    
C20   O28   S    
C46   O15   D    
C45   C54   A    
Cu2   O12   S    
C1    O1    A    
C14   N4    A    
C4    C48   S    
C19   C55   S    
C7    C9    A    
C48   O17   D    
C49   H5    S    
C20   N1    A    
C42   H14   S    
C3    C5    A    
C10   C13   A    
C11   C12   S    
C25   C27   A    
C21   C30   A    
C29   C35   A    
C26   C28   A    
C33   C38   S    
C44   H16   S    
Cu1   N3    S    
C49   O18   D    
C6    N1    S    
Cu2   O27   S    
C24   O4    S    
C8    C11   A    
C2    C4    A    
C21   N2    A    
C28   C30   A    
C40   H12   S    
C17   N3    A    
C39   H11   S    
C40   O9    D    
Cu1   Cu2   S    
C52   H8    S    
C18   C54   S    
C7    C13   A    
C41   O10   D    
C1    C13   S    
C50   O19   D    
C8    C10   A    
C27   C28   A    
C31   C36   S    
C51   H7    S    
C48   H4    S    
C50   H6    S    
C7    Cl1   S    
C15   C16   A    
C1    O23   A    
C19   O25   A    
