data_mof_unit_4145.cif
_audit_creation_date              2012-12-10T18:07:03-0500
_audit_creation_method            fapswitch 2.2
_symmetry_space_group_name_H-M    P1
_symmetry_Int_Tables_number       1
_space_group_crystal_system       triclinic
_cell_length_a                    10.822156
_cell_length_b                    12.718494
_cell_length_c                    13.882236
_cell_angle_alpha                 98.053886
_cell_angle_beta                  90.468558
_cell_angle_gamma                 93.473127
_cell_volume                      1888.18234946

loop_
_atom_site_label
_atom_site_type_symbol
_atom_type_description
_atom_site_fract_x
_atom_site_fract_y
_atom_site_fract_z
_atom_type_partial_charge
C1    C     C_R   0.498528 0.483456 0.315730 0.806856
C2    C     C_3   0.878340 0.498901 0.501629 -0.136428
C3    C     C_3   0.930080 0.554905 0.604101 -0.110320
C4    C     C_3   0.937034 0.558692 0.420124 0.079191
C5    C     C_1   0.499806 0.526663 0.787652 -0.211938
C6    C     C_2   0.498920 0.550512 0.980036 0.495889
C7    C     C_2   0.496158 0.461632 0.021497 -0.250417
C8    C     C_1   0.496775 0.467043 0.125298 0.072692
C9    C     C_1   0.499482 0.537386 0.874868 -0.171253
C10   C     C_1   0.497593 0.474101 0.212350 -0.164964
C11   C     C_2   0.461910 0.028032 0.475282 -0.262047
C12   C     C_R   0.259712 0.500073 0.506987 0.883969
C13   C     C_2   0.537163 0.972009 0.524718 -0.266268
C14   C     C_1   0.526180 0.854764 0.518571 0.179247
C15   C     C_1   0.473362 0.145244 0.481396 0.168957
C16   C     C_R   0.500330 0.516574 0.684262 0.824347
C17   C     C_R   0.740514 0.499711 0.500487 0.864552
C18   C     C_3   0.061606 0.377321 0.511152 0.566370
C19   C     C_3   0.918645 0.380637 0.487565 -0.014107
C20   C     C_3   0.075825 0.573750 0.603910 0.601383
C21   C     C_3   0.076847 0.538900 0.416941 -0.527427
C22   C     C_3   0.121402 0.497427 0.511702 -0.097966
Cu1   Cu    Cu3+1 0.491980 0.395330 0.493960 0.954993
Cu2   Cu    Cu3+1 0.508020 0.604670 0.506040 0.953075
H1    H     H_    0.925228 0.645047 0.440431 0.140378
H2    H     H_    0.494642 0.383702 0.977624 0.112772
H3    H     H_    0.610079 0.014659 0.571445 0.154184
H4    H     H_    0.388921 0.985499 0.428544 0.161288
H5    H     H_    0.866201 0.338839 0.541046 0.109981
H6    H     H_    0.906739 0.497041 0.655299 0.140526
H7    H     H_    0.129252 0.613969 0.405372 0.180792
H8    H     H_    0.096905 0.479730 0.352964 0.224015
N1    N     N_1   0.479930 0.238040 0.484880 -0.169558
N2    N     N_1   0.520070 0.761960 0.515120 -0.168103
O1    O     O_R   0.492240 0.399110 0.356330 -0.576810
O2    O     O_R   0.505790 0.575900 0.366540 -0.561122
O3    O     O_R   0.310920 0.411610 0.494880 -0.540180
O4    O     O_R   0.324460 0.588390 0.505090 -0.583819
O5    O     O_R   0.494210 0.424100 0.633460 -0.587223
O6    O     O_R   0.507760 0.600890 0.643670 -0.586214
O7    O     O_R   0.675540 0.411610 0.494910 -0.581648
O8    O     O_R   0.689080 0.588390 0.505120 -0.570897
N3    N     N_2   0.075867 0.340589 0.607403 -0.461660
H9    H     H_    0.012144 0.280780 0.620432 0.200739
C23   C     C_3   0.196161 0.324307 0.648858 -0.547791
H10   H     H_    0.248667 0.267321 0.600540 0.219560
H11   H     H_    0.182717 0.292128 0.718662 0.182038
H12   H     H_    0.253596 0.399194 0.666203 0.257125
N4    N     N_2   0.112498 0.685875 0.595613 -0.436717
H13   H     H_    0.071202 0.723748 0.544235 0.217779
C24   C     C_3   0.220681 0.742829 0.644922 -0.593079
H14   H     H_    0.272318 0.787846 0.593508 0.217712
H15   H     H_    0.284360 0.688661 0.672791 0.258363
H16   H     H_    0.191000 0.800799 0.706325 0.192245
N5    N     N_2   0.871623 0.654057 0.637435 -0.420083
H17   H     H_    0.871144 0.714226 0.594903 0.260578
C25   C     C_3   0.793276 0.661612 0.721844 -0.654269
H18   H     H_    0.715937 0.712387 0.710987 0.247961
H19   H     H_    0.847284 0.699072 0.787151 0.206069
H20   H     H_    0.753739 0.582238 0.734363 0.206560
O9    O     O_3   0.499815 0.649071 0.039709 -0.605603
C26   C     C_3   0.514283 0.738029 0.988972 0.080289
H21   H     H_    0.481280 0.807573 0.037179 0.161408
H22   H     H_    0.455101 0.729695 0.922127 0.136104
C27   C     C_3   0.651049 0.762426 0.967571 -0.354306
H23   H     H_    0.704855 0.778365 0.037180 0.224316
H24   H     H_    0.688769 0.692935 0.922563 0.215518
C28   C     C_3   0.667520 0.858932 0.913819 -0.939221
H25   H     H_    0.615385 0.844158 0.843468 0.257488
H26   H     H_    0.767142 0.874307 0.898898 0.255111
H27   H     H_    0.633931 0.930472 0.958751 0.257552
O10   O     O_3   0.117817 0.307229 0.436111 -0.592333
C29   C     C_3   0.087920 0.196977 0.437405 0.110107
H28   H     H_    0.992638 0.180027 0.462628 0.141577
H29   H     H_    0.152982 0.164519 0.485796 0.140689
C30   C     C_3   0.102819 0.137305 0.335072 -0.331884
H30   H     H_    0.042416 0.169742 0.282796 0.219278
H31   H     H_    0.200421 0.149011 0.312408 0.224427
C31   C     C_3   0.069645 0.018411 0.331332 -0.956336
H32   H     H_    0.130693 0.983832 0.381792 0.252221
H33   H     H_    0.082159 0.977428 0.256332 0.261289
H34   H     H_    0.971543 0.004681 0.351753 0.256815
N6    N     N_2   0.885780 0.326789 0.389403 -0.395198
H35   H     H_    0.938256 0.341169 0.330533 0.298103
C32   C     C_3   0.788020 0.242753 0.373256 -0.638829
H36   H     H_    0.820367 0.174858 0.322759 0.202292
H37   H     H_    0.706502 0.272636 0.339190 0.251687
H38   H     H_    0.760096 0.212967 0.441815 0.220645
O11   O     O_3   0.130717 0.544529 0.689480 -0.637605
C33   C     C_3   0.084205 0.594362 0.778479 0.081836
H39   H     H_    0.001704 0.546868 0.799309 0.150882
H40   H     H_    0.059017 0.677014 0.774867 0.181601
C34   C     C_3   0.183307 0.597243 0.857921 -0.352716
H41   H     H_    0.209581 0.514947 0.862734 0.231008
H42   H     H_    0.266706 0.644643 0.838790 0.212505
C35   C     C_3   0.137888 0.646685 0.956805 -0.935101
H43   H     H_    0.113369 0.729796 0.954115 0.250115
H44   H     H_    0.212377 0.647578 0.012471 0.276829
H45   H     H_    0.055534 0.599554 0.978459 0.255147
N7    N     N_2   0.878667 0.526887 0.324177 -0.405770
H46   H     H_    0.784087 0.511775 0.324043 0.258680
C36   C     C_3   0.914755 0.591936 0.250129 -0.701986
H47   H     H_    0.869517 0.557558 0.179685 0.229406
H48   H     H_    0.016446 0.594285 0.239948 0.237884
H49   H     H_    0.885174 0.674151 0.270449 0.224197

loop_
_geom_bond_atom_site_label_1
_geom_bond_atom_site_label_2
_ccdc_geom_bond_type
N5    H17   S    
C34   H41   S    
Cu2   O8    S    
C29   H28   S    
C30   C31   S    
C6    C9    S    
C4    H1    S    
C25   H18   S    
C7    C8    S    
C23   H10   S    
C21   H7    S    
Cu2   O2    S    
C7    H2    S    
C6    O9    S    
C30   H31   S    
C32   H36   S    
C25   H19   S    
C27   H24   S    
C35   H45   S    
C12   C22   S    
C36   H49   S    
C18   C19   S    
C12   O3    A    
C17   O8    A    
C5    C16   S    
C26   H22   S    
C11   C15   S    
C28   H25   S    
Cu1   N1    S    
C35   H44   S    
Cu2   O4    S    
Cu1   Cu2   S    
C23   H11   S    
C34   H42   S    
C21   C22   S    
C2    C17   S    
C29   H29   S    
O9    C26   S    
C3    N5    S    
C19   N6    S    
C32   H37   S    
C18   O10   S    
C21   H8    S    
C24   H14   S    
C30   H30   S    
C31   H33   S    
C25   H20   S    
C23   H12   S    
N4    C24   S    
Cu1   O3    S    
Cu2   N2    S    
C24   H15   S    
C3    H6    S    
C2    C4    S    
N3    H9    S    
C5    C9    T    
C20   N4    S    
C33   H40   S    
N6    H35   S    
C27   C28   S    
C35   H43   S    
C26   H21   S    
N7    C36   S    
C3    C20   S    
C36   H48   S    
N3    C23   S    
C16   O6    A    
C8    C10   T    
N6    C32   S    
C20   C22   S    
N4    H13   S    
C34   C35   S    
Cu1   O1    S    
C4    N7    S    
C29   C30   S    
C19   H5    S    
C1    O1    A    
C33   C34   S    
C32   H38   S    
C26   C27   S    
C2    C19   S    
C18   C22   S    
C1    C10   S    
O10   C29   S    
C14   N2    T    
C31   H34   S    
C6    C7    D    
C20   O11   S    
Cu1   O7    S    
C24   H16   S    
N5    C25   S    
C2    C3    S    
C18   N3    S    
C4    C21   S    
C11   C13   D    
C33   H39   S    
C11   H4    S    
C28   H27   S    
Cu1   O5    S    
N7    H46   S    
Cu2   O6    S    
C12   O4    A    
C36   H47   S    
C17   O7    A    
C16   O5    A    
C31   H32   S    
C28   H26   S    
C27   H23   S    
C13   H3    S    
O11   C33   S    
C13   C14   S    
C15   N1    T    
C1    O2    A    
