data_mof_unit_4798.cif
_audit_creation_date              2012-10-26T18:47:35-0400
_audit_creation_method            fapswitch 2.2
_symmetry_space_group_name_H-M    P1
_symmetry_Int_Tables_number       1
_space_group_crystal_system       triclinic
_cell_length_a                    11.46374
_cell_length_b                    13.074121
_cell_length_c                    12.159059
_cell_angle_alpha                 99.295595
_cell_angle_beta                  92.263676
_cell_angle_gamma                 91.453162
_cell_volume                      1796.11357528

loop_
_atom_site_label
_atom_site_type_symbol
_atom_type_description
_atom_site_fract_x
_atom_site_fract_y
_atom_site_fract_z
_atom_type_partial_charge
C1    C     C_R   0.493059 0.300201 0.478956 0.607876
C2    C     C_R   0.571378 0.981108 0.626308 -0.013476
C3    C     C_R   0.400437 0.126609 0.388649 0.201219
C4    C     C_R   0.533004 0.880822 0.634605 0.184775
C5    C     C_R   0.551405 0.133594 0.536190 0.235876
C6    C     C_R   0.442433 0.861825 0.449871 0.254551
C7    C     C_R   0.532030 0.027231 0.536135 -0.014343
C8    C     C_R   0.458813 0.968788 0.452161 -0.023657
C9    C     C_R   0.463078 0.369113 0.028696 -0.038356
C10   C     C_R   0.536010 0.630910 0.971063 -0.002341
C11   C     C_R   0.457921 0.385425 0.146371 0.059488
C12   C     C_R   0.496282 0.700035 0.521979 0.571895
C13   C     C_R   0.546113 0.613509 0.853749 0.077411
C14   C     C_R   0.505207 0.562418 0.151960 0.440310
C15   C     C_R   0.492673 0.437834 0.847793 0.427689
C16   C     C_R   0.262996 0.502631 0.501775 0.589558
C17   C     C_R   0.737216 0.498910 0.498281 0.558714
C18   C     C_R   0.508139 0.549372 0.031274 0.051459
C19   C     C_R   0.486044 0.451552 0.968218 0.053326
C20   C     C_R   0.161874 0.659953 0.181278 0.304216
C21   C     C_R   0.825196 0.363668 0.825471 0.332029
C22   C     C_R   0.120680 0.643747 0.284337 0.256655
C23   C     C_R   0.872360 0.498232 0.496361 -0.012516
C24   C     C_R   0.873161 0.373553 0.723661 0.316967
C25   C     C_R   0.117411 0.542836 0.309707 -0.019692
C26   C     C_R   0.883372 0.472372 0.693681 -0.012850
C27   C     C_R   0.147771 0.458800 0.231897 -0.055702
C28   C     C_R   0.853643 0.560712 0.765884 -0.137126
C29   C     C_R   0.180675 0.472578 0.127012 0.207416
C30   C     C_R   0.817897 0.553301 0.871658 0.173633
C31   C     C_R   0.195504 0.574766 0.104213 0.208940
C32   C     C_R   0.797781 0.453370 0.899491 0.237438
C33   C     C_R   0.935432 0.509390 0.400558 0.210200
C34   C     C_R   0.128242 0.505838 0.503820 0.000976
C35   C     C_R   0.065334 0.494414 0.599481 0.211393
C36   C     C_R   0.941056 0.488341 0.593739 -0.036172
C37   C     C_R   0.059787 0.519049 0.407329 -0.029781
C38   C     C_R   0.489865 0.814905 0.536536 0.028492
C39   C     C_R   0.481633 0.185947 0.466572 0.020795
C40   C     C_R   0.398030 0.019282 0.376424 -0.018732
Cl1   Cl    Cl    0.257362 0.600533 0.983340 -0.428462
Cl2   Cl    Cl    0.666569 0.199311 0.620123 -0.461689
Cl3   Cl    Cl    0.740490 0.435436 0.024442 -0.403193
Cl4   Cl    Cl    0.458249 0.311568 0.778227 -0.460725
Cl5   Cl    Cl    0.552999 0.685042 0.222027 -0.444896
Cl6   Cl    Cl    0.161505 0.785761 0.144730 -0.283957
Cl7   Cl    Cl    0.810267 0.239637 0.865032 -0.277097
Cl8   Cl    Cl    0.061648 0.746574 0.376076 -0.398008
Cl9   Cl    Cl    0.936850 0.266591 0.642002 -0.347831
Cl10  Cl    Cl    0.343160 0.790563 0.352294 -0.474266
Cu1   Cu    Cu3+1 0.509250 0.507730 0.615930 1.168573
Cu2   Cu    Cu3+1 0.490750 0.492270 0.384070 1.178180
H1    H     H_    0.573268 0.676327 0.813279 0.219640
H2    H     H_    0.781087 0.733490 0.133093 0.414970
H3    H     H_    0.937823 0.582168 0.146242 0.390340
H4    H     H_    0.054260 0.555944 0.875671 0.394880
H5    H     H_    0.393888 0.972269 0.893037 0.405886
H6    H     H_    0.113477 0.132042 0.253937 0.407782
H7    H     H_    0.443072 0.319506 0.186673 0.215013
H8    H     H_    0.449565 0.290167 0.986474 0.210537
H9    H     H_    0.551776 0.709536 0.013443 0.229069
H10   H     H_    0.129028 0.381390 0.248595 0.224166
H11   H     H_    0.870202 0.636390 0.742862 0.196409
H12   H     H_    0.340261 0.976408 0.311702 0.256012
H13   H     H_    0.611334 0.028646 0.700072 0.246205
H14   H     H_    0.234993 0.294210 0.871209 0.416408
N1    N     N_R   0.523180 0.519350 0.790130 -0.266498
N2    N     N_R   0.476820 0.480650 0.209870 -0.258814
O1    O     O_R   0.506570 0.354460 0.582000 -0.419805
O2    O     O_2   0.036115 0.348859 0.987390 -0.132257
O3    O     O_3   0.242534 0.365473 0.913976 -0.421795
O4    O     O_2   0.953469 0.700247 0.992793 -0.228124
O5    O     O_2   0.773373 0.755261 0.912317 -0.233671
O6    O     O_3   0.761729 0.665539 0.086019 -0.457753
O7    O     O_2   0.788999 0.403967 0.247546 -0.159088
O8    O     O_2   0.779117 0.594790 0.279710 -0.196394
O9    O     O_3   0.938014 0.509278 0.157853 -0.469494
O10   O     O_2   0.218810 0.399647 0.711936 -0.159867
O11   O     O_2   0.216039 0.590977 0.753935 -0.178592
O12   O     O_R   0.493430 0.645540 0.418000 -0.423438
O13   O     O_3   0.064703 0.483611 0.840186 -0.459768
O14   O     O_2   0.398952 0.779150 0.765293 -0.214844
O15   O     O_2   0.585710 0.862653 0.846538 -0.248055
O16   O     O_3   0.412963 0.978624 0.815617 -0.449655
O17   O     O_2   0.270918 0.287868 0.347805 -0.306122
O18   O     O_2   0.331964 0.160830 0.189251 -0.254358
O19   O     O_3   0.166825 0.107395 0.309417 -0.426281
O20   O     O_R   0.490940 0.341410 0.386200 -0.500738
O21   O     O_R   0.509060 0.658590 0.613800 -0.504468
O22   O     O_R   0.327460 0.506540 0.597900 -0.406896
O23   O     O_R   0.672540 0.493460 0.402100 -0.410434
O24   O     O_R   0.311830 0.493480 0.402100 -0.511708
O25   O     O_R   0.688170 0.506520 0.597900 -0.546298
O26   O     O_2   0.194832 0.266775 0.073793 -0.241589
S1    S     S_3+6 0.162730 0.360665 0.024422 0.109225
S2    S     S_3+6 0.826788 0.671367 0.966730 0.035140
S3    S     S_3+6 0.858748 0.504742 0.269750 0.110059
S4    S     S_3+6 0.142863 0.492215 0.728597 0.118486
S5    S     S_3+6 0.482931 0.869750 0.768138 0.059596
S6    S     S_3+6 0.292462 0.176144 0.306800 0.051798

loop_
_geom_bond_atom_site_label_1
_geom_bond_atom_site_label_2
_ccdc_geom_bond_type
C22   Cl8   S    
C5    Cl2   S    
C16   O22   A    
C27   C29   A    
C34   C37   A    
O14   S5    D    
C14   C18   A    
O11   S4    D    
C2    C7    A    
C17   O23   A    
C2    H13   S    
H6    O19   S    
C7    C8    A    
C15   C19   A    
C17   C23   S    
C24   C26   A    
C15   Cl4   S    
C18   C19   A    
Cu1   O22   S    
H3    O9    S    
O3    S1    S    
O13   S4    S    
O7    S3    D    
C34   C35   A    
C30   S2    S    
C16   C34   S    
H2    O6    S    
C3    S6    S    
C9    C19   A    
C35   C36   A    
C23   C33   A    
C22   C25   A    
O10   S4    D    
C6    C38   A    
O9    S3    S    
C35   S4    S    
O18   S6    D    
Cu2   N2    S    
C25   C37   S    
C1    O20   A    
C3    C39   A    
O15   S5    D    
C11   H7    S    
C14   Cl5   S    
C13   H1    S    
C21   C32   A    
Cu1   Cu2   S    
O6    S2    S    
C12   O21   A    
Cu2   O20   S    
C29   S1    S    
C6    C8    A    
O8    S3    D    
C1    O1    A    
C2    C4    A    
C27   H10   S    
H14   O3    S    
C15   N1    A    
H5    O16   S    
Cu1   N1    S    
C6    Cl10  S    
C9    C11   A    
Cu1   O25   S    
C26   C36   S    
C4    C38   A    
C3    C40   A    
C16   O24   A    
C5    C39   A    
Cu2   O24   S    
C10   H9    S    
C17   O25   A    
C21   C24   A    
C11   N2    A    
C5    C7    A    
O19   S6    S    
C13   N1    A    
C24   Cl9   S    
C31   Cl1   S    
O16   S5    S    
C20   C22   A    
C10   C13   A    
C25   C27   A    
C8    C40   A    
C26   C28   A    
C40   H12   S    
C9    H8    S    
C28   C30   A    
O2    S1    D    
C29   C31   A    
O17   S6    D    
Cu1   O21   S    
C30   C32   A    
C10   C18   A    
C12   O12   A    
C32   Cl3   S    
H4    O13   S    
C33   S3    S    
C12   C38   S    
O26   S1    D    
C33   C37   A    
C1    C39   S    
O4    S2    D    
C28   H11   S    
C23   C36   A    
C4    S5    S    
C14   N2    A    
Cu2   O23   S    
Cu1   O1    S    
O5    S2    D    
Cu2   O12   S    
C20   Cl6   S    
C21   Cl7   S    
C20   C31   A    
