data_mof_unit_3418.cif
_audit_creation_date              2012-10-26T19:15:04-0400
_audit_creation_method            fapswitch 2.2
_symmetry_space_group_name_H-M    P1
_symmetry_Int_Tables_number       1
_space_group_crystal_system       triclinic
_cell_length_a                    10.879108
_cell_length_b                    10.827863
_cell_length_c                    9.564675
_cell_angle_alpha                 90.77068
_cell_angle_beta                  90.1159
_cell_angle_gamma                 90.782002
_cell_volume                      1126.48512073

loop_
_atom_site_label
_atom_site_type_symbol
_atom_type_description
_atom_site_fract_x
_atom_site_fract_y
_atom_site_fract_z
_atom_type_partial_charge
C1    C     C_R   0.502734 0.262764 0.498925 0.539967
C2    C     C_R   0.419205 0.938227 0.581081 0.025289
C3    C     C_3   0.395842 0.938237 0.735005 0.150023
C4    C     C_R   0.262831 0.497567 0.499772 0.558675
C5    C     C_3   0.391648 0.078509 0.729241 0.169316
C6    C     C_R   0.592947 0.556884 0.074921 0.249946
C7    C     C_R   0.416463 0.431875 0.073087 -0.002578
C8    C     C_R   0.417078 0.431299 0.924292 0.015005
C9    C     C_R   0.593149 0.556606 0.927561 0.113132
C10   C     C_3   0.627930 0.689808 0.924409 -0.247339
C11   C     C_3   0.627983 0.690094 0.083016 0.076988
C12   C     C_R   0.938599 0.528311 0.612562 -0.082905
C13   C     C_R   0.500275 0.737513 0.500630 0.551835
C14   C     C_R   0.737244 0.497589 0.499608 0.570242
C15   C     C_R   0.062344 0.525622 0.614008 -0.004832
C16   C     C_R   0.130323 0.491734 0.498225 -0.039391
C17   C     C_R   0.065166 0.450217 0.378663 -0.135856
C18   C     C_R   0.934403 0.449603 0.376472 0.262480
C19   C     C_R   0.869990 0.491707 0.496918 0.032559
C20   C     C_3   0.911824 0.438157 0.135883 -0.057193
C21   C     C_3   0.096335 0.367320 0.836370 -0.110520
C22   C     C_3   0.928776 0.581214 0.756796 -0.218599
C23   C     C_3   0.070251 0.574872 0.761034 0.179716
C24   C     C_R   0.419042 0.065449 0.577039 0.042878
C25   C     C_R   0.503332 0.129547 0.494636 -0.039689
C26   C     C_R   0.578780 0.062256 0.400147 0.203485
C27   C     C_R   0.573673 0.933220 0.401230 -0.098029
C28   C     C_R   0.500677 0.870844 0.499099 -0.079985
Cu1   Cu    Cu3+1 0.499990 0.499980 0.640670 0.951349
Cu2   Cu    Cu3+1 0.500010 0.500020 0.359330 1.011939
H1    H     H_    0.115800 0.415692 0.289454 0.129521
H2    H     H_    0.879529 0.519043 0.829682 0.142131
H3    H     H_    0.114853 0.667594 0.766659 0.156678
H4    H     H_    0.633663 0.881938 0.332195 0.164153
H5    H     H_    0.263008 0.130286 0.853406 0.321643
H6    H     H_    0.764743 0.796061 0.133853 0.331201
H7    H     H_    0.936416 0.538399 0.137103 0.174537
H8    H     H_    0.838037 0.423521 0.057032 0.143414
H9    H     H_    0.991012 0.381961 0.102474 0.121481
H10   H     H_    0.149405 0.336464 0.743630 0.186372
H11   H     H_    0.997243 0.344504 0.822577 0.121554
H12   H     H_    0.473779 0.906528 0.798798 0.061732
H13   H     H_    0.129926 0.313813 0.926414 0.113599
H14   H     H_    0.684826 0.200546 0.348356 0.360452
H15   H     H_    0.298448 0.793609 0.774623 0.324573
H16   H     H_    0.465220 0.127576 0.790242 0.084310
H17   H     H_    0.347301 0.378520 0.127648 0.121236
H18   H     H_    0.349834 0.376351 0.867439 0.149912
H19   H     H_    0.719465 0.706582 0.877578 0.139937
H20   H     H_    0.553177 0.744935 0.880827 0.114423
H21   H     H_    0.557041 0.749860 0.131644 0.137825
H22   H     H_    0.895495 0.677620 0.755059 0.111622
N1    N     N_R   0.500790 0.500930 0.147930 -0.255164
N2    N     N_R   0.500790 0.500890 0.852020 -0.248191
O1    O     O_R   0.500000 0.319640 0.618810 -0.508354
O2    O     O_3   0.745964 0.706375 0.139672 -0.707834
O3    O     O_3   0.867889 0.397100 0.265958 -0.547222
O4    O     O_3   0.116992 0.494609 0.865222 -0.581573
O5    O     O_3   0.663461 0.116953 0.312269 -0.677672
O6    O     O_3   0.282256 0.883201 0.767082 -0.650776
O7    O     O_R   0.500010 0.319680 0.381230 -0.494935
O8    O     O_R   0.319650 0.499970 0.618810 -0.486668
O9    O     O_R   0.319660 0.500010 0.381230 -0.513380
O10   O     O_R   0.499990 0.680320 0.618770 -0.516019
O11   O     O_R   0.500000 0.680360 0.381190 -0.500816
O12   O     O_R   0.680340 0.499990 0.618770 -0.522018
O13   O     O_R   0.680350 0.500030 0.381190 -0.427692
O14   O     O_3   0.273798 0.125548 0.750520 -0.661901

loop_
_geom_bond_atom_site_label_1
_geom_bond_atom_site_label_2
_ccdc_geom_bond_type
C4    C16   S    
C23   O4    S    
C14   O13   A    
C8    H18   S    
C13   C28   S    
Cu1   Cu2   S    
H6    O2    S    
C12   C22   S    
C20   H8    S    
C9    C10   S    
C18   O3    S    
Cu1   O1    S    
Cu2   O13   S    
C12   C15   A    
H15   O6    S    
C3    O6    S    
C6    C9    A    
C15   C23   S    
C17   C18   A    
C14   O12   A    
Cu1   O10   S    
C21   O4    S    
C3    H12   S    
C13   O11   A    
Cu2   O9    S    
C1    C25   S    
C20   H7    S    
C21   H10   S    
C4    O9    A    
C26   C27   A    
C13   O10   A    
C22   H2    S    
H5    O14   S    
C5    O14   S    
C21   H11   S    
C12   C19   A    
C25   C26   A    
C2    C3    S    
C6    C11   S    
C27   H4    S    
C2    C24   A    
C17   H1    S    
Cu2   N1    S    
C1    O1    A    
Cu2   O11   S    
C11   H21   S    
Cu1   N2    S    
C7    N1    A    
C6    N1    A    
C15   C16   A    
C10   H20   S    
C4    O8    A    
C7    C8    A    
C24   C25   A    
C22   H22   S    
C18   C19   A    
C10   C11   S    
Cu2   O7    S    
C8    N2    A    
C27   C28   A    
C5    H16   S    
C20   H9    S    
C22   C23   S    
C5    C24   S    
C26   O5    S    
C2    C28   A    
C9    N2    A    
H14   O5    S    
C3    C5    S    
C20   O3    S    
Cu1   O8    S    
C10   H19   S    
C14   C19   S    
C21   H13   S    
C11   O2    S    
Cu1   O12   S    
C1    O7    A    
C16   C17   A    
C23   H3    S    
C7    H17   S    
