data_mof_unit_2590.cif
_audit_creation_date              2012-12-11T16:08:58-0500
_audit_creation_method            fapswitch 2.2
_symmetry_space_group_name_H-M    P1
_symmetry_Int_Tables_number       1
_space_group_crystal_system       triclinic
_cell_length_a                    12.953408
_cell_length_b                    13.285012
_cell_length_c                    27.739268
_cell_angle_alpha                 95.326745
_cell_angle_beta                  89.620328
_cell_angle_gamma                 119.136009
_cell_volume                      4147.43921958

loop_
_atom_site_label
_atom_site_type_symbol
_atom_type_description
_atom_site_fract_x
_atom_site_fract_y
_atom_site_fract_z
_atom_type_partial_charge
C1    C     C_R   0.626364 0.898069 0.426431 0.560132
C2    C     C_R   0.266008 0.805939 0.290199 0.021688
C3    C     C_3   0.569239 0.545039 0.428405 -0.247525
C4    C     C_3   0.662197 0.529311 0.455130 -0.462952
C5    C     C_3   0.292411 0.314548 0.727751 0.006951
C6    C     C_3   0.173960 0.235507 0.749066 -0.259523
C7    C     C_3   0.115496 0.304286 0.770259 -0.489438
C8    C     C_3   0.175688 0.589586 0.692975 -0.007306
C9    C     C_3   0.282427 0.649076 0.661406 -0.266212
C10   C     C_3   0.355182 0.586770 0.658364 -0.463151
C11   C     C_2   0.674331 0.646492 0.684114 0.567022
C12   C     C_2   0.439072 0.249439 0.293330 0.569246
C13   C     C_R   0.239324 0.802244 0.190345 0.024401
C14   C     C_3   0.200228 0.606289 0.353496 0.012597
C15   C     C_3   0.242067 0.517846 0.357715 -0.238054
C16   C     C_3   0.138118 0.394659 0.355127 -0.481994
C17   C     C_R   0.601281 0.221906 0.440562 0.536808
C18   C     C_R   0.298346 0.748772 0.208436 -0.157646
C19   C     C_R   0.311091 0.750071 0.258037 -0.119749
C20   C     C_R   0.204010 0.780124 0.141509 -0.133555
C21   C     C_R   0.133924 0.823294 0.124609 -0.012510
C22   C     C_R   0.189108 0.930283 0.355547 0.026343
C23   C     C_R   0.179311 0.933384 0.304906 -0.025200
C24   C     C_R   0.219400 0.872128 0.272589 0.000727
C25   C     C_R   0.572474 0.304099 0.224414 -0.167246
C26   C     C_R   0.130506 0.996130 0.285664 -0.096641
C27   C     C_R   0.119066 0.997521 0.235666 0.054219
C28   C     C_R   0.149655 0.927581 0.203730 -0.004993
C29   C     C_R   0.274357 0.877728 0.424071 0.586211
C30   C     C_R   0.205438 0.869877 0.222220 0.053286
C31   C     C_R   0.114147 0.902859 0.154625 -0.107761
C32   C     C_R   0.234613 0.862139 0.372820 -0.017120
C33   C     C_R   0.689785 0.970493 0.348575 -0.157017
C34   C     C_R   0.685815 0.955510 0.298630 0.013621
C35   C     C_R   0.688624 0.926561 0.197700 0.035610
C36   C     C_R   0.558782 0.289196 0.273955 0.053842
C37   C     C_R   0.732475 0.037727 0.222181 -0.101087
C38   C     C_R   0.731304 0.052066 0.272328 -0.105568
C39   C     C_R   0.703694 0.911708 0.147848 0.259700
C40   C     C_R   0.671508 0.800056 0.126211 0.002217
C41   C     C_R   0.626743 0.899077 0.565129 0.541315
C42   C     C_R   0.590365 0.761235 0.352353 0.264165
C43   C     C_R   0.586488 0.744971 0.301520 0.025832
C44   C     C_R   0.634946 0.842809 0.274780 0.025875
C45   C     C_R   0.535708 0.633308 0.276811 -0.126479
C46   C     C_R   0.536975 0.618974 0.226529 -0.144985
C47   C     C_R   0.659842 0.317451 0.303672 -0.037716
C48   C     C_R   0.589447 0.715964 0.200340 -0.014913
C49   C     C_R   0.635772 0.828352 0.224173 0.026048
C50   C     C_R   0.605488 0.702603 0.151267 -0.187331
C51   C     C_R   0.640946 0.874701 0.375505 0.017966
C52   C     C_R   0.739402 0.305855 0.651956 -0.112984
C53   C     C_R   0.601763 0.226099 0.578819 0.531520
C54   C     C_R   0.752706 0.326385 0.702480 0.039896
C55   C     C_R   0.774042 0.356907 0.804091 0.019287
C56   C     C_R   0.870635 0.370238 0.776851 -0.134159
C57   C     C_R   0.859318 0.352959 0.726323 -0.101023
C58   C     C_R   0.683866 0.348562 0.204528 0.012181
C59   C     C_R   0.785621 0.379129 0.854494 -0.133932
C60   C     C_R   0.689717 0.371885 0.880903 -0.002644
C61   C     C_R   0.540976 0.280867 0.656156 -0.089113
C62   C     C_R   0.549258 0.293118 0.706425 0.047293
C63   C     C_R   0.655882 0.315752 0.729763 0.036633
C64   C     C_R   0.451301 0.279108 0.733417 0.259323
C65   C     C_R   0.271617 0.879688 0.563447 0.543546
C66   C     C_R   0.460151 0.283796 0.784030 -0.130681
C67   C     C_R   0.567047 0.311019 0.807400 -0.033328
C68   C     C_R   0.665487 0.327222 0.780399 0.049340
C69   C     C_1   0.694606 0.370879 0.154340 -0.022801
C70   C     C_R   0.578730 0.329243 0.857580 -0.131162
C71   C     C_R   0.631965 0.279167 0.628902 -0.020065
C72   C     C_1   0.222689 0.863588 0.610378 -0.004215
C73   C     C_R   0.132735 0.733353 0.720522 0.305232
C74   C     C_R   0.118330 0.725425 0.770554 -0.084507
C75   C     C_R   0.193187 0.932661 0.784568 -0.127479
C76   C     C_R   0.204432 0.940683 0.734728 -0.167194
C77   C     C_1   0.633651 0.269203 0.394918 0.010630
C78   C     C_R   0.173144 0.841384 0.702593 0.047269
C79   C     C_R   0.150238 0.825015 0.802566 -0.004776
C80   C     C_1   0.650168 0.296433 0.354113 -0.025264
C81   C     C_1   0.129896 0.813939 0.853326 -0.054692
C82   C     C_1   0.194778 0.852861 0.651880 -0.010283
C83   C     C_1   0.103591 0.797257 0.894716 -0.013626
C84   C     C_1   0.641352 0.865913 0.611386 0.016314
C85   C     C_R   0.636080 0.902735 0.737038 -0.141875
C86   C     C_R   0.638549 0.892017 0.786533 -0.114450
C87   C     C_R   0.664344 0.724038 0.768702 -0.117166
C88   C     C_R   0.662025 0.733204 0.718440 0.058214
C89   C     C_R   0.771699 0.364698 0.283813 -0.134763
C90   C     C_R   0.648757 0.825197 0.702746 0.007887
C91   C     C_1   0.703567 0.396776 0.113397 -0.011397
C92   C     C_R   0.653220 0.803074 0.802532 0.006302
C93   C     C_1   0.665741 0.796737 0.853666 -0.055056
C94   C     C_1   0.647164 0.844431 0.652330 -0.003017
C95   C     C_1   0.683677 0.789349 0.895522 -0.011886
C96   C     C_R   0.065763 0.774146 0.078712 0.544760
C97   C     C_R   0.716949 0.441718 0.067344 0.539017
C98   C     C_R   0.718819 0.782305 0.080450 0.560451
C99   C     C_R   0.057006 0.766071 0.941320 0.541841
C100  C     C_R   0.710433 0.432840 0.929387 0.544025
C101  C     C_R   0.784618 0.380753 0.234297 0.275673
C102  C     C_R   0.264433 0.793351 0.339508 0.220788
C103  C     C_R   0.716497 0.776036 0.942938 0.536156
C104  C     C_2   0.076684 0.074704 0.218770 0.564689
C105  C     C_2   0.148773 0.993949 0.390730 0.584232
C106  C     C_3   0.683923 0.044060 0.106985 -0.007926
C107  C     C_3   0.627623 0.985357 0.056661 -0.258222
C108  C     C_3   0.550861 0.033068 0.038330 -0.477998
C109  C     C_3   0.953460 0.376958 0.212439 -0.003229
C110  C     C_3   0.082848 0.456355 0.202077 -0.268168
C111  C     C_3   0.153225 0.391785 0.197459 -0.460276
C112  C     C_3   0.626788 0.648317 0.398502 -0.005694
Cr1   Cr    Cr6+3 0.416430 0.829200 0.492370 1.053983
Cr2   Cr    Cr6+3 0.674630 0.087020 0.504170 1.018804
Cr3   Cr    Cr6+3 0.408920 0.083740 0.503490 1.072175
Cr4   Cr    Cr6+3 0.914010 0.832750 0.013970 1.051929
Cr5   Cr    Cr6+3 0.922310 0.578600 0.003000 1.023039
Cr6   Cr    Cr6+3 0.656280 0.574630 0.003870 1.016137
H1    H     H_    0.849548 0.391605 0.307059 0.108309
H2    H     H_    0.810097 0.305560 0.630902 0.126798
H3    H     H_    0.954772 0.394398 0.794670 0.100523
H4    H     H_    0.933867 0.361076 0.705832 0.106946
H5    H     H_    0.503992 0.321400 0.878084 0.130434
H6    H     H_    0.384480 0.268504 0.805314 0.100659
H7    H     H_    0.458763 0.262577 0.638233 0.187374
H8    H     H_    0.496154 0.282896 0.201158 0.163171
H9    H     H_    0.081380 0.641461 0.784299 0.112850
H10   H     H_    0.216816 0.010014 0.808935 0.118936
H11   H     H_    0.238265 0.024411 0.721216 0.169886
H12   H     H_    0.101069 0.045437 0.309363 0.183785
H13   H     H_    0.625419 0.972977 0.725416 0.116828
H14   H     H_    0.630863 0.954223 0.812323 0.119575
H15   H     H_    0.675958 0.655640 0.781826 0.152842
H16   H     H_    0.221929 0.721314 0.117769 0.119575
H17   H     H_    0.327563 0.699420 0.184374 0.111924
H18   H     H_    0.351379 0.702316 0.270944 0.164420
H19   H     H_    0.058490 0.934292 0.140838 0.188658
H20   H     H_    0.982038 0.156781 0.232802 0.325910
H21   H     H_    0.046893 0.986288 0.447088 0.337201
H22   H     H_    0.736170 0.139095 0.105043 0.152112
H23   H     H_    0.725818 0.057779 0.366488 0.143296
H24   H     H_    0.613626 0.030477 0.133250 0.115505
H25   H     H_    0.698282 0.999933 0.030764 0.188569
H26   H     H_    0.571669 0.890581 0.058283 0.148669
H27   H     H_    0.478269 0.017381 0.063297 0.154957
H28   H     H_    0.511309 0.988968 0.001875 0.150157
H29   H     H_    0.605055 0.127595 0.035550 0.150099
H30   H     H_    0.911543 0.307764 0.181754 0.141865
H31   H     H_    0.950589 0.336880 0.246330 0.105354
H32   H     H_    0.087719 0.496087 0.167985 0.185436
H33   H     H_    0.123329 0.526612 0.232190 0.175336
H34   H     H_    0.772125 0.114253 0.202998 0.119774
H35   H     H_    0.153744 0.355505 0.231885 0.174351
H36   H     H_    0.246110 0.452704 0.189452 0.149283
H37   H     H_    0.114374 0.320873 0.167440 0.203552
H38   H     H_    0.690880 0.725762 0.422587 0.140209
H39   H     H_    0.675266 0.628922 0.368961 0.138449
H40   H     H_    0.512390 0.558928 0.455397 0.180655
H41   H     H_    0.512602 0.465055 0.404086 0.191682
H42   H     H_    0.720689 0.515850 0.428966 0.147990
H43   H     H_    0.617764 0.452708 0.475878 0.165002
H44   H     H_    0.716787 0.606789 0.480965 0.161452
H45   H     H_    0.768852 0.138951 0.290639 0.105339
H46   H     H_    0.274867 0.352475 0.696920 0.149136
H47   H     H_    0.349788 0.389276 0.754673 0.123097
H48   H     H_    0.114086 0.169029 0.720114 0.179131
H49   H     H_    0.187245 0.189892 0.777957 0.156688
H50   H     H_    0.171472 0.367785 0.800776 0.144700
H51   H     H_    0.028168 0.244218 0.783982 0.155933
H52   H     H_    0.102088 0.351204 0.741994 0.128656
H53   H     H_    0.126296 0.496131 0.679628 0.144683
H54   H     H_    0.205650 0.594469 0.731129 0.106936
H55   H     H_    0.251089 0.649126 0.624210 0.197464
H56   H     H_    0.577099 0.616052 0.133907 0.149642
H57   H     H_    0.339757 0.740322 0.676831 0.155894
H58   H     H_    0.430697 0.631042 0.634891 0.194713
H59   H     H_    0.300243 0.495949 0.642113 0.142468
H60   H     H_    0.389808 0.587411 0.694993 0.146907
H61   H     H_    0.663452 0.576266 0.615310 0.340612
H62   H     H_    0.281791 0.245353 0.287203 0.344259
H63   H     H_    0.146327 0.581828 0.318890 0.115380
H64   H     H_    0.143144 0.602656 0.384203 0.149573
H65   H     H_    0.301031 0.523082 0.327654 0.184108
H66   H     H_    0.293040 0.538226 0.392678 0.210758
H67   H     H_    0.500849 0.532135 0.208276 0.135749
H68   H     H_    0.078725 0.386467 0.385354 0.150868
H69   H     H_    0.171727 0.332764 0.358019 0.189273
H70   H     H_    0.087005 0.371797 0.320090 0.142043
H71   H     H_    0.497473 0.556939 0.296220 0.166954
H72   H     H_    0.871372 0.410665 0.872562 0.128431
O1    O     O_R   0.296680 0.802170 0.437540 -0.473648
O2    O     O_R   0.637200 0.461990 0.052510 -0.514400
O3    O     O_R   0.664790 0.681920 0.057970 -0.523101
O4    O     O_R   0.525380 0.838530 0.443500 -0.442979
O5    O     O_R   0.815840 0.852920 0.961840 -0.510549
O6    O     O_R   0.012100 0.822630 0.963670 -0.492848
O7    O     O_R   0.037010 0.668460 0.953040 -0.515742
O8    O     O_R   0.813390 0.478970 0.949660 -0.505124
O9    O     O_R   0.632250 0.456930 0.945520 -0.516579
O10   O     O_R   0.660200 0.677230 0.958780 -0.496337
O11   O     O_3   0.830870 0.661990 0.006950 -0.247091
O12   O     O_R   0.662610 0.183990 0.557860 -0.499789
O13   O     O_R   0.702130 0.995190 0.446810 -0.532586
O14   O     O_R   0.661770 0.181390 0.458760 -0.510377
O15   O     O_R   0.499820 0.198480 0.455280 -0.475238
O16   O     O_R   0.311660 0.976250 0.449080 -0.468148
O17   O     O_R   0.297580 0.804960 0.544440 -0.521822
O18   O     O_R   0.526220 0.841130 0.542590 -0.503578
O19   O     O_R   0.703030 0.997990 0.553710 -0.508538
O20   O     O_2   0.112056 0.120637 0.181416 -0.527834
O21   O     O_R   0.001310 0.100250 0.247216 -0.720249
O22   O     O_2   0.189916 0.098683 0.391046 -0.498005
O23   O     O_R   0.500730 0.201280 0.562180 -0.526191
O24   O     O_R   0.066652 0.933887 0.424669 -0.715340
O25   O     O_3   0.763034 0.006495 0.121716 -0.552476
O26   O     O_3   0.895965 0.444112 0.216666 -0.555867
O27   O     O_3   0.537727 0.666725 0.378923 -0.577052
O28   O     O_3   0.344653 0.247807 0.709167 -0.601199
O29   O     O_3   0.097501 0.634691 0.688539 -0.557285
O30   O     O_2   0.702664 0.579734 0.699659 -0.523114
O31   O     O_R   0.652889 0.639453 0.634251 -0.715648
O32   O     O_2   0.410989 0.198900 0.329861 -0.489456
O33   O     O_R   0.357994 0.271005 0.269554 -0.717155
O34   O     O_R   0.312500 0.978850 0.548170 -0.489752
O35   O     O_3   0.300043 0.718336 0.355103 -0.533279
O36   O     O_3   0.499990 0.999990 0.500010 -0.263958
O37   O     O_R   0.820790 0.857990 0.068830 -0.458470
O38   O     O_R   0.016700 0.827330 0.062850 -0.505267
O39   O     O_R   0.041970 0.673520 0.060040 -0.510552
O40   O     O_R   0.817980 0.483660 0.048840 -0.488800

loop_
_geom_bond_atom_site_label_1
_geom_bond_atom_site_label_2
_ccdc_geom_bond_type
C44   C49   A    
C112  H38   S    
C87   C88   A    
C6    H48   S    
C75   C76   A    
C55   C59   A    
Cr1   O4    S    
C87   H15   S    
C35   C39   A    
C104  O20   D    
C55   C56   A    
C42   O27   S    
Cr6   O10   S    
C11   O31   S    
Cr4   O11   S    
C85   C86   A    
Cr4   O6    S    
C106  O25   S    
C21   C31   A    
C73   O29   S    
C26   C27   A    
C62   C63   A    
C105  O22   D    
C22   C32   A    
C13   C18   A    
Cr4   O38   S    
C96   O38   A    
Cr2   O19   S    
C35   C37   A    
C76   C78   A    
C18   C19   A    
C29   C32   S    
C40   C98   S    
C5    C6    S    
C106  C107  S    
C2    C102  A    
H21   O24   S    
C15   C16   S    
C27   C104  S    
C56   C57   A    
Cr3   O23   S    
C36   C47   A    
C75   H10   S    
C73   C74   A    
C23   C26   A    
Cr5   O39   S    
Cr6   O3    S    
C110  C111  S    
Cr5   O40   S    
C62   C64   A    
C14   H64   S    
C57   H4    S    
C6    H49   S    
Cr4   O5    S    
Cr6   O2    S    
C70   H5    S    
C97   O2    A    
C86   C92   A    
C89   H1    S    
C52   C54   A    
C8    C9    S    
C15   H65   S    
C35   C49   A    
C3    H40   S    
C112  O27   S    
Cr2   O12   S    
C9    H55   S    
C98   O37   A    
C5    H47   S    
C31   H19   S    
C9    C10   S    
C11   C88   S    
C26   H12   S    
C8    H53   S    
C42   C51   A    
C108  H29   S    
C41   O19   A    
C109  O26   S    
C48   C50   A    
C66   C67   A    
C69   C91   T    
C59   C60   A    
C93   C95   T    
C83   C99   S    
C87   C92   A    
C3    H41   S    
C47   C89   A    
C65   C72   S    
C103  O5    A    
C47   C80   S    
C74   H9    S    
Cr5   O11   S    
Cr6   O9    S    
C81   C83   T    
C95   C103  S    
C90   C94   S    
C108  H28   S    
C22   C23   A    
C10   H58   S    
Cr1   O1    S    
C46   C48   A    
C112  H39   S    
Cr4   O37   S    
C67   C68   A    
C10   H60   S    
C5    H46   S    
Cr3   O34   S    
C34   C44   A    
Cr3   O36   S    
C110  H33   S    
C16   H70   S    
C39   C40   A    
C79   C81   S    
C55   C68   A    
Cr2   O14   S    
C25   C36   A    
C33   H23   S    
C19   H18   S    
C45   C46   A    
C41   C84   S    
C99   O6    A    
C102  O35   S    
C29   O16   A    
C98   O3    A    
C7    H50   S    
C64   C66   A    
C17   O14   A    
C109  H31   S    
C25   H8    S    
Cr1   O18   S    
C12   O33   S    
C37   C38   A    
C101  O26   S    
Cr2   O36   S    
C1    C51   S    
C76   H11   S    
C78   C82   S    
C106  H22   S    
C5    O28   S    
C60   C70   A    
C3    C112  S    
C73   C78   A    
C15   H66   S    
C99   O7    A    
C17   C77   S    
C33   C34   A    
C18   H17   S    
C58   C101  A    
C84   C94   T    
C96   O39   A    
C91   C97   S    
C111  H35   S    
C12   O32   D    
C29   O1    A    
C14   O35   S    
C52   H2    S    
C45   H71   S    
C38   H45   S    
H61   O31   S    
C74   C79   A    
Cr3   O15   S    
C43   C44   A    
C2    C24   A    
C66   H6    S    
Cr3   O16   S    
Cr6   O11   S    
C12   C36   S    
C42   C43   A    
C107  C108  S    
C107  H25   S    
C3    C4    S    
C1    O13   A    
Cr1   O17   S    
C14   H63   S    
Cr5   O7    S    
C108  H27   S    
C77   C80   T    
C63   C68   A    
C48   C49   A    
C106  H24   S    
C53   O23   A    
C105  O24   S    
C13   C20   A    
C89   C101  A    
C2    C19   A    
C34   C38   A    
C10   H59   S    
C28   C31   A    
C88   C90   A    
H62   O33   S    
C60   C100  S    
C16   H69   S    
C85   C90   A    
C58   C69   S    
C6    C7    S    
C65   O17   A    
C21   C96   S    
C64   O28   S    
C33   C51   A    
C22   C105  S    
C53   O12   A    
C86   H14   S    
C39   O25   S    
C50   H56   S    
C67   C70   A    
C56   H3    S    
C41   O18   A    
C7    H51   S    
C1    O4    A    
C28   C30   A    
C43   C45   A    
C52   C71   A    
C16   H68   S    
C32   C102  A    
C85   H13   S    
C25   C58   A    
C61   C71   A    
Cr1   O36   S    
C4    H42   S    
C111  H37   S    
C110  H32   S    
C40   C50   A    
C17   O15   A    
C92   C93   S    
C9    H57   S    
C4    H44   S    
C103  O10   A    
C4    H43   S    
C46   H67   S    
C61   C62   A    
C111  H36   S    
C24   C30   A    
C23   C24   A    
H20   O21   S    
C109  H30   S    
C100  O9    A    
C13   C30   A    
C20   C21   A    
C54   C63   A    
C7    H52   S    
C27   C28   A    
C8    O29   S    
C14   C15   S    
C65   O34   A    
C59   H72   S    
C61   H7    S    
C37   H34   S    
C104  O21   S    
C20   H16   S    
C107  H26   S    
C109  C110  S    
C75   C79   A    
C11   O30   D    
Cr2   O13   S    
C97   O40   A    
C72   C82   T    
Cr5   O8    S    
C8    H54   S    
C100  O8    A    
C54   C57   A    
C53   C71   S    
