data_mof_unit_2951.cif
_audit_creation_date              2012-12-10T18:19:11-0500
_audit_creation_method            fapswitch 2.2
_symmetry_space_group_name_H-M    P1
_symmetry_Int_Tables_number       1
_space_group_crystal_system       triclinic
_cell_length_a                    15.003292
_cell_length_b                    14.007981
_cell_length_c                    11.544135
_cell_angle_alpha                 89.966833
_cell_angle_beta                  90.06575
_cell_angle_gamma                 90.173284
_cell_volume                      2426.16961043

loop_
_atom_site_label
_atom_site_type_symbol
_atom_type_description
_atom_site_fract_x
_atom_site_fract_y
_atom_site_fract_z
_atom_type_partial_charge
C1    C     C_R   0.326410 0.499875 0.498557 0.898206
C2    C     C_R   0.456786 0.202095 0.585644 0.077101
C3    C     C_R   0.458761 0.797618 0.587199 0.063934
C4    C     C_R   0.544781 0.202319 0.415891 0.068487
C5    C     C_R   0.460263 0.898619 0.592824 -0.115778
C6    C     C_R   0.548590 0.101336 0.414981 -0.117056
C7    C     C_R   0.542106 0.899089 0.409273 -0.108276
C8    C     C_R   0.453988 0.100973 0.588026 -0.105837
C9    C     C_R   0.501061 0.949511 0.501072 -0.006157
C10   C     C_R   0.501034 0.050520 0.501230 -0.006514
C11   C     C_R   0.421212 0.949337 0.686346 0.304193
C12   C     C_R   0.673531 0.500208 0.498395 0.898877
C13   C     C_R   0.597173 0.050481 0.329506 0.317259
C14   C     C_R   0.583713 0.950390 0.317808 0.264165
C15   C     C_R   0.407974 0.049620 0.676065 0.266440
C16   C     C_R   0.500073 0.500030 0.281713 0.912757
C17   C     C_R   0.499924 0.499986 0.718286 0.917364
C18   C     C_1   0.500075 0.500106 0.161374 -0.117323
C19   C     C_1   0.499911 0.499995 0.838628 -0.117090
C20   C     C_1   0.500030 0.500129 0.059272 0.073647
C21   C     C_1   0.499950 0.500071 0.940731 0.074601
C22   C     C_R   0.815094 0.587546 0.501543 -0.136483
C23   C     C_R   0.907609 0.590159 0.494887 -0.027321
C24   C     C_R   0.184863 0.414599 0.470124 -0.132299
C25   C     C_R   0.769286 0.501100 0.490852 -0.113454
C26   C     C_R   0.230538 0.499937 0.491044 -0.106554
C27   C     C_R   0.814461 0.416147 0.470091 -0.165481
C28   C     C_R   0.185108 0.586056 0.501742 -0.171605
C29   C     C_R   0.906386 0.416349 0.463364 0.075661
C30   C     C_R   0.093251 0.587429 0.495368 0.053365
C31   C     C_R   0.953470 0.502807 0.477777 0.023176
C32   C     C_R   0.046284 0.501350 0.477562 0.025283
C33   C     C_R   0.092217 0.413805 0.461994 -0.003399
C34   C     C_R   0.951285 0.330844 0.443281 -0.267188
C35   C     C_R   0.048317 0.673959 0.507837 -0.238818
C36   C     C_R   0.044006 0.328440 0.440740 0.373738
C37   C     C_R   0.955630 0.676799 0.506748 0.428174
C38   C     C_R   0.542196 0.798030 0.413619 0.085367
H1    H     H_    0.777794 0.652039 0.517119 0.227074
H2    H     H_    0.575881 0.244315 0.348708 0.197224
H3    H     H_    0.000245 0.151951 0.294996 0.373374
H4    H     H_    0.944094 0.937778 0.525317 0.420300
H5    H     H_    0.387157 0.924075 0.001639 0.400109
H6    H     H_    0.802442 0.072473 0.156095 0.396669
H7    H     H_    0.553293 0.995523 0.066510 0.380439
H8    H     H_    0.217864 0.009930 0.747239 0.378027
H9    H     H_    0.222323 0.349297 0.461432 0.229697
H10   H     H_    0.778147 0.349623 0.459657 0.199849
H11   H     H_    0.221141 0.652186 0.516735 0.174609
H12   H     H_    0.913532 0.265646 0.430429 0.214321
H13   H     H_    0.085988 0.739359 0.519512 0.215759
H14   H     H_    0.577432 0.756215 0.350092 0.195917
H15   H     H_    0.426927 0.244228 0.653260 0.194779
H16   H     H_    0.423499 0.755560 0.650769 0.192757
N1    N     N_R   0.500000 0.750030 0.500000 -0.145963
N2    N     N_R   0.500000 0.249970 0.500000 -0.145176
O1    O     O_R   0.367850 0.580280 0.500030 -0.628879
O2    O     O_2   0.145060 0.184331 0.516587 -0.206338
O3    O     O_3   0.020348 0.134014 0.373823 -0.486958
O4    O     O_2   0.840408 0.804520 0.420837 -0.254951
O5    O     O_2   0.851511 0.792070 0.632270 -0.267384
O6    O     O_3   0.979301 0.878135 0.521758 -0.502324
O7    O     O_2   0.312658 0.837859 0.813096 -0.285352
O8    O     O_2   0.473102 0.816772 0.841796 -0.266536
O9    O     O_3   0.400035 0.964512 0.933222 -0.445531
O10   O     O_2   0.642028 0.161870 0.149068 -0.279575
O11   O     O_2   0.729402 0.181192 0.326821 -0.344092
O12   O     O_R   0.632150 0.419720 0.499970 -0.619066
O13   O     O_3   0.760175 0.032999 0.201517 -0.413991
O14   O     O_2   0.695323 0.839833 0.195729 -0.172303
O15   O     O_2   0.536276 0.819251 0.157251 -0.310868
O16   O     O_3   0.613766 0.967795 0.072480 -0.403550
O17   O     O_2   0.374578 0.156819 0.863791 -0.209249
O18   O     O_2   0.279455 0.184216 0.695454 -0.280903
O19   O     O_3   0.250459 0.033151 0.816437 -0.407885
O20   O     O_R   0.632150 0.580280 0.499970 -0.618622
O21   O     O_R   0.367850 0.419720 0.500030 -0.612271
O22   O     O_R   0.500010 0.580270 0.334450 -0.607604
O23   O     O_R   0.499990 0.419730 0.665550 -0.619074
O24   O     O_R   0.499990 0.580270 0.665550 -0.601524
O25   O     O_R   0.500010 0.419730 0.334450 -0.617478
O26   O     O_2   0.161472 0.229410 0.313081 -0.280579
S1    S     S_3+6 0.096028 0.217595 0.410604 0.064601
S2    S     S_3+6 0.903183 0.789662 0.520829 0.058213
S3    S     S_3+6 0.400806 0.888806 0.820270 0.082200
S4    S     S_3+6 0.682994 0.110060 0.249897 0.065108
S5    S     S_3+6 0.607944 0.891166 0.184384 0.111177
S6    S     S_3+6 0.327540 0.109184 0.764320 0.111624
Zn1   Zn    Zn3+2 0.500000 0.607200 0.500000 1.004014
Zn2   Zn    Zn3+2 0.500000 0.392800 0.500000 1.001026

loop_
_geom_bond_atom_site_label_1
_geom_bond_atom_site_label_2
_ccdc_geom_bond_type
C27   H10   S    
C27   C29   A    
C1    O21   A    
C12   O12   A    
O1    Zn1   S    
C30   C35   A    
C19   C21   T    
C24   C26   A    
C14   S5    S    
C5    C11   A    
C3    H16   S    
C38   H14   S    
C36   S1    S    
C17   O23   A    
C33   C36   A    
O24   Zn1   S    
O23   Zn2   S    
C3    N1    A    
C7    C14   A    
C38   N1    A    
C4    H2    S    
C22   C25   A    
C13   S4    S    
O12   Zn2   S    
C37   S2    S    
C9    C10   A    
H4    O6    S    
C18   C20   T    
O20   Zn1   S    
N2    Zn2   S    
C13   C14   A    
O7    S3    D    
H7    O16   S    
C29   C31   A    
C11   C15   A    
O14   S5    D    
H8    O19   S    
O22   Zn1   S    
O21   Zn2   S    
C34   H12   S    
H3    O3    S    
C4    C6    A    
C23   C37   A    
C29   C34   A    
C2    H15   S    
C17   O24   A    
C23   C31   A    
O17   S6    D    
C5    C9    A    
C1    O1    A    
C28   H11   S    
C31   C32   A    
H5    O9    S    
H6    O13   S    
O15   S5    D    
O25   Zn2   S    
C8    C10   A    
C8    C15   A    
C12   O20   A    
C35   H13   S    
C1    C26   S    
O8    S3    D    
O16   S5    S    
C16   O22   A    
C7    C9    A    
O6    S2    S    
O11   S4    D    
C35   C37   A    
C24   H9    S    
C2    C8    A    
O3    S1    S    
C3    C5    A    
O5    S2    D    
O10   S4    D    
O9    S3    S    
C25   C27   A    
C26   C28   A    
C24   C33   A    
C12   C25   S    
C32   C33   A    
C28   C30   A    
N1    Zn1   S    
C2    N2    A    
O2    S1    D    
C6    C13   A    
C30   C32   A    
O4    S2    D    
C11   S3    S    
C22   H1    S    
C16   O25   A    
C17   C19   S    
C7    C38   A    
C34   C36   A    
C6    C10   A    
O19   S6    S    
C20   C21   S    
C16   C18   S    
O26   S1    D    
C22   C23   A    
O18   S6    D    
C4    N2    A    
O13   S4    S    
C15   S6    S    
