data_mof_unit_2510.cif
_audit_creation_date              2012-12-11T15:57:06-0500
_audit_creation_method            fapswitch 2.2
_symmetry_space_group_name_H-M    P1
_symmetry_Int_Tables_number       1
_space_group_crystal_system       triclinic
_cell_length_a                    17.649593
_cell_length_b                    24.685237
_cell_length_c                    15.071793
_cell_angle_alpha                 90.175631
_cell_angle_beta                  126.484492
_cell_angle_gamma                 89.904157
_cell_volume                      5279.59426527

loop_
_atom_site_label
_atom_site_type_symbol
_atom_type_description
_atom_site_fract_x
_atom_site_fract_y
_atom_site_fract_z
_atom_type_partial_charge
C1    C     C_R   0.321097 0.137037 0.906179 -0.185448
C2    C     C_R   0.351211 0.848631 0.906403 -0.286670
C3    C     C_R   0.814158 0.630233 0.906463 -0.223655
C4    C     C_R   0.809512 0.374822 0.906316 -0.174870
C5    C     C_R   0.645045 0.151862 0.091555 0.642428
C6    C     C_R   0.639708 0.846503 0.090193 0.675110
C7    C     C_R   0.170424 0.641717 0.090677 0.619020
C8    C     C_R   0.135253 0.345817 0.089875 0.695585
C9    C     C_R   0.552171 0.847142 0.908794 -0.160202
C10   C     C_R   0.561410 0.150577 0.909293 -0.105429
C11   C     C_R   0.051340 0.347215 0.908517 -0.099532
C12   C     C_R   0.088718 0.633148 0.907516 -0.120387
C13   C     C_R   0.429852 0.000007 0.628987 0.069613
C14   C     C_R   0.947871 0.498903 0.638259 0.148459
C15   C     C_R   0.824242 0.001738 0.271861 -0.128167
C16   C     C_R   0.323381 0.499007 0.269162 -0.129361
C17   C     C_R   0.624875 0.180693 0.001724 0.074372
C18   C     C_R   0.608608 0.814495 0.999191 0.150578
C19   C     C_R   0.167626 0.656492 0.999857 0.128000
C20   C     C_R   0.105220 0.314044 0.998741 0.156288
C21   C     C_3   0.041709 0.948863 0.456790 0.543275
C22   C     C_3   0.021738 0.018868 0.525927 0.379563
C23   C     C_3   0.522560 0.457175 0.505089 0.471432
C24   C     C_3   0.524059 0.544180 0.497462 0.521113
C25   C     C_3   0.961757 0.969707 0.460097 -0.310998
C26   C     C_3   0.450650 0.501902 0.472461 -0.368063
C27   C     C_3   0.925645 0.002281 0.354356 0.001949
C28   C     C_3   0.423535 0.498181 0.354480 -0.018196
C29   C     C_3   0.004775 0.980042 0.349564 -0.358061
C30   C     C_3   0.985266 0.052235 0.422476 -0.253649
C31   C     C_3   0.494447 0.451890 0.387346 -0.222385
C32   C     C_3   0.496116 0.541936 0.379500 -0.273758
C33   C     C_3   0.066193 0.029277 0.421455 0.808581
C34   C     C_3   0.568949 0.495747 0.416406 0.759608
C35   C     C_R   0.447099 0.846855 0.089315 0.559003
C36   C     C_R   0.421657 0.142975 0.090451 0.562522
C37   C     C_R   0.900375 0.378106 0.089761 0.656807
C38   C     C_R   0.909678 0.632395 0.091991 0.634846
C39   C     C_3   0.103144 0.997095 0.526676 -0.112003
C40   C     C_3   0.597045 0.499580 0.533899 -0.118874
C41   C     C_3   0.394937 0.731459 0.095269 0.216875
C42   C     C_3   0.250348 0.181540 0.084276 0.192151
C43   C     C_3   0.808667 0.293915 0.122513 0.223888
C44   C     C_3   0.726659 0.672757 0.067378 0.148913
C45   C     C_3   0.750074 0.249527 0.125653 0.798788
C46   C     C_3   0.654594 0.715050 0.055379 0.828905
C47   C     C_3   0.336110 0.682554 0.088716 0.712814
C48   C     C_3   0.198812 0.228755 0.097359 0.787255
C49   C     C_3   0.765466 0.266072 0.934214 0.377719
C50   C     C_3   0.817551 0.745840 0.037760 0.375174
C51   C     C_3   0.277947 0.738720 0.886857 0.373124
C52   C     C_3   0.316620 0.255796 0.024861 0.353978
C53   C     C_3   0.255370 0.796799 0.008304 0.156618
C54   C     C_3   0.173102 0.200315 0.883964 0.193975
C55   C     C_3   0.657319 0.327764 0.944344 0.253432
C56   C     C_3   0.672650 0.701836 0.876989 0.246341
C57   C     C_3   0.330755 0.771112 0.997247 -0.211168
C58   C     C_3   0.271482 0.198421 0.000073 -0.254130
C59   C     C_3   0.762802 0.313379 0.001033 -0.277712
C60   C     C_3   0.762175 0.691070 0.997658 -0.262471
C61   C     C_3   0.674708 0.228969 0.003305 -0.357822
C62   C     C_3   0.659966 0.767277 0.998823 -0.324075
C63   C     C_3   0.228513 0.696181 0.998581 -0.260930
C64   C     C_3   0.163239 0.270477 0.000245 -0.353237
C65   C     C_3   0.721009 0.215041 0.942865 1.130325
C66   C     C_3   0.763615 0.787261 0.054781 1.122490
C67   C     C_3   0.208056 0.699538 0.881727 1.117750
C68   C     C_3   0.246559 0.298657 0.007356 1.111458
C69   C     C_3   0.603554 0.276167 0.937596 -0.527711
C70   C     C_3   0.618917 0.750699 0.877323 -0.558166
C71   C     C_3   0.204632 0.752028 0.023466 -0.537355
C72   C     C_3   0.105914 0.237337 0.889848 -0.512219
C73   C     C_3   0.427914 0.059688 0.491870 1.411058
C74   C     C_3   0.520501 0.972307 0.560407 1.271443
C75   C     C_3   0.058147 0.542636 0.605702 1.344894
C76   C     C_3   0.022552 0.442269 0.568017 1.304044
C77   C     C_R   0.480266 0.045423 0.247446 -0.201717
C78   C     C_R   0.476452 0.954968 0.243460 -0.146717
C79   C     C_R   0.053617 0.544935 0.306842 -0.005642
C80   C     C_R   0.058410 0.456212 0.308780 -0.014217
C81   C     C_3   0.442786 0.058951 0.402579 -0.771343
C82   C     C_3   0.518777 0.967298 0.458616 -0.699814
C83   C     C_3   0.098899 0.538318 0.539980 -0.698494
C84   C     C_3   0.047560 0.442683 0.487218 -0.685252
C85   C     C_3   0.336991 0.969900 0.425115 0.665577
C86   C     C_3   0.891083 0.511831 0.443366 0.686763
C87   C     C_3   0.426907 0.999927 0.527860 -0.537436
C88   C     C_3   0.977828 0.498653 0.564333 -0.595997
C89   C     C_3   0.435785 0.000336 0.360457 -0.137672
C90   C     C_3   0.035838 0.500372 0.440271 -0.131902
C91   C     C_3   0.339082 0.974614 0.320889 0.684571
C92   C     C_3   0.927731 0.517929 0.370397 0.677521
C93   C     C_R   0.241674 0.953652 0.696916 0.680251
C94   C     C_R   0.240594 0.043989 0.694093 0.715619
C95   C     C_R   0.738883 0.454736 0.697654 0.681266
C96   C     C_R   0.738965 0.545218 0.697734 0.691573
C97   C     C_R   0.335073 0.160191 0.999137 0.147017
C98   C     C_R   0.384493 0.816168 0.997068 0.236593
C99   C     C_R   0.822851 0.649413 0.999181 0.109271
C100  C     C_R   0.813984 0.360459 0.998546 0.042408
C101  C     C_R   0.450763 0.000509 0.273671 0.387259
C102  C     C_R   0.066870 0.500663 0.368597 0.174402
C103  C     C_R   0.193931 0.998011 0.633481 -0.187113
C104  C     C_R   0.688689 0.499915 0.639161 -0.194671
C105  C     C_R   0.443591 0.044858 0.692617 0.525370
C106  C     C_R   0.445983 0.955167 0.693099 0.536309
C107  C     C_R   0.953329 0.544252 0.696287 0.503215
C108  C     C_R   0.952766 0.454410 0.696853 0.522559
C109  C     C_R   0.769575 0.955988 0.245187 0.621969
C110  C     C_R   0.768504 0.046053 0.247801 0.605566
C111  C     C_R   0.267781 0.454210 0.244216 0.637981
C112  C     C_R   0.269820 0.544539 0.249229 0.618958
H1    H     H_    0.266277 0.145298 0.820375 0.215463
H2    H     H_    0.307758 0.837101 0.820594 0.222429
H3    H     H_    0.758261 0.637105 0.820650 0.222337
H4    H     H_    0.753286 0.365968 0.821260 0.202582
H5    H     H_    0.996269 0.964038 0.275213 0.217118
H6    H     H_    0.966028 0.095720 0.412287 0.254620
H7    H     H_    0.480905 0.413868 0.340537 0.250060
H8    H     H_    0.483736 0.576597 0.325757 0.208493
H9    H     H_    0.420699 0.753509 0.172935 0.201880
H10   H     H_    0.200875 0.146592 0.046745 0.216081
H11   H     H_    0.806997 0.327967 0.168888 0.188874
H12   H     H_    0.689530 0.633410 0.032494 0.200200
H13   H     H_    0.202830 0.819130 0.930389 0.140526
H14   H     H_    0.182818 0.217781 0.823019 0.134721
H15   H     H_    0.625418 0.342365 0.858833 0.112725
H16   H     H_    0.694082 0.712878 0.823028 0.106139
H17   H     H_    0.226292 0.753455 0.109295 0.305710
H18   H     H_    0.049780 0.213325 0.883981 0.282300
H19   H     H_    0.561565 0.284648 0.969189 0.281015
H20   H     H_    0.542220 0.741565 0.828053 0.286922
H21   H     H_    0.551721 0.264489 0.849475 0.200883
H22   H     H_    0.626630 0.784763 0.834905 0.212482
H23   H     H_    0.127322 0.759819 0.968054 0.223805
H24   H     H_    0.069891 0.263054 0.815193 0.226212
H25   H     H_    0.723432 0.277875 0.845719 0.108734
H26   H     H_    0.823726 0.760654 0.972521 0.089404
H27   H     H_    0.235975 0.765807 0.814446 0.105301
H28   H     H_    0.335893 0.264147 0.967961 0.109658
H29   H     H_    0.514176 0.075593 0.437777 0.258724
H30   H     H_    0.587453 0.981494 0.479124 0.244349
H31   H     H_    0.171866 0.521768 0.593295 0.255460
H32   H     H_    0.121109 0.427963 0.528989 0.238610
H33   H     H_    0.391345 0.086433 0.334506 0.267594
H34   H     H_    0.512357 0.923779 0.435733 0.233459
H35   H     H_    0.105463 0.579190 0.514486 0.228521
H36   H     H_    0.000541 0.413799 0.418847 0.255234
H37   H     H_    0.475497 0.086744 0.264804 0.176235
H38   H     H_    0.464962 0.913444 0.254227 0.188778
H39   H     H_    0.070082 0.585829 0.337209 0.135310
H40   H     H_    0.081073 0.415451 0.339829 0.163094
H41   H     H_    0.510321 0.834878 0.823565 0.166108
H42   H     H_    0.521486 0.163627 0.824561 0.206406
H43   H     H_    0.010554 0.336038 0.822786 0.167139
H44   H     H_    0.059767 0.638216 0.821992 0.252105
H45   H     H_    0.919453 0.945398 0.478058 0.203446
H46   H     H_    0.401327 0.504334 0.495237 0.183530
N1    N     N_R   0.392450 0.103580 0.942190 -0.084892
N2    N     N_R   0.392450 0.896420 0.942190 -0.070422
N3    N     N_R   0.892450 0.603580 0.942190 -0.077903
N4    N     N_R   0.892450 0.396420 0.942190 -0.080097
N5    N     N_R   0.450490 0.896000 0.057360 -0.136164
N6    N     N_R   0.450490 0.104000 0.057360 -0.142411
N7    N     N_R   0.950490 0.396000 0.057360 -0.110101
N8    N     N_R   0.950490 0.604000 0.057360 -0.148859
N9    N     N_R   0.525490 0.028390 0.207550 -0.066452
N10   N     N_R   0.525490 0.971610 0.207550 -0.077424
N11   N     N_R   0.025490 0.528390 0.207550 -0.071197
N12   N     N_R   0.025490 0.471610 0.207550 -0.060422
N13   N     N_R   0.317450 0.971190 0.792000 -0.169608
N14   N     N_R   0.317450 0.028810 0.792000 -0.170845
N15   N     N_R   0.817450 0.471190 0.792000 -0.180544
N16   N     N_R   0.817450 0.528810 0.792000 -0.171453
N17   N     N_R   0.473900 0.028390 0.792280 -0.158619
N18   N     N_R   0.473900 0.971610 0.792280 -0.155781
N19   N     N_R   0.973900 0.528390 0.792280 -0.158975
N20   N     N_R   0.973900 0.471610 0.792280 -0.155380
N21   N     N_R   0.682310 0.971180 0.208170 -0.172239
N22   N     N_R   0.682310 0.028820 0.208170 -0.163343
N23   N     N_R   0.182310 0.471180 0.208170 -0.182214
N24   N     N_R   0.182310 0.528820 0.208170 -0.172895
N25   N     N_R   0.606470 0.103570 0.057210 -0.137255
N26   N     N_R   0.606470 0.896430 0.057210 -0.134729
N27   N     N_R   0.106470 0.603570 0.057210 -0.151515
N28   N     N_R   0.106470 0.396430 0.057210 -0.134327
N29   N     N_R   0.549740 0.896000 0.943240 -0.079155
N30   N     N_R   0.549740 0.104000 0.943240 -0.093606
N31   N     N_R   0.049740 0.396000 0.943240 -0.086612
N32   N     N_R   0.049740 0.604000 0.943240 -0.105902
Ni1   Ni    Ni4+2 0.433780 0.065390 0.868430 0.245806
Ni2   Ni    Ni4+2 0.433780 0.934610 0.868430 0.248644
Ni3   Ni    Ni4+2 0.933780 0.565390 0.868430 0.243368
Ni4   Ni    Ni4+2 0.933780 0.434610 0.868430 0.256985
Ni5   Ni    Ni4+2 0.565800 0.934190 0.131570 0.219694
Ni6   Ni    Ni4+2 0.565800 0.065810 0.131570 0.221320
Ni7   Ni    Ni4+2 0.065800 0.434190 0.131570 0.251662
Ni8   Ni    Ni4+2 0.065800 0.565810 0.131570 0.198085
O1    O     O_3   0.069980 0.894708 0.472603 -0.588628
H47   H     H_    0.013470 0.874215 0.413926 0.384034
O2    O     O_3   0.031509 0.038904 0.619209 -0.687164
H48   H     H_    0.967496 0.050668 0.592614 0.346989
O3    O     O_3   0.536864 0.413412 0.572182 -0.666724
H49   H     H_    0.476466 0.393234 0.530374 0.359286
O4    O     O_3   0.539462 0.591967 0.556080 -0.665961
H50   H     H_    0.479660 0.612552 0.510468 0.365977
F1    F     F_    0.121673 0.059899 0.404000 -0.555008
F2    F     F_    0.632479 0.492749 0.391271 -0.585790
O5    O     O_3   0.473121 0.714969 0.099121 -0.625507
H51   H     H_    0.519073 0.698889 0.173144 0.360903
O6    O     O_3   0.327746 0.161516 0.186333 -0.718251
H52   H     H_    0.372622 0.191271 0.229124 0.418671
O7    O     O_3   0.904212 0.278515 0.179494 -0.621771
H53   H     H_    0.907985 0.244580 0.147303 0.400140
O8    O     O_3   0.799996 0.661675 0.178409 -0.642289
H54   H     H_    0.839873 0.694401 0.211458 0.409123
O9    O     O_3   0.355506 0.676938 0.193246 -0.653325
H55   H     H_    0.422178 0.665247 0.245450 0.339556
O10   O     O_3   0.119647 0.207828 0.087005 -0.651964
H56   H     H_    0.143282 0.183705 0.151179 0.386008
O11   O     O_3   0.701257 0.272625 0.164387 -0.639533
H57   H     H_    0.747486 0.279201 0.244973 0.382959
O12   O     O_3   0.562864 0.693456 0.984567 -0.622552
H58   H     H_    0.558824 0.661943 0.022421 0.369430
O13   O     O_3   0.811077 0.208902 0.201784 -0.645263
H59   H     H_    0.823755 0.181180 0.164977 0.365799
O14   O     O_3   0.670218 0.725662 0.157133 -0.653482
H60   H     H_    0.735611 0.737859 0.212186 0.388114
O15   O     O_3   0.359793 0.632916 0.063554 -0.690127
H61   H     H_    0.370590 0.638856 0.007004 0.404346
O16   O     O_3   0.258419 0.252728 0.203012 -0.633526
H62   H     H_    0.311744 0.270919 0.210661 0.376308
F3    F     F_    0.855939 0.255829 0.966344 -0.600267
F4    F     F_    0.909105 0.743118 0.132312 -0.597906
F5    F     F_    0.341066 0.711624 0.876194 -0.579483
F6    F     F_    0.398791 0.260145 0.130930 -0.591963
F7    F     F_    0.787522 0.174252 0.995890 -0.640139
F8    F     F_    0.810763 0.796391 0.166793 -0.613078
F9    F     F_    0.213532 0.649045 0.845091 -0.583192
F10   F     F_    0.292505 0.337243 0.090778 -0.621483
O17   O     O_3   0.510576 0.827256 0.194381 -0.719611
H63   H     H_    0.553449 0.857194 0.240645 0.300384
O18   O     O_3   0.479456 0.170206 0.188819 -0.655019
H64   H     H_    0.541284 0.151814 0.231794 0.310473
O19   O     O_3   0.927763 0.382632 0.195144 -0.740954
H65   H     H_    0.874926 0.400884 0.189115 0.341729
O20   O     O_3   0.955710 0.650484 0.198211 -0.644033
H66   H     H_    0.023056 0.653605 0.228352 0.310598
O21   O     O_3   0.296098 0.833066 0.097910 -0.690822
H67   H     H_    0.244328 0.856361 0.084480 0.359115
O22   O     O_3   0.133479 0.148188 0.848880 -0.685281
H68   H     H_    0.082512 0.150615 0.768437 0.366737
O23   O     O_3   0.650237 0.368943 0.003716 -0.681266
H69   H     H_    0.585054 0.383372 0.954716 0.355639
O24   O     O_3   0.614157 0.655789 0.833435 -0.676240
H70   H     H_    0.570936 0.660547 0.752143 0.365783
F11   F     F_    0.654026 0.196960 0.835942 -0.651547
F12   F     F_    0.763621 0.835886 0.008443 -0.663809
F13   F     F_    0.117797 0.719631 0.804503 -0.695069
F14   F     F_    0.212118 0.325673 0.909392 -0.663699
F15   F     F_    0.343691 0.086076 0.451235 -0.580069
F16   F     F_    0.534374 0.921130 0.605357 -0.656958
F17   F     F_    0.024695 0.594929 0.593511 -0.603294
F18   F     F_    0.963169 0.398603 0.539653 -0.626114
F19   F     F_    0.500771 0.090247 0.578847 -0.591247
F20   F     F_    0.597880 0.003181 0.639397 -0.617176
F21   F     F_    0.130542 0.535417 0.716882 -0.607094
F22   F     F_    0.103604 0.432567 0.673475 -0.615420
O25   O     O_3   0.255526 0.994720 0.402965 -0.617093
H71   H     H_    0.200536 0.972688 0.345520 0.364518
O26   O     O_3   0.333961 0.915009 0.448991 -0.641172
H72   H     H_    0.385162 0.894719 0.454877 0.377318
O27   O     O_3   0.849799 0.560824 0.442972 -0.594121
H73   H     H_    0.789484 0.565091 0.368262 0.383524
O28   O     O_3   0.821436 0.471050 0.404107 -0.623806
H74   H     H_    0.839043 0.438590 0.381515 0.370965
O29   O     O_3   0.263781 0.006112 0.234810 -0.707730
H75   H     H_    0.258921 0.040446 0.265117 0.369772
O30   O     O_3   0.331629 0.922863 0.276705 -0.739508
H76   H     H_    0.266543 0.909703 0.242470 0.364293
O31   O     O_3   0.915662 0.571798 0.331853 -0.672432
H77   H     H_    0.949892 0.597062 0.395202 0.376310
O32   O     O_3   0.875027 0.484495 0.276468 -0.763166
H78   H     H_    0.810373 0.499769 0.227864 0.365953
F23   F     F_    0.229458 0.901699 0.662220 -0.636254
F24   F     F_    0.223663 0.095031 0.653606 -0.647311
F25   F     F_    0.725152 0.404088 0.655563 -0.635506
F26   F     F_    0.726815 0.595455 0.655095 -0.645119
O33   O     O_3   0.399243 0.093844 0.649937 -0.580035
H79   H     H_    0.396784 0.112290 0.706547 0.325955
O34   O     O_3   0.411183 0.904298 0.652365 -0.619852
H80   H     H_    0.397943 0.887514 0.701310 0.330447
O35   O     O_3   0.912863 0.593426 0.648663 -0.579943
H81   H     H_    0.905472 0.613487 0.700151 0.333438
O36   O     O_3   0.903031 0.407458 0.647395 -0.597864
H82   H     H_    0.893261 0.389707 0.698650 0.332803
F27   F     F_    0.802697 0.904700 0.264387 -0.643272
F28   F     F_    0.798305 0.097920 0.272537 -0.683050
F29   F     F_    0.297932 0.402219 0.268981 -0.658015
F30   F     F_    0.306620 0.593335 0.296298 -0.667235
O37   O     O_3   0.666529 0.174541 0.187499 -0.629688
H83   H     H_    0.664527 0.145319 0.230828 0.331033
O38   O     O_3   0.676846 0.827465 0.194021 -0.640167
H84   H     H_    0.676923 0.857671 0.237292 0.335592
O39   O     O_3   0.204957 0.672989 0.183124 -0.652071
H85   H     H_    0.176906 0.659083 0.219374 0.333539
O40   O     O_3   0.151429 0.325507 0.184675 -0.623323
H86   H     H_    0.152219 0.356397 0.227395 0.329372

loop_
_geom_bond_atom_site_label_1
_geom_bond_atom_site_label_2
_ccdc_geom_bond_type
C55   C59   S    
C15   C109  A    
C77   C101  A    
O34   H80   S    
C80   N12   A    
C42   C58   S    
N27   N32   A    
C75   F21   S    
O37   H83   S    
C47   O9    S    
N19   Ni3   S    
C46   C62   S    
N30   Ni1   S    
C1    N1    A    
C12   H44   S    
C92   O32   S    
C86   C88   S    
O26   H72   S    
C29   C33   S    
C24   O4    S    
C37   O19   S    
C62   C70   S    
C51   F5    S    
C17   C61   S    
N31   Ni4   S    
O12   H58   S    
C19   C63   S    
C54   O22   S    
C79   C102  A    
C36   C97   A    
C51   C57   S    
N22   Ni6   S    
O1    H47   S    
O19   H65   S    
C78   C101  A    
C10   H42   S    
C1    H1    S    
C73   C81   S    
C44   C46   S    
C75   F17   S    
C11   C20   A    
N2    N5    A    
C28   C32   S    
C68   F10   S    
C68   F14   S    
N21   Ni5   S    
N23   N24   A    
C21   C29   S    
C35   N5    A    
C6    N26   A    
C23   C31   S    
C65   F11   S    
O8    H54   S    
C24   C32   S    
O15   H61   S    
N4    N7    A    
C54   H14   S    
C90   C92   S    
O14   H60   S    
N25   Ni6   S    
C45   O13   S    
C52   C58   S    
N19   N20   A    
C14   C107  A    
C63   C71   S    
C7    C19   A    
C96   C104  A    
C53   C71   S    
C52   F6    S    
C22   O2    S    
C89   C101  S    
C36   O18   S    
C13   C106  A    
C50   H26   S    
N26   Ni5   S    
C86   O28   S    
C95   N15   A    
C14   C88   S    
N17   N18   A    
N25   N30   A    
C83   H31   S    
C2    H2    S    
C79   N11   A    
C110  F28   S    
N13   Ni2   S    
C26   H46   S    
C56   H16   S    
C105  O33   S    
C41   C57   S    
C61   C65   S    
N15   Ni4   S    
C70   H22   S    
C5    O37   S    
O18   H64   S    
C16   C111  A    
C48   O10   S    
C49   H25   S    
C27   C29   S    
N23   Ni7   S    
C93   C103  A    
C8    O40   S    
O21   H67   S    
O11   H57   S    
C82   C89   S    
C64   C68   S    
C24   C26   S    
O23   H69   S    
C84   H32   S    
C50   F4    S    
O17   H63   S    
C90   C102  S    
C52   H28   S    
C22   C25   S    
C10   N30   A    
C46   O14   S    
N28   Ni7   S    
C74   C87   S    
C89   C91   S    
C11   H43   S    
C94   N14   A    
C76   F18   S    
C9    H41   S    
O29   H75   S    
C107  N19   A    
C59   C100  S    
C84   C90   S    
C21   O1    S    
C108  O36   S    
C73   F15   S    
O5    H51   S    
C62   C66   S    
C86   O27   S    
C18   C62   S    
C37   N7    A    
C30   H6    S    
C8    N28   A    
O9    H55   S    
C55   O23   S    
C80   C102  A    
O35   H81   S    
C69   H19   S    
C13   C87   S    
C70   H20   S    
O33   H79   S    
C41   C47   S    
C31   C34   S    
N3    Ni3   S    
C42   C48   S    
C91   O30   S    
C43   C45   S    
N29   Ni2   S    
C55   C69   S    
C53   H13   S    
C55   H15   S    
C35   O17   S    
C76   F22   S    
C43   H11   S    
O10   H56   S    
C21   C25   S    
C33   F1    S    
C22   C30   S    
C7    N27   A    
N12   Ni7   S    
C66   F12   S    
N6    Ni6   S    
C77   N9    A    
C78   N10   A    
C49   C59   S    
N26   N29   A    
C50   C60   S    
C93   F23   S    
C51   C67   S    
C95   F25   S    
C22   C39   S    
C67   F9    S    
C3    C99   A    
C9    C18   A    
C7    O39   S    
C2    N2    A    
C105  N17   A    
O32   H78   S    
C106  N18   A    
N1    N6    A    
C37   C100  A    
C67   F13   S    
C51   H27   S    
O28   H74   S    
C82   H30   S    
C76   C84   S    
O22   H68   S    
O7    H53   S    
N20   Ni4   S    
C78   H38   S    
C112  F30   S    
C96   N16   A    
C47   C63   S    
C48   C64   S    
C5    C17   A    
C23   C40   S    
C111  N23   A    
C56   C70   S    
N11   N12   A    
C23   C26   S    
C85   O25   S    
C91   O29   S    
C73   C87   S    
N32   Ni3   S    
C48   O16   S    
N10   Ni5   S    
O30   H76   S    
C35   C98   A    
C81   C89   S    
C14   C108  A    
O25   H71   S    
C15   C110  A    
C74   C82   S    
C82   H34   S    
C84   H36   S    
O40   H86   S    
N1    Ni1   S    
N2    Ni2   S    
C13   C105  A    
C77   H37   S    
N9    N10   A    
C53   C57   S    
C34   F2    S    
O4    H50   S    
C44   H12   S    
C46   O12   S    
C56   C60   S    
C11   N31   A    
N7    Ni7   S    
C71   H17   S    
O6    H52   S    
N5    Ni5   S    
C108  N20   A    
C8    C20   A    
C31   H7    S    
C73   F19   S    
C74   F16   S    
C94   C103  A    
C111  F29   S    
C4    N4    A    
O36   H82   S    
C16   C112  A    
C38   N8    A    
C93   N13   A    
C4    H4    S    
C28   C31   S    
C38   C99   A    
C107  O35   S    
C39   C103  S    
C85   O26   S    
N28   N31   A    
C45   O11   S    
C3    H3    S    
N17   Ni1   S    
C75   C83   S    
C44   C60   S    
C57   C98   S    
C12   C19   A    
C45   C61   S    
C96   F26   S    
C72   H24   S    
C3    N3    A    
N21   N22   A    
N9    Ni6   S    
N16   Ni3   S    
O39   H85   S    
C36   N6    A    
C5    N25   A    
C32   C34   S    
C16   C28   S    
N13   N14   A    
C44   O8    S    
O2    H48   S    
N24   Ni8   S    
C60   C99   S    
N8    Ni8   S    
C85   C91   S    
C94   F24   S    
N15   N16   A    
C33   C39   S    
C49   C65   S    
C34   C40   S    
C71   H23   S    
N18   Ni2   S    
C10   C17   A    
C41   H9    S    
C49   F3    S    
C15   C27   S    
O38   H84   S    
N27   Ni8   S    
C76   C88   S    
N3    N8    A    
C52   C68   S    
C41   O5    S    
C81   H29   S    
C27   C30   S    
C65   F7    S    
C58   C97   S    
C32   H8    S    
C85   C87   S    
N14   Ni1   S    
C6    C18   A    
C63   C67   S    
C1    C97   A    
C112  N24   A    
O31   H77   S    
C29   H5    S    
C23   O3    S    
C20   C64   S    
C92   O31   S    
C40   C104  S    
C109  N21   A    
C21   C39   S    
C110  N22   A    
N4    Ni4   S    
O13   H59   S    
C53   O21   S    
C50   C66   S    
C83   H35   S    
C109  F27   S    
C81   H33   S    
C4    C100  A    
C25   H45   S    
O24   H70   S    
C43   O7    S    
C95   C104  A    
C42   H10   S    
C79   H39   S    
C54   C58   S    
C61   C69   S    
C80   H40   S    
C83   C90   S    
C69   H21   S    
C30   C33   S    
C9    N29   A    
O20   H66   S    
C72   H18   S    
C47   O15   S    
C43   C59   S    
C25   C27   S    
C12   N32   A    
C26   C28   S    
C86   C92   S    
C106  O34   S    
C74   F20   S    
C38   O20   S    
C24   C40   S    
C64   C72   S    
C6    O38   S    
C75   C88   S    
C54   C72   S    
C2    C98   A    
C56   O24   S    
O16   H62   S    
O3    H49   S    
C66   F8    S    
C42   O6    S    
N11   Ni8   S    
O27   H73   S    
