data_mof_unit_28.cif
_audit_creation_date              2012-12-10T19:12:17-0500
_audit_creation_method            fapswitch 2.2
_symmetry_space_group_name_H-M    P1
_symmetry_Int_Tables_number       1
_space_group_crystal_system       triclinic
_cell_length_a                    7.779983
_cell_length_b                    9.095503
_cell_length_c                    17.120686
_cell_angle_alpha                 89.631881
_cell_angle_beta                  94.107428
_cell_angle_gamma                 90.021726
_cell_volume                      1208.37198631

loop_
_atom_site_label
_atom_site_type_symbol
_atom_type_description
_atom_site_fract_x
_atom_site_fract_y
_atom_site_fract_z
_atom_type_partial_charge
C1    C     C_R   0.499948 0.219998 0.499936 0.837951
C2    C     C_R   0.500019 0.779995 0.499907 0.827992
C3    C     C_R   0.521766 0.498248 0.651514 0.843729
C4    C     C_R   0.478377 0.503307 0.348808 0.843450
C5    C     C_R   0.535049 0.494853 0.737777 -0.205543
C6    C     C_R   0.464481 0.505642 0.263117 -0.181796
C7    C     C_R   0.383348 0.489378 0.777257 -0.310645
C8    C     C_R   0.594598 0.440266 0.222973 -0.306181
C9    C     C_R   0.390386 0.485292 0.858410 -0.231505
C10   C     C_R   0.583429 0.438616 0.141768 -0.266838
C11   C     C_R   0.550481 0.482274 0.902335 0.221240
C12   C     C_R   0.441140 0.503039 0.098835 0.242778
C13   C     C_R   0.703172 0.481363 0.863444 0.384273
C14   C     C_R   0.307679 0.565246 0.138658 0.372201
C15   C     C_R   0.696484 0.495798 0.781478 0.368554
C16   C     C_R   0.322437 0.572385 0.220939 0.354534
C17   C     C_1   0.499929 0.065352 0.499863 -0.178103
C18   C     C_1   0.499989 0.934624 0.499849 -0.185953
Cu1   Cu    Cu3+1 0.669080 0.500010 0.500000 1.017213
Cu2   Cu    Cu3+1 0.330920 0.499990 0.500000 1.015334
H1    H     H_    0.704539 0.388719 0.254529 0.194713
H2    H     H_    0.258098 0.488321 0.745388 0.220974
H3    H     H_    0.685779 0.385808 0.112744 0.178501
H4    H     H_    0.270141 0.482986 0.886496 0.216414
N1    N     N_1   0.076820 0.499970 0.500010 -0.040119
N2    N     N_1   0.923180 0.500030 0.499990 -0.038884
N3    N     N_2   0.563828 0.478349 0.985375 -0.221849
N4    N     N_2   0.426795 0.506495 0.015776 -0.196901
O1    O     O_R   0.642760 0.288400 0.500000 -0.579044
O2    O     O_R   0.357240 0.711600 0.500000 -0.578917
O3    O     O_R   0.357190 0.288380 0.500000 -0.581167
O4    O     O_R   0.642810 0.711620 0.500000 -0.582423
O5    O     O_R   0.658410 0.498660 0.613920 -0.537583
O6    O     O_R   0.341590 0.501340 0.386080 -0.541636
O7    O     O_R   0.372840 0.498650 0.613930 -0.596120
O8    O     O_R   0.627160 0.501350 0.386070 -0.590279
O9    O     O_3   0.860703 0.475945 0.906147 -0.573201
C19   C     C_3   0.915663 0.328216 0.910423 -0.310605
H5    H     H_    0.931903 0.282510 0.851238 0.189473
H6    H     H_    0.825065 0.258955 0.942184 0.157544
H7    H     H_    0.043193 0.323108 0.943646 0.182775
O10   O     O_3   0.170126 0.631070 0.096310 -0.561784
C20   C     C_3   0.025724 0.537583 0.097600 -0.212824
H8    H     H_    0.977896 0.530583 0.157137 0.184697
H9    H     H_    0.054373 0.425538 0.076203 0.135203
H10   H     H_    0.920199 0.584252 0.058039 0.227270
O11   O     O_3   0.848609 0.502636 0.744475 -0.557675
C21   C     C_3   0.904079 0.650307 0.743873 -0.240927
H11   H     H_    0.945032 0.688020 0.804023 0.184446
H12   H     H_    0.802799 0.724652 0.716469 0.138399
H13   H     H_    0.017227 0.658445 0.708200 0.177910
O12   O     O_3   0.195738 0.642041 0.259709 -0.559774
C22   C     C_3   0.241318 0.791300 0.268937 -0.236636
H14   H     H_    0.247856 0.847400 0.211251 0.174804
H15   H     H_    0.365626 0.803912 0.304724 0.127731
H16   H     H_    0.140425 0.847127 0.300493 0.184813

loop_
_geom_bond_atom_site_label_1
_geom_bond_atom_site_label_2
_ccdc_geom_bond_type
C20   H8    S    
C4    O8    A    
C9    H4    S    
O9    C19   S    
C3    O7    A    
C10   H3    S    
C2    C18   S    
C7    H2    S    
C11   C13   A    
C22   H15   S    
C13   O9    S    
O11   C21   S    
C11   N3    S    
C14   O10   S    
Cu2   O6    S    
C21   H12   S    
C17   C18   T    
C5    C7    A    
Cu2   O2    S    
C22   H14   S    
C19   H6    S    
C20   H9    S    
C9    C11   A    
C10   C12   A    
C12   N4    S    
Cu1   O4    S    
C1    O1    A    
C21   H11   S    
C12   C14   A    
C8    H1    S    
C4    O6    A    
Cu1   O8    S    
C13   C15   A    
Cu1   O5    S    
C19   H5    S    
C21   H13   S    
C20   H10   S    
C14   C16   A    
C5    C15   A    
C4    C6    S    
O10   C20   S    
C3    O5    A    
C6    C16   A    
Cu1   O1    S    
C16   O12   S    
C1    O3    A    
C2    O2    A    
O12   C22   S    
C19   H7    S    
C2    O4    A    
Cu2   N1    S    
C22   H16   S    
N3    N4    D    
C7    C9    A    
Cu1   N2    S    
C15   O11   S    
C6    C8    A    
N1    N2    T    
Cu2   O7    S    
C1    C17   S    
C8    C10   A    
Cu1   Cu2   S    
C3    C5    S    
Cu2   O3    S    
