data_mof_unit_3647.cif
_audit_creation_date              2012-12-10T20:43:28-0500
_audit_creation_method            fapswitch 2.2
_symmetry_space_group_name_H-M    P1
_symmetry_Int_Tables_number       1
_space_group_crystal_system       triclinic
_cell_length_a                    18.839277
_cell_length_b                    18.776894
_cell_length_c                    18.736781
_cell_angle_alpha                 109.61668
_cell_angle_beta                  109.563709
_cell_angle_gamma                 109.76902
_cell_volume                      5068.21330296

loop_
_atom_site_label
_atom_site_type_symbol
_atom_type_description
_atom_site_fract_x
_atom_site_fract_y
_atom_site_fract_z
_atom_type_partial_charge
C1    C     C_R   0.380037 0.499575 0.378739 0.900122
C2    C     C_R   0.307421 0.435710 0.026857 -0.125785
C3    C     C_R   0.120476 0.119854 0.500062 0.874251
C4    C     C_R   0.002823 0.380068 0.882565 0.867259
C5    C     C_R   0.119708 0.499692 0.119865 0.889205
C6    C     C_R   0.999610 0.620796 0.119512 0.867127
C7    C     C_R   0.879934 0.498474 0.878146 0.861901
C8    C     C_R   0.005890 0.727402 0.519854 -0.138899
C9    C     C_R   0.024363 0.749081 0.461166 -0.092330
C10   C     C_R   0.959203 0.705120 0.372523 0.080809
C11   C     C_R   0.877576 0.634511 0.342384 -0.202176
C12   C     C_R   0.859173 0.613255 0.401295 -0.121913
C13   C     C_R   0.340885 0.521539 0.042661 -0.101978
C14   C     C_R   0.803994 0.718006 0.776777 -0.124816
C15   C     C_R   0.923046 0.660198 0.490141 -0.106412
C16   C     C_R   0.976173 0.666876 0.242438 -0.244543
C17   C     C_R   0.999698 0.687837 0.185685 -0.086947
C18   C     C_R   0.024507 0.772063 0.195397 0.021952
C19   C     C_R   0.016700 0.830077 0.256713 -0.268812
C20   C     C_R   0.995149 0.809514 0.314145 -0.083696
C21   C     C_R   0.977633 0.728549 0.309854 -0.015175
C22   C     C_R   0.157611 0.873506 0.205310 -0.148729
C23   C     C_R   0.203745 0.905384 0.167820 0.121110
C24   C     C_R   0.077871 0.250731 0.760526 -0.248386
C25   C     C_R   0.161875 0.869786 0.076729 -0.212429
C26   C     C_3   0.257834 0.336257 0.198524 -0.373669
C27   C     C_3   0.242399 0.286360 0.246750 -0.811612
C28   C     C_3   0.055602 0.250833 0.332244 -0.412241
C29   C     C_3   0.078971 0.187527 0.283546 -0.847467
C30   C     C_3   0.030579 0.763943 0.925096 -0.412629
C31   C     C_3   0.023100 0.830539 0.898172 -0.899858
C32   C     C_3   0.901011 0.909616 0.678243 -0.383048
C33   C     C_3   0.873957 0.964799 0.732350 -0.928840
C34   C     C_R   0.823874 0.829509 0.589134 0.100108
C35   C     C_R   0.997145 0.183313 0.686429 -0.089236
C36   C     C_R   0.918542 0.181738 0.675538 0.036556
C37   C     C_R   0.923301 0.246603 0.743389 -0.210100
C38   C     C_R   0.004157 0.314610 0.817014 -0.079813
C39   C     C_R   0.083195 0.318766 0.825451 -0.015093
C40   C     C_R   0.776417 0.136247 0.547484 0.137907
C41   C     C_R   0.765723 0.756383 0.816698 -0.090057
C42   C     C_R   0.693751 0.070227 0.473700 -0.197214
C43   C     C_R   0.665174 0.982072 0.447652 -0.137918
C44   C     C_R   0.718869 0.959182 0.494877 -0.108961
C45   C     C_R   0.800904 0.024251 0.568593 -0.177061
C46   C     C_R   0.813010 0.819896 0.506374 -0.128060
C47   C     C_R   0.830916 0.113321 0.595971 0.123819
C48   C     C_R   0.736612 0.748971 0.425932 -0.026849
C49   C     C_R   0.678030 0.682691 0.427691 -0.278818
C50   C     C_R   0.690087 0.688430 0.506744 -0.126131
C51   C     C_R   0.760599 0.761855 0.588046 -0.029508
C52   C     C_R   0.073378 0.803622 0.023136 0.222968
C53   C     C_R   0.632675 0.734713 0.289323 -0.174168
C54   C     C_R   0.607848 0.725266 0.206013 -0.146061
C55   C     C_R   0.662034 0.722183 0.170633 -0.124431
C56   C     C_R   0.622261 0.620404 0.502799 0.895840
C57   C     C_R   0.741321 0.729029 0.218749 -0.130990
C58   C     C_R   0.766253 0.738651 0.302083 -0.083715
C59   C     C_R   0.712480 0.741763 0.338401 0.147996
C60   C     C_R   0.439186 0.801611 0.526361 -0.152634
C61   C     C_R   0.371601 0.719662 0.453302 -0.150706
C62   C     C_R   0.390210 0.665341 0.399261 0.154288
C63   C     C_R   0.026788 0.772923 0.061599 -0.143374
C64   C     C_R   0.477151 0.694824 0.418595 -0.120151
C65   C     C_R   0.544530 0.776543 0.492068 -0.125772
C66   C     C_R   0.525630 0.829903 0.545883 -0.120346
C67   C     C_R   0.254271 0.576515 0.256686 -0.261499
C68   C     C_R   0.618279 0.498494 0.620411 0.888420
C69   C     C_R   0.184451 0.496858 0.183733 -0.092584
C70   C     C_R   0.177526 0.416306 0.172180 -0.039774
C71   C     C_R   0.249151 0.417865 0.229370 0.111213
C72   C     C_R   0.315377 0.498600 0.309097 -0.121231
C73   C     C_R   0.318330 0.578357 0.321818 -0.034877
C74   C     C_R   0.069384 0.806523 0.152724 0.055858
C75   C     C_R   0.046761 0.278739 0.126931 -0.123160
C76   C     C_R   0.971404 0.196846 0.062801 0.137586
C77   C     C_R   0.945462 0.165909 0.973847 -0.172015
C78   C     C_R   0.993894 0.217256 0.949563 -0.138883
C79   C     C_R   0.068110 0.299509 0.013827 -0.137263
C80   C     C_R   0.374922 0.379946 0.494935 0.883211
C81   C     C_R   0.095761 0.330597 0.102895 0.092364
C82   C     C_R   0.242938 0.528172 0.509537 -0.128828
C83   C     C_R   0.258652 0.468358 0.530378 -0.152404
C84   C     C_R   0.206591 0.377682 0.469505 0.051450
C85   C     C_R   0.291499 0.541230 0.986375 -0.148445
C86   C     C_R   0.129165 0.346539 0.390803 0.180563
C87   C     C_R   0.114581 0.408470 0.371594 -0.195579
C88   C     C_R   0.172263 0.498296 0.429336 -0.142194
C89   C     C_R   0.175759 0.255417 0.499451 -0.225569
C90   C     C_R   0.187540 0.186644 0.501535 -0.084115
C91   C     C_R   0.262108 0.183169 0.504873 -0.009240
C92   C     C_R   0.727403 0.798403 0.783321 -0.153993
C93   C     C_R   0.321643 0.247656 0.501368 -0.267503
C94   C     C_R   0.307488 0.313927 0.494290 -0.092703
C95   C     C_R   0.232348 0.317287 0.490865 0.016725
C96   C     C_R   0.207820 0.475513 0.915261 -0.085342
C97   C     C_R   0.357600 0.138257 0.584852 -0.154774
C98   C     C_R   0.375065 0.073773 0.592900 -0.138817
C99   C     C_R   0.315880 0.985275 0.529161 -0.125119
C100  C     C_R   0.239431 0.961200 0.457014 -0.127064
C101  C     C_R   0.222097 0.025601 0.448423 -0.094653
C102  C     C_R   0.280477 0.114499 0.512827 0.137482
C103  C     C_R   0.552228 0.565924 0.861402 -0.144955
C104  C     C_R   0.727462 0.802076 0.710078 -0.086261
C105  C     C_R   0.620880 0.566692 0.847554 -0.147769
C106  C     C_R   0.604461 0.496797 0.773033 0.136204
C107  C     C_R   0.171843 0.389781 0.901163 0.095566
C108  C     C_R   0.518727 0.425668 0.713270 -0.128335
C109  C     C_R   0.450325 0.424884 0.727730 -0.126407
C110  C     C_R   0.466997 0.495091 0.801491 -0.119722
C111  C     C_R   0.743022 0.496146 0.820771 -0.256020
C112  C     C_R   0.814014 0.498088 0.811219 -0.088896
C113  C     C_R   0.821701 0.502714 0.740272 -0.005961
C114  C     C_R   0.754547 0.500420 0.677477 -0.253705
C115  C     C_R   0.683492 0.497852 0.686780 -0.075085
C116  C     C_R   0.767772 0.765352 0.670839 0.169253
C117  C     C_R   0.677701 0.497350 0.759570 -0.008362
C118  C     C_R   0.224042 0.369792 0.955535 -0.204010
C119  C     C_R   0.944235 0.581565 0.721474 -0.184793
C120  C     C_R   0.011217 0.586623 0.703238 -0.170399
C121  C     C_R   0.031032 0.519767 0.689856 -0.187332
C122  C     C_R   0.984431 0.447863 0.695700 0.160772
C123  C     C_R   0.918793 0.444071 0.716569 -0.086317
C124  C     C_R   0.897684 0.510545 0.728717 0.090960
C125  C     C_R   0.995936 0.876194 0.380039 0.870918
C126  C     C_R   0.879782 0.882857 0.503009 0.854813
C127  C     C_R   0.998433 0.118455 0.620156 0.857490
C128  C     C_R   0.805338 0.722522 0.704200 -0.203956
H1    H     H_    0.764883 0.752640 0.872821 0.112735
H2    H     H_    0.257480 0.637558 0.263934 0.155614
H3    H     H_    0.696532 0.826997 0.813374 0.112571
H4    H     H_    0.067324 0.302230 0.195441 0.147738
H5    H     H_    0.887688 0.102473 0.923720 0.128130
H6    H     H_    0.973540 0.193525 0.880907 0.145172
H7    H     H_    0.103647 0.339834 0.994791 0.121772
H8    H     H_    0.160031 0.544843 0.413380 0.134735
H9    H     H_    0.285372 0.597893 0.556026 0.126405
H10   H     H_    0.311778 0.493166 0.594701 0.155389
H11   H     H_    0.056741 0.387512 0.312749 0.130435
H12   H     H_    0.642741 0.714811 0.106124 0.116839
H13   H     H_    0.694826 0.832097 0.682904 0.116307
H14   H     H_    0.120860 0.259593 0.502747 0.140612
H15   H     H_    0.379716 0.246350 0.504416 0.157251
H16   H     H_    0.403719 0.206576 0.635041 0.124099
H17   H     H_    0.434374 0.092404 0.648692 0.126979
H18   H     H_    0.329322 0.935391 0.535590 0.116934
H19   H     H_    0.193739 0.892626 0.407751 0.131935
H20   H     H_    0.163314 0.006634 0.392028 0.094909
H21   H     H_    0.413943 0.494386 0.812451 0.123845
H22   H     H_    0.565158 0.620088 0.918750 0.118472
H23   H     H_    0.783728 0.727353 0.191752 0.136364
H24   H     H_    0.686720 0.621784 0.894621 0.112645
H25   H     H_    0.833855 0.691203 0.672869 0.110203
H26   H     H_    0.505255 0.370735 0.656233 0.101320
H27   H     H_    0.384415 0.369761 0.682118 0.143312
H28   H     H_    0.739071 0.494753 0.876805 0.156887
H29   H     H_    0.758613 0.502792 0.621795 0.154949
H30   H     H_    0.928031 0.632706 0.729198 0.129713
H31   H     H_    0.046709 0.641656 0.697895 0.134710
H32   H     H_    0.081830 0.523200 0.673882 0.126147
H33   H     H_    0.882447 0.388294 0.720497 0.118422
H34   H     H_    0.828419 0.746190 0.339475 0.119003
H35   H     H_    0.908715 0.643803 0.535733 0.120804
H36   H     H_    0.831682 0.683842 0.801583 0.145351
H37   H     H_    0.055948 0.762482 0.588331 0.114277
H38   H     H_    0.089583 0.799691 0.484800 0.135772
H39   H     H_    0.827322 0.597813 0.273741 0.138265
H40   H     H_    0.795328 0.560499 0.378074 0.136491
H41   H     H_    0.960637 0.603421 0.236950 0.165775
H42   H     H_    0.032403 0.893857 0.263035 0.145091
H43   H     H_    0.191122 0.899991 0.275554 0.146244
H44   H     H_    0.198593 0.893267 0.047753 0.130888
H45   H     H_    0.577980 0.893140 0.602684 0.119995
H46   H     H_    0.958625 0.721415 0.020843 0.111209
H47   H     H_    0.405449 0.572506 0.097883 0.119900
H48   H     H_    0.318205 0.607398 0.997632 0.113271
H49   H     H_    0.171472 0.491735 0.871385 0.130598
H50   H     H_    0.199188 0.303413 0.943835 0.133192
H51   H     H_    0.346126 0.420179 0.069763 0.124838
H52   H     H_    0.137629 0.251994 0.766274 0.162014
H53   H     H_    0.863639 0.245270 0.738051 0.148476
H54   H     H_    0.651884 0.087423 0.436246 0.132388
H55   H     H_    0.620348 0.627006 0.366552 0.155867
H56   H     H_    0.424557 0.843063 0.567988 0.118855
H57   H     H_    0.601626 0.931439 0.390504 0.135346
H58   H     H_    0.697173 0.890891 0.473909 0.134119
H59   H     H_    0.842003 0.005304 0.603570 0.133164
H60   H     H_    0.589880 0.736876 0.315785 0.119101
H61   H     H_    0.546581 0.720320 0.168879 0.120077
H62   H     H_    0.229758 0.319498 0.298473 0.257475
H63   H     H_    0.186209 0.218660 0.198924 0.231815
H64   H     H_    0.300069 0.280427 0.277458 0.270224
H65   H     H_    0.212225 0.289687 0.126987 0.192100
H66   H     H_    0.322501 0.354533 0.203414 0.208203
H67   H     H_    0.304938 0.698186 0.439222 0.116387
H68   H     H_    0.918870 0.085150 0.064989 0.181537
H69   H     H_    0.857872 0.133617 0.057663 0.177749
H70   H     H_    0.030670 0.119326 0.260611 0.253607
H71   H     H_    0.144890 0.200648 0.324740 0.271314
H72   H     H_    0.074876 0.191089 0.224835 0.259617
H73   H     H_    0.031566 0.228307 0.371399 0.205850
H74   H     H_    0.997798 0.244306 0.281819 0.207720
H75   H     H_    0.067932 0.402760 0.717868 0.174364
H76   H     H_    0.988019 0.349764 0.612468 0.182908
H77   H     H_    0.300368 0.026241 0.213176 0.181506
H78   H     H_    0.492613 0.654307 0.377101 0.092909
H79   H     H_    0.330238 0.949638 0.201859 0.176206
H80   H     H_    0.983294 0.854122 0.919985 0.272794
H81   H     H_    0.088713 0.887525 0.927291 0.255362
H82   H     H_    0.991311 0.799319 0.825661 0.248099
H83   H     H_    0.069853 0.740411 0.902105 0.211057
H84   H     H_    0.964472 0.706139 0.892096 0.205917
H85   H     H_    0.807553 0.951222 0.691055 0.254862
H86   H     H_    0.876184 0.952200 0.786605 0.268249
H87   H     H_    0.920521 0.035895 0.763244 0.245690
H88   H     H_    0.936542 0.886771 0.716938 0.205898
H89   H     H_    0.611461 0.798361 0.507638 0.127188
H90   H     H_    0.950126 0.956250 0.672821 0.231629
H91   H     H_    0.760092 0.240909 0.582738 0.171741
H92   H     H_    0.805382 0.232797 0.518463 0.184688
N1    N     N_3   0.921631 0.145573 0.088566 -0.488155
N2    N     N_3   0.001304 0.376995 0.677312 -0.441107
N3    N     N_3   0.293706 0.973162 0.222823 -0.464615
N4    N     N_3   0.805511 0.226103 0.571686 -0.467217
O1    O     O_R   0.408360 0.551710 0.460090 -0.608772
O2    O     O_R   0.948290 0.356630 0.908390 -0.621221
O3    O     O_R   0.143340 0.551690 0.091580 -0.618283
O4    O     O_R   0.408400 0.448280 0.356670 -0.631934
O5    O     O_R   0.039900 0.448270 0.091610 -0.617417
O6    O     O_R   0.051710 0.643320 0.091560 -0.616167
O7    O     O_R   0.948270 0.539900 0.091590 -0.629340
O8    O     O_R   0.960100 0.551680 0.908340 -0.625096
O9    O     O_R   0.856660 0.448270 0.908370 -0.621517
O10   O     O_R   0.591600 0.643340 0.551710 -0.613280
O11   O     O_R   0.591630 0.539900 0.448290 -0.630462
O12   O     O_R   0.948280 0.908380 0.356650 -0.620914
O13   O     O_R   0.591600 0.551720 0.643330 -0.599602
O14   O     O_R   0.591640 0.448290 0.539910 -0.629060
O15   O     O_R   0.408370 0.460100 0.551710 -0.626037
O16   O     O_R   0.408400 0.356660 0.448290 -0.633359
O17   O     O_R   0.051730 0.908360 0.460060 -0.624454
O18   O     O_R   0.960110 0.908350 0.551690 -0.634889
O19   O     O_R   0.856660 0.908370 0.448270 -0.608375
O20   O     O_R   0.051720 0.091580 0.643310 -0.636707
O21   O     O_R   0.948270 0.091600 0.539890 -0.610752
O22   O     O_R   0.143340 0.091590 0.551680 -0.610909
O23   O     O_R   0.039890 0.091610 0.448270 -0.625071
O24   O     O_R   0.051730 0.460050 0.908360 -0.623894
Zn1   Zn    Zn3+2 0.499980 0.569060 0.569060 0.963005
Zn2   Zn    Zn3+2 0.500020 0.430940 0.430940 0.917735
Zn3   Zn    Zn3+2 0.069070 0.999960 0.569030 0.934531
Zn4   Zn    Zn3+2 0.930930 0.999990 0.430930 0.961345
Zn5   Zn    Zn3+2 0.069070 0.569030 0.999960 0.946451
Zn6   Zn    Zn3+2 0.930930 0.430930 0.000000 0.948356

loop_
_geom_bond_atom_site_label_1
_geom_bond_atom_site_label_2
_ccdc_geom_bond_type
C60   H56   S    
C40   C47   A    
C65   H89   S    
C87   C88   A    
C7    O9    A    
C101  H20   S    
H79   N3    S    
C93   C94   A    
O20   Zn3   S    
O15   Zn1   S    
C111  C112  A    
O17   Zn3   S    
C19   H42   S    
C43   C44   A    
C110  H21   S    
O13   Zn1   S    
C24   C39   A    
C97   C98   A    
C53   C59   A    
C123  C124  A    
O3    Zn5   S    
O23   Zn4   S    
C42   H54   S    
C39   C107  S    
C31   H82   S    
C34   C51   A    
C16   C21   A    
C27   H63   S    
C40   N4    S    
C103  C110  A    
C28   H73   S    
C80   O15   A    
C15   H35   S    
C28   C29   S    
C54   H61   S    
C53   H60   S    
C84   C86   A    
C113  C114  A    
C82   H9    S    
H69   N1    S    
C68   O13   A    
C30   H84   S    
C38   C39   A    
C123  H33   S    
C85   C96   A    
C43   H57   S    
C100  H19   S    
C89   H14   S    
C85   H48   S    
C14   C128  A    
C108  C109  A    
C36   C47   S    
C17   C18   A    
C18   C19   A    
C70   C81   S    
C2    C13   A    
O7    Zn6   S    
C4    O24   A    
C62   C64   A    
C103  H22   S    
H91   N4    S    
C104  C116  A    
C16   H41   S    
C35   C36   A    
C42   C43   A    
C16   C17   A    
C29   H71   S    
C121  H32   S    
C24   H52   S    
C120  H31   S    
C5    C69   S    
C66   H45   S    
C125  O17   A    
C70   C71   A    
C34   C46   A    
C27   H62   S    
C4    O2    A    
C96   H49   S    
O24   Zn5   S    
C9    C10   A    
C61   H67   S    
C107  C118  A    
H68   N1    S    
C93   H15   S    
C77   C78   A    
C7    O8    A    
O6    Zn5   S    
C40   C42   A    
C60   C66   A    
C18   C74   S    
C49   H55   S    
C6    O7    A    
O14   Zn2   S    
C11   H39   S    
C26   C71   S    
C56   O10   A    
C61   C62   A    
C77   H5    S    
C63   H46   S    
O12   Zn4   S    
O10   Zn1   S    
C56   O11   A    
C112  C113  A    
C53   C54   A    
C46   C126  S    
O5    Zn6   S    
O4    Zn2   S    
O22   Zn3   S    
C45   C47   A    
C10   C21   S    
C33   H87   S    
C46   C48   A    
C24   C35   A    
C127  O20   A    
C1    C72   S    
C101  C102  A    
C92   H3    S    
C76   C77   A    
C88   H8    S    
C103  C105  A    
C8    H37   S    
C30   H83   S    
C79   C81   A    
C33   H85   S    
C78   C79   A    
C8    C9    A    
O9    Zn6   S    
C115  C117  A    
C58   C59   A    
C119  C124  A    
C64   H78   S    
C82   C83   A    
C50   C56   S    
C55   H12   S    
C5    O3    A    
H75   N2    S    
C60   C61   A    
C67   C69   A    
C84   C95   S    
C32   C34   S    
C27   H64   S    
C89   C95   A    
C75   C76   A    
C2    C118  A    
C97   H16   S    
C126  O18   A    
C37   C38   A    
C13   H47   S    
C91   C93   A    
C99   C100  A    
C31   H81   S    
C12   C15   A    
C119  C120  A    
C29   H72   S    
C37   H53   S    
C41   C92   A    
C50   C51   A    
C26   C27   S    
C108  H26   S    
C62   C73   S    
C35   C127  S    
C78   H6    S    
C121  C122  A    
C128  H25   S    
C14   C41   A    
C127  O21   A    
C67   C73   A    
C118  H50   S    
C1    O4    A    
C48   C49   A    
C3    O22   A    
O21   Zn4   S    
C23   N3    S    
C29   H70   S    
C8    C15   A    
C99   H18   S    
C6    O6    A    
C106  C117  S    
C122  N2    S    
C49   C50   A    
C5    O5    A    
C83   C84   A    
C67   H2    S    
C2    H51   S    
O18   Zn3   S    
C28   C86   S    
C80   C94   S    
C58   H34   S    
H92   N4    S    
C75   H4    S    
C25   H44   S    
C48   C59   S    
C9    H38   S    
C7    C112  S    
C111  H28   S    
C1    O1    A    
C3    O23   A    
C6    C17   S    
C30   C52   S    
C54   C55   A    
C36   C37   A    
C33   H86   S    
O1    Zn1   S    
O19   Zn4   S    
C44   C45   A    
H76   N2    S    
C86   C87   A    
C96   C107  A    
C22   C23   A    
C45   H59   S    
O8    Zn5   S    
C22   H43   S    
C87   H11   S    
C72   C73   A    
C52   C63   A    
C12   H40   S    
C11   C12   A    
C26   H66   S    
C114  C115  A    
C98   H17   S    
C75   C81   A    
C76   N1    S    
C79   H7    S    
C105  C106  A    
C51   C116  S    
C111  C117  A    
C104  H13   S    
C28   H74   S    
C64   C65   A    
C80   O16   A    
C19   C20   A    
C55   C57   A    
C89   C90   A    
C3    C90   S    
C20   C125  S    
C125  O12   A    
C68   O14   A    
C109  C110  A    
C32   C33   S    
C41   H1    S    
C57   C58   A    
C30   C31   S    
C113  C124  S    
C106  C108  A    
C119  H30   S    
C82   C88   A    
C57   H23   S    
C100  C101  A    
H77   N3    S    
C65   C66   A    
C14   H36   S    
C94   C95   A    
C109  H27   S    
C69   C70   A    
C25   C52   A    
C10   C11   A    
C92   C104  A    
C68   C115  S    
C32   H88   S    
O2    Zn6   S    
C23   C25   A    
C71   C72   A    
C20   C21   A    
C63   C74   A    
C22   C74   A    
C98   C99   A    
C116  C128  A    
C13   C85   A    
C126  O19   A    
O16   Zn2   S    
C120  C121  A    
C91   C102  S    
O11   Zn2   S    
C122  C123  A    
C4    C38   S    
C26   H65   S    
C31   H80   S    
C97   C102  A    
C83   H10   S    
C32   H90   S    
C90   C91   A    
C105  H24   S    
C44   H58   S    
C114  H29   S    
