data_mof_unit_1404.cif
_audit_creation_date              2012-12-10T21:07:42-0500
_audit_creation_method            fapswitch 2.2
_symmetry_space_group_name_H-M    P1
_symmetry_Int_Tables_number       1
_space_group_crystal_system       triclinic
_cell_length_a                    8.659865
_cell_length_b                    17.560569
_cell_length_c                    16.82352
_cell_angle_alpha                 90.655285
_cell_angle_beta                  98.815017
_cell_angle_gamma                 91.268679
_cell_volume                      2527.26540752

loop_
_atom_site_label
_atom_site_type_symbol
_atom_type_description
_atom_site_fract_x
_atom_site_fract_y
_atom_site_fract_z
_atom_type_partial_charge
C1    C     C_R   0.498651 0.353189 0.499481 0.884547
C2    C     C_R   0.498342 0.646764 0.500276 0.889649
C3    C     C_1   0.436068 0.965445 0.495109 -0.081071
C4    C     C_1   0.436965 0.032965 0.492829 -0.079760
C5    C     C_R   0.416661 0.442327 0.824866 -0.374812
C6    C     C_R   0.583646 0.558024 0.175353 -0.375509
C7    C     C_R   0.418395 0.443759 0.740219 0.611270
C8    C     C_R   0.581557 0.556407 0.259970 0.609647
C9    C     C_R   0.575839 0.556923 0.756955 0.043619
C10   C     C_R   0.424088 0.443241 0.242793 0.044539
C11   C     C_R   0.572234 0.557308 0.840435 -0.324950
C12   C     C_R   0.428079 0.443074 0.159348 -0.326695
C13   C     C_R   0.495094 0.499369 0.875660 0.121860
C14   C     C_R   0.505458 0.501068 0.124364 0.122256
C15   C     C_1   0.498114 0.499619 0.963430 -0.000170
C16   C     C_1   0.502660 0.500975 0.036612 -0.000261
C17   C     C_R   0.201237 0.501176 0.479306 0.904431
C18   C     C_R   0.798764 0.498831 0.520695 0.905826
C19   C     C_2   0.038065 0.511971 0.470076 0.192029
C20   C     C_2   0.961943 0.488052 0.529929 0.191674
C21   C     C_R   0.442046 0.846483 0.570772 0.011096
C22   C     C_R   0.472731 0.151513 0.421128 0.010467
C23   C     C_R   0.462266 0.767818 0.570889 -0.158268
C24   C     C_R   0.492634 0.230645 0.425140 -0.153296
C25   C     C_R   0.484434 0.729092 0.500241 -0.082259
C26   C     C_R   0.486395 0.270479 0.497288 -0.079085
C27   C     C_R   0.485881 0.768942 0.428769 -0.176710
C28   C     C_R   0.461415 0.231148 0.566273 -0.172339
C29   C     C_R   0.465874 0.846839 0.427884 -0.155925
C30   C     C_R   0.441738 0.152755 0.563106 -0.157510
C31   C     C_R   0.444210 0.885307 0.498161 0.067771
C32   C     C_R   0.447008 0.113268 0.491227 0.068320
H1    H     H_    0.459426 0.736670 0.625857 0.185123
H2    H     H_    0.513082 0.261227 0.372068 0.183369
H3    H     H_    0.502254 0.740050 0.373556 0.185272
H4    H     H_    0.456089 0.260824 0.622515 0.189592
H5    H     H_    0.468986 0.877349 0.372451 0.144949
H6    H     H_    0.423688 0.122723 0.617018 0.145234
H7    H     H_    0.353755 0.397226 0.850668 0.148008
H8    H     H_    0.646558 0.603230 0.149721 0.148142
H9    H     H_    0.632481 0.602548 0.878299 0.156387
H10   H     H_    0.367810 0.397975 0.121280 0.156540
N1    N     N_R   0.500040 0.500030 0.707230 -0.114720
N2    N     N_R   0.499960 0.499970 0.292770 -0.114103
O1    O     O_R   0.500000 0.389130 0.566570 -0.579525
O2    O     O_R   0.500000 0.610870 0.433430 -0.578163
O3    O     O_R   0.499990 0.389100 0.433480 -0.623711
O4    O     O_R   0.500010 0.610900 0.566520 -0.626119
O5    O     O_R   0.271750 0.500010 0.550980 -0.542138
O6    O     O_R   0.728250 0.499990 0.449020 -0.541831
O7    O     O_R   0.271740 0.499980 0.417890 -0.596683
O8    O     O_R   0.728260 0.500020 0.582110 -0.596434
Zn1   Zn    Zn3+2 0.500010 0.500020 0.588860 1.051005
Zn2   Zn    Zn3+2 0.499990 0.499980 0.411140 1.051611
O9    O     O_3   0.964524 0.552829 0.405318 -0.734203
H11   H     H_    0.042318 0.570612 0.371721 0.345129
O10   O     O_3   0.035493 0.447201 0.594691 -0.734115
H12   H     H_    0.957723 0.429451 0.628316 0.345185
C33   C     C_2   0.419688 0.887097 0.646088 0.400372
H13   H     H_    0.402022 0.948053 0.646449 0.072855
O11   O     O_2   0.420589 0.852866 0.708943 -0.566850
C34   C     C_2   0.479741 0.109838 0.344336 0.398649
H14   H     H_    0.463735 0.048399 0.340405 0.073363
O12   O     O_2   0.503302 0.143730 0.284179 -0.569882
O13   O     O_3   0.336819 0.389386 0.689821 -0.712658
H15   H     H_    0.283783 0.353262 0.722266 0.311243
O14   O     O_3   0.662527 0.610864 0.310510 -0.709072
H16   H     H_    0.715432 0.647152 0.278182 0.312613
C35   C     C_2   0.661218 0.621165 0.726742 0.457763
H17   H     H_    0.644923 0.678499 0.748270 0.053531
O15   O     O_2   0.759306 0.610975 0.683322 -0.533166
C36   C     C_2   0.337753 0.379025 0.272502 0.450645
H18   H     H_    0.350893 0.321979 0.249302 0.059372
O16   O     O_2   0.242058 0.389014 0.317307 -0.532956

loop_
_geom_bond_atom_site_label_1
_geom_bond_atom_site_label_2
_ccdc_geom_bond_type
C12   H10   S    
O9    H11   S    
C5    C7    A    
C11   H9    S    
C34   H14   S    
C7    N1    A    
O4    Zn1   S    
C22   C34   S    
C21   C31   A    
C5    C13   A    
C19   C20   D    
C13   C15   S    
O7    Zn2   S    
C1    O1    A    
C17   O7    A    
C28   C30   A    
C34   O12   D    
C9    N1    A    
C18   O8    A    
C33   H13   S    
C29   C31   A    
O6    Zn2   S    
C23   C25   A    
C2    O2    A    
C3    C31   S    
C9    C11   A    
C24   C26   A    
C28   H4    S    
O10   H12   S    
C4    C32   S    
C22   C32   A    
C27   H3    S    
C8    O14   S    
O3    Zn2   S    
O5    Zn1   S    
C10   N2    A    
C10   C12   A    
O14   H16   S    
C17   C19   S    
O2    Zn2   S    
C12   C14   A    
C21   C33   S    
C2    C25   S    
C22   C24   A    
C35   H17   S    
C5    H7    S    
C21   C23   A    
C10   C36   S    
C1    C26   S    
C29   H5    S    
C14   C16   S    
C33   O11   D    
C6    C14   A    
O1    Zn1   S    
C15   C16   T    
C30   C32   A    
N2    Zn2   S    
C11   C13   A    
C6    H8    S    
O8    Zn1   S    
C18   O6    A    
C18   C20   S    
C36   O16   D    
O13   H15   S    
C19   O9    S    
C27   C29   A    
C35   O15   D    
C1    O3    A    
C6    C8    A    
C30   H6    S    
C2    O4    A    
C20   O10   S    
C26   C28   A    
C7    O13   S    
N1    Zn1   S    
C17   O5    A    
C3    C4    T    
C8    N2    A    
C9    C35   S    
C36   H18   S    
C23   H1    S    
C25   C27   A    
C24   H2    S    
