data_mof_unit_1164.cif
_audit_creation_date              2012-12-10T16:56:32-0500
_audit_creation_method            fapswitch 2.2
_symmetry_space_group_name_H-M    P1
_symmetry_Int_Tables_number       1
_space_group_crystal_system       triclinic
_cell_length_a                    7.766055
_cell_length_b                    8.635815
_cell_length_c                    15.707418
_cell_angle_alpha                 90.971876
_cell_angle_beta                  86.046138
_cell_angle_gamma                 93.32251
_cell_volume                      1049.07438585

loop_
_atom_site_label
_atom_site_type_symbol
_atom_type_description
_atom_site_fract_x
_atom_site_fract_y
_atom_site_fract_z
_atom_type_partial_charge
C1    C     C_R   0.544800 0.794139 0.497467 0.907752
C2    C     C_R   0.455200 0.205861 0.502533 0.907752
C3    C     C_R   0.502371 0.500012 0.661936 0.902547
C4    C     C_R   0.497629 0.499988 0.338064 0.902547
C5    C     C_2   0.562822 0.954604 0.483288 -0.242924
C6    C     C_2   0.437178 0.045396 0.516712 -0.242924
C7    C     C_3   0.381696 0.598560 0.031604 -0.204148
C8    C     C_3   0.618304 0.401440 0.968396 -0.204148
C9    C     C_3   0.543238 0.642067 0.972516 0.056011
C10   C     C_3   0.456762 0.357933 0.027484 0.056011
C11   C     C_1   0.507033 0.499399 0.750627 -0.160365
C12   C     C_1   0.492967 0.500601 0.249373 -0.160365
C13   C     C_3   0.342248 0.453634 0.974657 -0.215115
C14   C     C_3   0.657752 0.546366 0.025343 -0.215115
C15   C     C_3   0.504490 0.499445 0.916859 0.138767
C16   C     C_3   0.495510 0.500555 0.083141 0.138767
C17   C     C_1   0.507616 0.499192 0.825900 -0.047075
C18   C     C_1   0.492384 0.500808 0.174100 -0.047075
H1    H     H_    0.286315 0.679778 0.059103 0.158761
H2    H     H_    0.713685 0.320222 0.940897 0.158761
H3    H     H_    0.785810 0.585471 0.047819 0.150913
H4    H     H_    0.214190 0.414528 0.952181 0.150913
H5    H     H_    0.013656 0.382104 0.436598 0.202945
H6    H     H_    0.986344 0.617896 0.563402 0.202945
N1    N     N_2   0.950320 0.457950 0.477300 -0.167462
N2    N     N_2   0.049680 0.542050 0.522700 -0.167462
O1    O     O_R   0.389250 0.738570 0.505570 -0.608553
O2    O     O_R   0.610750 0.261430 0.494430 -0.608553
O3    O     O_R   0.678390 0.711630 0.491020 -0.623322
O4    O     O_R   0.321610 0.288370 0.508980 -0.623322
O5    O     O_R   0.355460 0.513480 0.630490 -0.608027
O6    O     O_R   0.644540 0.486520 0.369510 -0.608027
O7    O     O_R   0.644600 0.486540 0.615950 -0.621616
O8    O     O_R   0.355400 0.513460 0.384050 -0.621615
Zn1   Zn    Zn3+2 0.306940 0.517990 0.509710 0.973704
Zn2   Zn    Zn3+2 0.693060 0.482010 0.490290 0.973704
C19   C     C_1   0.591104 0.798514 0.940635 0.173464
N3    N     N_1   0.628834 0.921862 0.915467 -0.203936
C20   C     C_1   0.408896 0.201486 0.059365 0.173464
N4    N     N_1   0.371166 0.078138 0.084533 -0.203936
C21   C     C_1   0.700362 0.004788 0.420114 0.234471
N5    N     N_1   0.809573 0.044212 0.369932 -0.196794
C22   C     C_1   0.299638 0.995212 0.579886 0.234472
N6    N     N_1   0.190427 0.955788 0.630068 -0.196794

loop_
_geom_bond_atom_site_label_1
_geom_bond_atom_site_label_2
_ccdc_geom_bond_type
C2    O2    A    
C9    C14   S    
C19   N3    T    
C14   C16   S    
C4    C12   S    
C4    O8    A    
C21   N5    T    
C13   C15   S    
C2    O4    A    
C1    O1    A    
C9    C19   S    
C9    C15   S    
C10   C16   S    
C3    O5    A    
O3    Zn2   S    
C4    O6    A    
O4    Zn1   S    
C8    H2    S    
C1    C5    S    
O6    Zn2   S    
C14   H3    S    
C1    O3    A    
C7    C16   S    
H6    N2    S    
C13   H4    S    
C8    C15   S    
C7    H1    S    
C6    C22   S    
H5    N1    S    
C22   N6    T    
C5    C6    D    
O5    Zn1   S    
C3    C11   S    
C3    O7    A    
N1    Zn2   S    
C7    C9    S    
N2    Zn1   S    
C7    C13   S    
O7    Zn2   S    
O2    Zn2   S    
C16   C18   S    
O8    Zn1   S    
C12   C18   T    
C20   N4    T    
C15   C17   S    
C5    C21   S    
C11   C17   T    
C8    C14   S    
O1    Zn1   S    
N1    N2    D    
C8    C10   S    
C2    C6    S    
C10   C20   S    
C10   C13   S    
