data_mof_unit_4755.cif
_audit_creation_date              2012-12-11T16:48:31-0500
_audit_creation_method            fapswitch 2.2
_symmetry_space_group_name_H-M    P1
_symmetry_Int_Tables_number       1
_space_group_crystal_system       triclinic
_cell_length_a                    17.437839
_cell_length_b                    24.516647
_cell_length_c                    15.058985
_cell_angle_alpha                 89.838806
_cell_angle_beta                  126.040629
_cell_angle_gamma                 90.252335
_cell_volume                      5205.69764422

loop_
_atom_site_label
_atom_site_type_symbol
_atom_type_description
_atom_site_fract_x
_atom_site_fract_y
_atom_site_fract_z
_atom_type_partial_charge
C1    C     C_R   0.312890 0.372594 0.906435 -0.146594
C2    C     C_R   0.435053 0.498496 0.634855 0.133182
C3    C     C_R   0.091739 0.870104 0.907021 -0.130483
C4    C     C_R   0.317776 0.354277 0.996045 0.084124
C5    C     C_R   0.677086 0.351626 0.999482 0.085366
C6    C     C_R   0.817777 0.854276 0.996043 0.084127
C7    C     C_R   0.177086 0.851624 0.999485 0.085364
C8    C     C_2   0.298022 0.576239 0.448060 0.470927
C9    C     C_2   0.331766 0.581776 0.273895 0.439713
C10   C     C_2   0.798066 0.076279 0.448089 0.470893
C11   C     C_2   0.831822 0.081812 0.273946 0.439626
C12   C     C_2   0.348863 0.674544 0.809379 0.416268
C13   C     C_R   0.967242 0.999238 0.293036 0.074623
C14   C     C_2   0.660877 0.673066 0.195133 0.408558
C15   C     C_2   0.848862 0.174542 0.809376 0.416282
C16   C     C_2   0.160877 0.173066 0.195134 0.408557
C17   C     C_R   0.935051 0.998498 0.634850 0.133148
C18   C     C_R   0.187152 0.499035 0.646126 0.152682
C19   C     C_R   0.823931 0.500361 0.275618 0.138983
C20   C     C_R   0.687154 0.999035 0.646123 0.152664
C21   C     C_R   0.323931 0.000361 0.275618 0.138986
C22   C     C_2   0.977857 0.457518 0.363967 -0.122141
C23   C     C_2   0.075083 0.460717 0.463482 -0.080776
C24   C     C_2   0.477857 0.957517 0.363966 -0.122120
C25   C     C_R   0.679697 0.365462 0.090186 -0.137184
C26   C     C_2   0.575083 0.960716 0.463480 -0.080849
C27   C     C_2   0.924380 0.502354 0.323504 -0.185966
C28   C     C_2   0.099667 0.500356 0.537121 -0.138888
C29   C     C_2   0.424380 0.002353 0.323502 -0.185976
C30   C     C_2   0.599670 0.000356 0.537117 -0.138905
C31   C     C_R   0.390213 0.767001 0.096751 0.194161
C32   C     C_R   0.609372 0.765929 0.898131 0.222117
C33   C     C_R   0.890218 0.267009 0.096736 0.194138
C34   C     C_R   0.109369 0.265932 0.898135 0.222088
C35   C     C_R   0.356388 0.739179 0.998805 0.067373
C36   C     C_R   0.812891 0.872594 0.906434 -0.146594
C37   C     C_R   0.642278 0.740010 0.997902 0.057402
C38   C     C_R   0.856381 0.239177 0.998795 0.067363
C39   C     C_R   0.142278 0.240011 0.997905 0.057396
C40   C     C_R   0.280140 0.762345 0.899711 -0.115778
C41   C     C_R   0.712684 0.767068 0.095832 -0.130949
C42   C     C_R   0.780118 0.262334 0.899701 -0.115748
C43   C     C_R   0.212688 0.267066 0.095836 -0.130935
C44   C     C_R   0.730822 0.306011 0.900427 -0.238097
C45   C     C_R   0.258377 0.312680 0.093205 -0.238934
C46   C     C_R   0.230844 0.806021 0.900440 -0.238108
C47   C     C_R   0.179696 0.865461 0.090187 -0.137186
C48   C     C_R   0.758373 0.812681 0.093200 -0.238933
C49   C     C_R   0.750580 0.323709 0.000187 0.037091
C50   C     C_R   0.242048 0.327972 0.993914 0.032529
C51   C     C_R   0.250586 0.823709 0.000197 0.037101
C52   C     C_R   0.742047 0.827971 0.993910 0.032529
C53   C     C_R   0.441558 0.650476 0.089973 -0.153889
C54   C     C_R   0.560135 0.650077 0.909732 -0.158497
C55   C     C_R   0.941557 0.150476 0.089972 -0.153895
C56   C     C_R   0.060134 0.150077 0.909732 -0.158527
C57   C     C_R   0.836943 0.308267 0.097544 0.141923
C58   C     C_R   0.383721 0.683034 0.998818 0.096652
C59   C     C_R   0.159267 0.309288 0.896202 0.148468
C60   C     C_R   0.336938 0.808259 0.097560 0.141906
C61   C     C_R   0.659269 0.809285 0.896198 0.148468
C62   C     C_3   0.862579 0.291683 0.207571 -0.528030
C63   C     C_3   0.140987 0.291367 0.790546 -0.536758
C64   C     C_3   0.362547 0.791664 0.207569 -0.528000
C65   C     C_3   0.640996 0.791362 0.790546 -0.536771
C66   C     C_3   0.421181 0.746921 0.207340 -0.469315
C67   C     C_3   0.586715 0.743917 0.792234 -0.505380
C68   C     C_3   0.921213 0.246940 0.207342 -0.469255
C69   C     C_R   0.617971 0.683072 0.000641 0.089519
C70   C     C_3   0.086705 0.243923 0.792234 -0.505357
C71   C     C_R   0.433903 0.447639 0.497205 0.128535
C72   C     C_R   0.444230 0.448354 0.414504 0.157553
C73   C     C_R   0.933806 0.947633 0.497133 0.128585
C74   C     C_R   0.944130 0.948346 0.414427 0.157576
C75   C     C_R   0.405246 0.494215 0.522659 0.001246
C76   C     C_R   0.426661 0.495845 0.354237 -0.061550
C77   C     C_R   0.905216 0.994221 0.522638 0.001274
C78   C     C_R   0.926627 0.995847 0.354209 -0.061552
C79   C     C_R   0.360539 0.536740 0.443951 -0.076371
C80   C     C_R   0.883720 0.183034 0.998815 0.096645
C81   C     C_R   0.373504 0.538267 0.358671 -0.123952
C82   C     C_R   0.860551 0.036761 0.443961 -0.076394
C83   C     C_R   0.873515 0.038285 0.358680 -0.123912
C84   C     C_3   0.530753 0.412860 0.477377 -0.484295
C85   C     C_3   0.519179 0.412196 0.568773 -0.502294
C86   C     C_3   0.030595 0.912805 0.477257 -0.484353
C87   C     C_3   0.019025 0.912144 0.568655 -0.502347
C88   C     C_R   0.494096 0.454049 0.262826 -0.123697
C89   C     C_R   0.448907 0.453724 0.697444 -0.163783
C90   C     C_R   0.994088 0.954050 0.262819 -0.123728
C91   C     C_R   0.117970 0.183073 0.000642 0.089515
C92   C     C_R   0.948903 0.953725 0.697441 -0.163827
C93   C     C_R   0.237185 0.544685 0.705431 -0.103970
C94   C     C_R   0.767208 0.545523 0.245749 -0.165247
C95   C     C_R   0.737187 0.044685 0.705429 -0.103971
C96   C     C_R   0.267208 0.045523 0.245749 -0.165245
C97   C     C_R   0.490142 0.545352 0.259211 -0.150734
C98   C     C_R   0.453554 0.544608 0.697706 -0.086728
C99   C     C_R   0.990140 0.045352 0.259209 -0.150721
C100  C     C_R   0.953558 0.044609 0.697708 -0.086671
C101  C     C_R   0.240785 0.453716 0.702361 -0.145219
C102  C     C_R   0.467252 0.499238 0.293043 0.074580
C103  C     C_R   0.769327 0.454773 0.257441 -0.108430
C104  C     C_R   0.740786 0.953716 0.702360 -0.145224
C105  C     C_R   0.269327 0.954773 0.257441 -0.108428
C106  C     C_R   0.359390 0.652623 0.907894 -0.065830
C107  C     C_R   0.642571 0.652430 0.091984 -0.053233
C108  C     C_R   0.859390 0.152622 0.907893 -0.065849
C109  C     C_R   0.142571 0.152430 0.091985 -0.053231
C110  C     C_R   0.408192 0.365834 0.088991 -0.129265
C111  C     C_R   0.591738 0.370105 0.907020 -0.130483
C112  C     C_R   0.908192 0.865832 0.088990 -0.129266
H1    H     H_    0.253584 0.370453 0.821459 0.109606
H2    H     H_    0.744688 0.749765 0.175898 0.159375
H3    H     H_    0.747291 0.242685 0.821305 0.152323
H4    H     H_    0.244695 0.249761 0.175900 0.159373
H5    H     H_    0.668649 0.319092 0.822104 0.132939
H6    H     H_    0.316641 0.329478 0.170827 0.133524
H7    H     H_    0.168681 0.819111 0.822117 0.132951
H8    H     H_    0.816635 0.829481 0.170823 0.133520
H9    H     H_    0.905897 0.322977 0.271762 0.191169
H10   H     H_    0.095158 0.320476 0.722453 0.202158
H11   H     H_    0.405863 0.822951 0.271776 0.191161
H12   H     H_    0.729269 0.352407 0.172983 0.098297
H13   H     H_    0.595167 0.820468 0.722447 0.202158
H14   H     H_    0.802213 0.274488 0.205031 0.214439
H15   H     H_    0.206057 0.278145 0.799294 0.202057
H16   H     H_    0.302167 0.774470 0.205001 0.214448
H17   H     H_    0.706069 0.778140 0.799301 0.202060
H18   H     H_    0.498598 0.752439 0.271014 0.217598
H19   H     H_    0.509554 0.745464 0.724662 0.218686
H20   H     H_    0.998632 0.252465 0.271000 0.217618
H21   H     H_    0.009543 0.245472 0.724667 0.218692
H22   H     H_    0.392428 0.706069 0.205616 0.220351
H23   H     H_    0.753584 0.870453 0.821458 0.109608
H24   H     H_    0.621772 0.704362 0.801583 0.190955
H25   H     H_    0.892473 0.206089 0.205647 0.220368
H26   H     H_    0.121759 0.204367 0.801575 0.190957
H27   H     H_    0.518698 0.371997 0.439275 0.184069
H28   H     H_    0.578237 0.433182 0.644205 0.204250
H29   H     H_    0.018473 0.871949 0.439106 0.184066
H30   H     H_    0.078120 0.933096 0.644111 0.204247
H31   H     H_    0.596369 0.434212 0.499860 0.203991
H32   H     H_    0.500224 0.371219 0.582396 0.186873
H33   H     H_    0.096247 0.934121 0.499766 0.203994
H34   H     H_    0.229267 0.852407 0.172985 0.098300
H35   H     H_    0.000006 0.871176 0.582230 0.186886
H36   H     H_    0.487615 0.663120 0.174451 0.137962
H37   H     H_    0.515352 0.662245 0.824799 0.128461
H38   H     H_    0.987614 0.163121 0.174449 0.137964
H39   H     H_    0.015350 0.162246 0.824800 0.128451
H40   H     H_    0.493100 0.412585 0.283984 0.097000
H41   H     H_    0.427363 0.412235 0.668834 0.104351
H42   H     H_    0.993084 0.912586 0.283966 0.097016
H43   H     H_    0.927348 0.912237 0.668828 0.104366
H44   H     H_    0.218307 0.586224 0.677405 0.093579
H45   H     H_    0.956938 0.542530 0.342038 0.140467
H46   H     H_    0.788323 0.587384 0.249585 0.087287
H47   H     H_    0.718310 0.086224 0.677404 0.093598
H48   H     H_    0.288323 0.087384 0.249585 0.087287
H49   H     H_    0.483278 0.587606 0.273352 0.118410
H50   H     H_    0.440643 0.586588 0.670513 0.101028
H51   H     H_    0.983279 0.087606 0.273349 0.118454
H52   H     H_    0.940651 0.086589 0.670520 0.101063
H53   H     H_    0.227931 0.412352 0.671939 0.086723
H54   H     H_    0.795317 0.414217 0.285455 0.084119
H55   H     H_    0.727932 0.912353 0.671937 0.086723
H56   H     H_    0.053118 0.534242 0.520325 0.118677
H57   H     H_    0.295317 0.914217 0.285456 0.084114
H58   H     H_    0.440109 0.350490 0.170504 0.086026
H59   H     H_    0.563908 0.366104 0.821714 0.092546
H60   H     H_    0.940111 0.850486 0.170502 0.086025
H61   H     H_    0.063910 0.866102 0.821715 0.092551
H62   H     H_    0.946614 0.417170 0.338510 0.114845
H63   H     H_    0.121600 0.426344 0.483151 0.119276
H64   H     H_    0.446614 0.917169 0.338509 0.114850
H65   H     H_    0.621599 0.926343 0.483150 0.119278
H66   H     H_    0.282522 0.615919 0.409853 0.096696
H67   H     H_    0.456938 0.042529 0.342035 0.140464
H68   H     H_    0.302616 0.571361 0.189539 0.038118
H69   H     H_    0.782585 0.115958 0.409881 0.096677
H70   H     H_    0.802616 0.071410 0.189567 0.038108
H71   H     H_    0.328137 0.647931 0.741636 0.025909
H72   H     H_    0.695741 0.647237 0.267279 0.018543
H73   H     H_    0.828162 0.147924 0.741648 0.025938
H74   H     H_    0.195736 0.147234 0.267277 0.018551
H75   H     H_    0.553122 0.034244 0.520320 0.118691
H76   H     H_    0.247323 0.742705 0.821310 0.152339
N1    N     N_R   0.395410 0.396350 0.944340 -0.041012
N2    N     N_R   0.474920 0.471030 0.794350 -0.042149
N3    N     N_R   0.025080 0.971030 0.205650 -0.042024
N4    N     N_R   0.974920 0.971030 0.794350 -0.042145
N5    N     N_R   0.320260 0.527820 0.794570 -0.052455
N6    N     N_R   0.679740 0.527820 0.205430 -0.048641
N7    N     N_R   0.820260 0.027820 0.794570 -0.052456
N8    N     N_R   0.179740 0.027820 0.205430 -0.048641
N9    N     N_R   0.524590 0.527840 0.205200 -0.044374
N10   N     N_R   0.475410 0.527840 0.794800 -0.049643
N11   N     N_R   0.024590 0.027840 0.205200 -0.044380
N12   N     N_R   0.604590 0.396350 0.055660 -0.041089
N13   N     N_R   0.975410 0.027840 0.794800 -0.049648
N14   N     N_R   0.320750 0.471000 0.795020 -0.041922
N15   N     N_R   0.679250 0.471000 0.204980 -0.044839
N16   N     N_R   0.820750 0.971000 0.795020 -0.041922
N17   N     N_R   0.179250 0.971000 0.204980 -0.044839
N18   N     N_R   0.393620 0.602490 0.942710 -0.072761
N19   N     N_R   0.606380 0.602490 0.057290 -0.068099
N20   N     N_R   0.893620 0.102490 0.942710 -0.072763
N21   N     N_R   0.106380 0.102490 0.057290 -0.068099
N22   N     N_R   0.451720 0.396350 0.057510 -0.040743
N23   N     N_R   0.895410 0.896350 0.944340 -0.041012
N24   N     N_R   0.548280 0.396350 0.942490 -0.041151
N25   N     N_R   0.951720 0.896350 0.057510 -0.040742
N26   N     N_R   0.048280 0.896350 0.942490 -0.041150
N27   N     N_R   0.104590 0.896350 0.055660 -0.041088
N28   N     N_R   0.449930 0.602500 0.055880 -0.052763
N29   N     N_R   0.550070 0.602500 0.944120 -0.053468
N30   N     N_R   0.949930 0.102500 0.055880 -0.052764
N31   N     N_R   0.050070 0.102500 0.944120 -0.053467
N32   N     N_R   0.525080 0.471030 0.205650 -0.042025
Ni1   Ni    Ni4+2 0.435420 0.434270 0.870230 0.212452
Ni2   Ni    Ni4+2 0.564580 0.434270 0.129770 0.215181
Ni3   Ni    Ni4+2 0.935420 0.934270 0.870230 0.212448
Ni4   Ni    Ni4+2 0.064580 0.934270 0.129770 0.215185
Ni5   Ni    Ni4+2 0.563430 0.564580 0.128740 0.214615
Ni6   Ni    Ni4+2 0.436570 0.564580 0.871260 0.220683
Ni7   Ni    Ni4+2 0.063430 0.064580 0.128740 0.214616
Ni8   Ni    Ni4+2 0.936570 0.064580 0.871260 0.220684
O1    O     O_2   0.259864 0.563868 0.492125 -0.603649
O2    O     O_2   0.334541 0.629606 0.297797 -0.620835
O3    O     O_2   0.759908 0.063925 0.492162 -0.603661
O4    O     O_2   0.834697 0.129643 0.297905 -0.620829
O5    O     O_2   0.373103 0.721064 0.807273 -0.592160
O6    O     O_2   0.629753 0.717001 0.198177 -0.598544
O7    O     O_2   0.873075 0.221067 0.807253 -0.592150
O8    O     O_2   0.129758 0.217002 0.198182 -0.598548

loop_
_geom_bond_atom_site_label_1
_geom_bond_atom_site_label_2
_ccdc_geom_bond_type
C45   H6    S    
C44   C49   A    
C31   C66   S    
C71   C75   A    
C86   H33   S    
C11   O4    D    
N22   Ni2   S    
C37   C69   S    
C13   C90   A    
N13   Ni8   S    
C94   N6    A    
C73   C74   A    
C41   H2    S    
C72   C76   A    
N27   Ni4   S    
N32   Ni2   S    
C69   C107  A    
C92   N4    A    
C57   C62   S    
C48   H8    S    
C20   C30   S    
C3    N26   A    
C40   C46   A    
C15   H73   S    
N12   N24   A    
C1    N1    A    
C87   H35   S    
N7    Ni8   S    
C54   N29   A    
C35   C58   S    
C95   H47   S    
C50   C59   A    
C104  N16   A    
N6    Ni5   S    
C24   C26   S    
C32   C61   A    
C38   C42   A    
N3    N11   A    
C3    C7    A    
C52   C61   A    
C88   C102  A    
N25   Ni4   S    
N1    Ni1   S    
C12   H71   S    
C23   H63   S    
C16   O8    D    
C49   C57   A    
C100  N13   A    
N8    N17   A    
C68   H20   S    
C24   C29   D    
C73   C87   S    
C22   H62   S    
C71   C85   S    
C19   C103  A    
C78   C83   A    
C3    H61   S    
C56   C91   A    
C84   H27   S    
C65   C67   S    
C47   N27   A    
N18   Ni6   S    
C70   H21   S    
C95   N7    A    
N4    N13   A    
N31   Ni8   S    
C90   H42   S    
N9    N32   A    
C19   C27   S    
C34   C70   S    
C107  N19   A    
C97   C102  A    
C108  N20   A    
N29   Ni6   S    
C90   N3    A    
C63   H15   S    
N8    Ni7   S    
C94   H46   S    
C66   H22   S    
C76   C102  S    
C88   H40   S    
N14   Ni1   S    
C5    C49   S    
C68   H25   S    
C110  N22   A    
C11   H70   S    
C1    H1    S    
C109  N21   A    
C85   H32   S    
C39   C91   S    
C98   H50   S    
N19   Ni5   S    
C16   C109  S    
C55   N30   A    
N24   Ni1   S    
N20   N30   A    
C12   O5    D    
C111  N24   A    
C67   H19   S    
N19   N29   A    
C20   C104  A    
C98   N10   A    
C34   C39   A    
N21   N31   A    
C97   N9    A    
C18   C28   S    
C84   C85   S    
N2    Ni1   S    
C62   H14   S    
C86   C87   S    
C39   C43   A    
N7    N16   A    
C5    C111  A    
C84   H31   S    
C64   H16   S    
C23   C28   D    
C21   C29   S    
C46   C51   A    
C10   C82   S    
C53   H36   S    
N5    N14   A    
C88   N32   A    
N15   Ni2   S    
C4    C50   S    
C9    O2    D    
C58   C106  A    
C18   C101  A    
C65   H13   S    
C31   C60   A    
C13   C99   A    
C2    C89   A    
C8    H66   S    
C43   H4    S    
C8    C79   S    
C8    O1    D    
C14   H72   S    
C61   C65   S    
C63   C70   S    
C96   N8    A    
C89   N2    A    
N23   Ni3   S    
C17   C77   S    
C2    C75   S    
C100  H52   S    
C32   C37   A    
C74   C86   S    
C56   H39   S    
C101  H53   S    
C43   C45   A    
C85   H28   S    
C64   C66   S    
C25   H12   S    
C72   C84   S    
C9    H68   S    
C105  H57   S    
C32   C67   S    
C99   H51   S    
N5    Ni6   S    
C110  H58   S    
C14   C107  S    
N23   N25   A    
C20   C95   A    
C70   H26   S    
C53   N28   A    
C97   H49   S    
C22   C27   D    
N16   Ni3   S    
C29   H67   S    
C34   C59   A    
C31   C35   A    
C111  H59   S    
C75   C79   A    
C15   O7    D    
C24   H64   S    
C36   H23   S    
N30   Ni7   S    
C14   O6    D    
C63   H10   S    
N2    N10   A    
C55   H38   S    
C79   C81   A    
C26   H65   S    
N18   N28   A    
C18   C93   A    
C4    C110  A    
C13   C78   S    
C33   C57   A    
C96   H48   S    
C101  N14   A    
N26   N27   A    
C6    C112  A    
C93   H44   S    
C93   N5    A    
C33   C38   A    
N4    Ni3   S    
C15   C108  S    
C33   C68   S    
C76   C81   A    
C106  N18   A    
C65   H17   S    
C53   C58   A    
C26   C30   D    
C40   H76   S    
C21   C96   A    
C62   C68   S    
C27   H45   S    
C64   H11   S    
C7    C47   A    
C80   C108  A    
N17   Ni4   S    
C59   C63   S    
N28   Ni5   S    
C60   C64   S    
N1    N22   A    
C1    C4    A    
C11   C83   S    
C30   H75   S    
C91   C109  A    
C51   C60   A    
C67   H24   S    
C42   C44   A    
N12   Ni2   S    
C71   C72   A    
C25   N12   A    
C16   H74   S    
N20   Ni8   S    
C104  H55   S    
C12   C106  S    
C55   C80   A    
C112  N25   A    
C112  H60   S    
C54   C69   A    
C38   C80   S    
C77   C82   A    
N6    N15   A    
N3    Ni4   S    
C10   O3    D    
C41   C48   A    
C6    C36   A    
C46   H7    S    
C35   C40   A    
C92   H43   S    
C105  N17   A    
C62   H9    S    
C87   H30   S    
C37   C41   A    
C17   C100  A    
C103  N15   A    
C47   H34   S    
C89   H41   S    
N26   Ni3   S    
C28   H56   S    
C36   N23   A    
C7    C51   S    
C17   C92   A    
C42   H3    S    
C48   C52   A    
C44   H5    S    
C2    C98   A    
C103  H54   S    
C82   C83   A    
C74   C78   A    
C99   N11   A    
C10   H69   S    
C73   C77   A    
C22   C23   S    
C45   C50   A    
N21   Ni7   S    
C6    C52   S    
N11   Ni7   S    
C19   C94   A    
C56   N31   A    
C21   C105  A    
C54   H37   S    
N10   Ni6   S    
C86   H29   S    
C9    C81   S    
C66   H18   S    
C5    C25   A    
N9    Ni5   S    
