data_mof_unit_2419.cif
_audit_creation_date              2012-12-10T16:57:43-0500
_audit_creation_method            fapswitch 2.2
_symmetry_space_group_name_H-M    P1
_symmetry_Int_Tables_number       1
_space_group_crystal_system       triclinic
_cell_length_a                    7.756283
_cell_length_b                    8.576187
_cell_length_c                    19.011137
_cell_angle_alpha                 91.09341
_cell_angle_beta                  85.078054
_cell_angle_gamma                 93.746251
_cell_volume                      1257.13716162

loop_
_atom_site_label
_atom_site_type_symbol
_atom_type_description
_atom_site_fract_x
_atom_site_fract_y
_atom_site_fract_z
_atom_type_partial_charge
C1    C     C_R   0.545936 0.794862 0.498183 0.973547
C2    C     C_R   0.636881 0.379389 0.178498 0.506138
C3    C     C_R   0.478627 0.383196 0.851830 -0.040812
C4    C     C_R   0.480534 0.390274 0.146327 -0.008280
C5    C     C_R   0.638951 0.424696 0.814752 -0.233144
C6    C     C_R   0.331160 0.434382 0.187121 -0.246355
C7    C     C_R   0.646674 0.463916 0.743993 -0.194125
C8    C     C_R   0.337259 0.472195 0.258088 -0.206196
C9    C     C_R   0.493832 0.464131 0.709927 -0.100819
C10   C     C_R   0.493353 0.468441 0.289437 -0.083940
C11   C     C_R   0.472615 0.367194 0.069929 0.296828
C12   C     C_R   0.454063 0.205137 0.501815 0.967186
C13   C     C_R   0.470942 0.363109 0.927954 0.289360
C14   C     C_3   0.141654 0.168031 0.848167 0.075384
C15   C     C_3   0.966561 0.117731 0.885850 -0.763465
C16   C     C_3   0.850240 0.204198 0.168099 0.075594
C17   C     C_3   0.959300 0.120382 0.110737 -0.776436
C18   C     C_2   0.570148 0.958332 0.497133 -0.386277
C19   C     C_2   0.429849 0.041680 0.502876 -0.384194
C20   C     C_R   0.499885 0.495490 0.634760 0.884044
C21   C     C_R   0.498532 0.496138 0.365142 0.884971
C22   C     C_R   0.333805 0.420375 0.746597 -0.280408
C23   C     C_R   0.642707 0.423791 0.249388 -0.315470
C24   C     C_R   0.325515 0.376069 0.816716 0.493981
H1    H     H_    0.214583 0.416141 0.720588 0.174462
H2    H     H_    0.985974 0.618156 0.552772 0.189124
H3    H     H_    0.243755 0.112516 0.875008 0.143366
H4    H     H_    0.143546 0.125013 0.792419 0.136656
H5    H     H_    0.860874 0.163125 0.857836 0.250088
H6    H     H_    0.949648 0.988189 0.886734 0.205765
H7    H     H_    0.958541 0.163483 0.940988 0.276316
H8    H     H_    0.744213 0.119146 0.189336 0.134727
H9    H     H_    0.934112 0.240338 0.210894 0.140038
H10   H     H_    0.066508 0.200806 0.087902 0.267508
H11   H     H_    0.015276 0.018521 0.133388 0.206845
H12   H     H_    0.764396 0.421633 0.273195 0.160000
H13   H     H_    0.877353 0.078420 0.068247 0.256213
H14   H     H_    0.757847 0.431794 0.840985 0.199266
H15   H     H_    0.208919 0.441318 0.164142 0.191147
H16   H     H_    0.771529 0.495708 0.716248 0.166077
H17   H     H_    0.219718 0.504259 0.288306 0.165557
H18   H     H_    0.702580 0.009557 0.491644 0.179352
H19   H     H_    0.297417 0.990461 0.508365 0.179505
H20   H     H_    0.014024 0.381857 0.447217 0.186739
N1    N     N_R   0.330605 0.406058 0.969294 -0.102919
N2    N     N_R   0.611091 0.320073 0.028422 -0.097766
N3    N     N_R   0.331459 0.408042 0.038985 -0.186544
N4    N     N_R   0.610682 0.318501 0.958636 -0.185728
N5    N     N_2   0.950330 0.457950 0.481240 -0.176054
N6    N     N_2   0.049670 0.542050 0.518760 -0.175010
O1    O     O_R   0.389250 0.738570 0.504600 -0.609580
O2    O     O_3   0.786141 0.337480 0.139126 -0.601438
O3    O     O_R   0.610750 0.261430 0.495400 -0.611880
O4    O     O_R   0.678400 0.711620 0.492580 -0.627899
O5    O     O_R   0.321600 0.288380 0.507420 -0.630772
O6    O     O_R   0.355380 0.513500 0.607880 -0.621102
O7    O     O_R   0.644620 0.486500 0.392120 -0.622038
O8    O     O_R   0.644530 0.486550 0.595850 -0.625349
O9    O     O_R   0.355470 0.513450 0.404150 -0.627589
O10   O     O_3   0.165727 0.332575 0.851056 -0.606391
Zn1   Zn    Zn3+2 0.306930 0.517990 0.508030 0.936435
Zn2   Zn    Zn3+2 0.693070 0.482010 0.491970 0.935755

loop_
_geom_bond_atom_site_label_1
_geom_bond_atom_site_label_2
_ccdc_geom_bond_type
H20   N5    S    
O8    Zn2   S    
C13   N4    A    
C2    C4    A    
C7    H16   S    
C5    C7    A    
C15   H7    S    
C16   H9    S    
C16   H8    S    
C14   O10   S    
O3    Zn2   S    
C9    C20   S    
C11   N3    A    
C12   O3    A    
O1    Zn1   S    
C24   O10   S    
C20   O6    A    
C6    H15   S    
N1    N3    A    
C1    C18   S    
O7    Zn2   S    
C21   O9    A    
C17   H13   S    
C5    H14   S    
C4    C11   S    
C13   N1    A    
C1    O1    A    
C3    C24   A    
C2    O2    S    
C1    O4    A    
O5    Zn1   S    
C12   C19   S    
C4    C6    A    
C19   H19   S    
C15   H5    S    
N2    N4    A    
H2    N6    S    
C10   C21   S    
C14   H3    S    
C22   C24   A    
C9    C22   A    
O9    Zn1   S    
C12   O5    A    
C17   H10   S    
C20   O8    A    
C23   H12   S    
C21   O7    A    
C3    C5    A    
C8    H17   S    
C15   H6    S    
C8    C10   A    
N5    N6    D    
C2    C23   A    
C7    C9    A    
N6    Zn1   S    
O6    Zn1   S    
C18   C19   D    
C10   C23   A    
C6    C8    A    
N5    Zn2   S    
C17   H11   S    
C18   H18   S    
C14   H4    S    
C14   C15   S    
O4    Zn2   S    
C16   O2    S    
C16   C17   S    
C11   N2    A    
C22   H1    S    
C3    C13   S    
