data_mof_unit_4289.cif
_audit_creation_date              2012-12-11T17:39:37-0500
_audit_creation_method            fapswitch 2.2
_symmetry_space_group_name_H-M    P1
_symmetry_Int_Tables_number       1
_space_group_crystal_system       triclinic
_cell_length_a                    15.151599
_cell_length_b                    15.112481
_cell_length_c                    14.960537
_cell_angle_alpha                 108.770077
_cell_angle_beta                  110.3524
_cell_angle_gamma                 110.1307
_cell_volume                      2608.94325012

loop_
_atom_site_label
_atom_site_type_symbol
_atom_type_description
_atom_site_fract_x
_atom_site_fract_y
_atom_site_fract_z
_atom_type_partial_charge
C1    C     C_R   0.910706 0.912595 0.713572 -0.135113
C2    C     C_R   0.907579 0.684836 0.445263 -0.139038
C3    C     C_R   0.700561 0.787526 0.195997 -0.123948
C4    C     C_R   0.091639 0.297150 0.494485 -0.158302
C5    C     C_R   0.297961 0.995906 0.589151 -0.051500
C6    C     C_R   0.642354 0.689879 0.189372 0.130734
C7    C     C_R   0.356897 0.050039 0.553537 0.075726
C8    C     C_R   0.000126 0.676570 0.465740 0.051426
C9    C     C_R   0.997989 0.948532 0.175124 0.052519
C10   C     C_R   0.483060 0.670764 0.340635 -0.115621
C11   C     C_R   0.500609 0.776306 0.379512 -0.119646
C12   C     C_R   0.001356 0.300117 0.436175 0.055049
C13   C     C_R   0.518592 0.834335 0.484824 0.116472
C14   C     C_R   0.517564 0.784912 0.549934 -0.180022
C15   C     C_R   0.501196 0.679861 0.511127 -0.116887
C16   C     C_R   0.245547 0.219878 0.812888 -0.039465
C17   C     C_R   0.483975 0.622827 0.406525 -0.103759
C18   C     C_R   0.452014 0.955702 0.536640 -0.242722
C19   C     C_R   0.455331 0.054261 0.564157 0.108873
C20   C     C_R   0.545739 0.148191 0.590550 0.122982
C21   C     C_R   0.629970 0.138719 0.580467 -0.209056
C22   C     C_R   0.623620 0.037962 0.547486 0.051664
C23   C     C_R   0.269555 0.321110 0.823951 0.108593
C24   C     C_R   0.534376 0.945281 0.526087 0.021232
C25   C     C_R   0.546832 0.296612 0.553158 -0.234871
C26   C     C_R   0.527873 0.382961 0.568728 -0.090696
C27   C     C_R   0.510297 0.426035 0.654009 -0.173140
C28   C     C_R   0.739751 0.053403 0.463003 -0.155006
C29   C     C_R   0.516856 0.386357 0.727060 -0.225522
C30   C     C_R   0.541354 0.303641 0.716168 0.594199
C31   C     C_R   0.550152 0.253748 0.624134 -0.099307
C32   C     C_R   0.810288 0.120869 0.081639 -0.120343
C33   C     C_R   0.885032 0.217833 0.182639 -0.130996
C34   C     C_R   0.708816 0.029396 0.533117 0.057927
C35   C     C_R   0.849922 0.285067 0.229774 0.124904
C36   C     C_R   0.738789 0.253948 0.172524 -0.191200
C37   C     C_R   0.664500 0.157254 0.071077 -0.063557
C38   C     C_R   0.700159 0.090660 0.025874 -0.051740
C39   C     C_R   0.929341 0.483537 0.351466 -0.235767
C40   C     C_R   0.246232 0.312112 0.722012 -0.116834
C41   C     C_R   0.005609 0.580789 0.452240 0.064509
C42   C     C_R   0.086214 0.585548 0.540408 0.019041
C43   C     C_R   0.087476 0.492291 0.525895 -0.233998
C44   C     C_R   0.007675 0.393783 0.428643 0.059030
C45   C     C_R   0.703036 0.694960 0.285745 -0.143875
C46   C     C_R   0.929384 0.387874 0.337912 0.022212
C47   C     C_R   0.278471 0.729884 0.693410 -0.201016
C48   C     C_R   0.353284 0.821502 0.798449 -0.106309
C49   C     C_R   0.315623 0.865655 0.863592 -0.083380
C50   C     C_R   0.203018 0.817795 0.824018 -0.124041
C51   C     C_R   0.127809 0.726395 0.718844 -0.118844
C52   C     C_R   0.747513 0.966511 0.560399 -0.096208
C53   C     C_R   0.165089 0.682570 0.652324 0.116413
C54   C     C_2   0.355495 0.517816 0.938185 -0.118058
C55   C     C_2   0.318270 0.418902 0.928049 -0.176643
C56   C     C_R   0.300013 0.087229 0.497730 -0.183681
C57   C     C_2   0.455852 0.613108 0.039410 -0.134419
C58   C     C_2   0.532375 0.600231 0.103494 -0.231737
C59   C     C_R   0.407593 0.172737 0.117303 -0.091703
C60   C     C_R   0.309464 0.077243 0.073167 -0.193480
C61   C     C_R   0.210223 0.076529 0.039608 0.111824
C62   C     C_R   0.211376 0.173858 0.055571 -0.132872
C63   C     C_R   0.310014 0.269728 0.102098 -0.155145
C64   C     C_R   0.909228 0.209581 0.407237 -0.119934
C65   C     C_R   0.407857 0.268927 0.131635 -0.083058
C66   C     C_R   0.101914 0.954636 0.081533 -0.219285
C67   C     C_R   0.091121 0.779355 0.528748 -0.116844
C68   C     C_R   0.000105 0.904647 0.072851 0.054454
C69   C     C_R   0.904538 0.838913 0.966727 0.031140
C70   C     C_R   0.913146 0.843755 0.878667 -0.232753
C71   C     C_R   0.010120 0.922747 0.897299 0.052335
C72   C     C_R   0.107486 0.978223 0.001048 0.004732
C73   C     C_R   0.773980 0.694109 0.978823 -0.132978
C74   C     C_R   0.668470 0.630015 0.955701 -0.064997
C75   C     C_R   0.582291 0.640744 0.896062 -0.133748
C76   C     C_R   0.092726 0.000400 0.801005 -0.153163
C77   C     C_R   0.601378 0.717076 0.861503 -0.140852
C78   C     C_R   0.907776 0.937378 0.186486 -0.143316
C79   C     C_R   0.706763 0.782232 0.885451 -0.173124
C80   C     C_R   0.793811 0.770837 0.943873 0.104038
C81   C     C_R   0.004814 0.948597 0.810121 0.059319
C82   C     C_R   0.090871 0.025776 0.279237 -0.116876
H1    H     H_    0.826889 0.855896 0.684752 0.091214
H2    H     H_    0.468143 0.625771 0.259208 0.123463
H3    H     H_    0.499721 0.812577 0.327682 0.110481
H4    H     H_    0.175633 0.349875 0.519656 0.096769
H5    H     H_    0.530374 0.828183 0.630970 0.116634
H6    H     H_    0.501435 0.642538 0.561970 0.105197
H7    H     H_    0.380680 0.883762 0.515372 0.125868
H8    H     H_    0.699938 0.209084 0.597829 0.135707
H9    H     H_    0.553448 0.259549 0.482451 0.136193
H10   H     H_    0.523088 0.414013 0.512368 0.114345
H11   H     H_    0.491688 0.490307 0.663510 0.134560
H12   H     H_    0.328676 0.141567 0.468750 0.116036
H13   H     H_    0.501982 0.419282 0.792196 0.158782
H14   H     H_    0.642552 0.015771 0.947527 0.096357
H15   H     H_    0.255038 0.199223 0.876889 0.109172
H16   H     H_    0.837878 0.069307 0.046428 0.114433
H17   H     H_    0.970328 0.240505 0.223873 0.115069
H18   H     H_    0.709256 0.303736 0.206839 0.104027
H19   H     H_    0.579144 0.133766 0.027586 0.121477
H20   H     H_    0.870548 0.482880 0.283923 0.137070
H21   H     H_    0.145844 0.495520 0.596136 0.129726
H22   H     H_    0.308617 0.696576 0.643473 0.115972
H23   H     H_    0.175576 0.801422 0.559097 0.104673
H24   H     H_    0.440422 0.858231 0.829311 0.101191
H25   H     H_    0.373924 0.936635 0.944811 0.097137
H26   H     H_    0.173760 0.851204 0.874668 0.116898
H27   H     H_    0.718349 0.097056 0.422820 0.100872
H28   H     H_    0.040802 0.690173 0.688970 0.115371
H29   H     H_    0.325935 0.527216 0.866562 0.116250
H30   H     H_    0.341043 0.410708 0.000781 0.125698
H31   H     H_    0.474279 0.693524 0.051364 0.129731
H32   H     H_    0.517268 0.520515 0.091164 0.147118
H33   H     H_    0.484036 0.343149 0.167077 0.092453
H34   H     H_    0.822410 0.890486 0.123997 0.123350
H35   H     H_    0.483686 0.172614 0.142182 0.096096
H36   H     H_    0.310844 0.004319 0.066383 0.107809
H37   H     H_    0.136258 0.175765 0.033949 0.119332
H38   H     H_    0.310633 0.344811 0.116185 0.108681
H39   H     H_    0.255378 0.375541 0.701272 0.088084
H40   H     H_    0.177822 0.995182 0.158440 0.123977
H41   H     H_    0.840394 0.792302 0.797319 0.126247
H42   H     H_    0.839959 0.684384 0.024001 0.129491
H43   H     H_    0.653194 0.571294 0.983116 0.168651
H44   H     H_    0.500055 0.588304 0.874285 0.117802
H45   H     H_    0.175622 0.058197 0.303245 0.094948
H46   H     H_    0.534408 0.725168 0.815499 0.106351
H47   H     H_    0.720625 0.841789 0.858731 0.109802
H48   H     H_    0.735372 0.932249 0.611167 0.108372
H49   H     H_    0.824515 0.182549 0.353755 0.099067
H50   H     H_    0.175564 0.019074 0.847825 0.123691
H51   H     H_    0.674464 0.639033 0.313365 0.091447
H52   H     H_    0.645354 0.358662 0.998586 0.367092
H53   H     H_    0.823492 0.619397 0.401982 0.097404
H54   H     H_    0.670366 0.815490 0.140615 0.099638
H55   H     H_    0.325937 0.969130 0.646624 0.120806
H56   H     H_    0.470725 0.541262 0.376247 0.098753
N1    N     N_R   0.941940 0.944580 0.650780 -0.041612
N2    N     N_R   0.204460 0.150250 0.707090 -0.034517
N3    N     N_R   0.794270 0.003240 0.446420 -0.041976
N4    N     N_R   0.204920 0.207570 0.650770 -0.041830
N5    N     N_R   0.793810 0.945920 0.502740 -0.044137
N6    N     N_R   0.943620 0.152590 0.446420 -0.039843
N7    N     N_R   0.055110 0.000900 0.707100 -0.046846
N8    N     N_R   0.795080 0.792430 0.349230 -0.039232
N9    N     N_R   0.206190 0.054080 0.497260 -0.039432
N10   N     N_R   0.056380 0.847410 0.553580 -0.044847
N11   N     N_R   0.944890 0.999100 0.292900 -0.042294
N12   N     N_R   0.058060 0.055420 0.349220 -0.041820
N13   N     N_R   0.943200 0.791100 0.497260 -0.040938
N14   N     N_R   0.795540 0.849750 0.292910 -0.045966
N15   N     N_R   0.205730 0.996760 0.553580 -0.049367
N16   N     N_R   0.056800 0.208900 0.502740 -0.039477
Ni1   Ni    Ni4+2 0.869690 0.869690 0.500000 0.213223
Ni2   Ni    Ni4+2 0.130310 0.130310 0.500000 0.218800
Ni3   Ni    Ni4+2 0.129250 0.998840 0.629170 0.248122
Ni4   Ni    Ni4+2 0.870750 0.001160 0.370830 0.207657
O1    O     O_2   0.454029 0.206395 0.809977 -0.341239
O2    O     O_2   0.615364 0.200496 0.814567 -0.299478
O3    O     O_3   0.643993 0.383135 0.944376 -0.568418
S1    S     S_3+6 0.562371 0.268271 0.820854 -0.078323

loop_
_geom_bond_atom_site_label_1
_geom_bond_atom_site_label_2
_ccdc_geom_bond_type
C25   C31   A    
C66   C68   A    
C63   C65   A    
C6    C45   A    
C40   N4    A    
C55   H30   S    
C27   C29   A    
C76   H50   S    
C41   C42   A    
C6    C58   S    
C4    N16   A    
C35   C36   A    
N10   N13   A    
C3    C6    A    
O3    S1    S    
C39   C41   A    
C56   H12   S    
C40   H39   S    
C3    N14   A    
C37   C38   A    
C18   C24   A    
C36   C37   A    
N2    N4    A    
C14   H5    S    
C18   C19   A    
N3    N5    A    
C42   C53   S    
C30   C31   A    
C12   C64   A    
C16   H15   S    
C74   H43   S    
C4    H4    S    
C10   C17   A    
C1    C81   A    
C23   C40   A    
C79   H47   S    
C3    H54   S    
C73   C74   A    
C70   H41   S    
C48   H24   S    
N8    Ni1   S    
C19   C20   A    
C66   C72   A    
C68   C69   A    
C66   H40   S    
N15   Ni3   S    
C60   H36   S    
C17   H56   S    
C32   C38   A    
C4    C12   A    
C29   C30   A    
N11   Ni4   S    
N16   Ni2   S    
C61   C62   A    
C1    N1    A    
C9    C82   A    
C47   C53   A    
C28   C34   A    
C59   C60   A    
C59   H35   S    
N12   Ni2   S    
C13   C14   A    
C50   H26   S    
C65   H33   S    
C16   N2    A    
C7    C56   A    
C44   C46   A    
C78   H34   S    
C21   H8    S    
C77   C79   A    
C22   C34   S    
N14   Ni4   S    
C25   H9    S    
C52   N5    A    
C74   C75   A    
C45   N8    A    
N4    Ni2   S    
C8    C41   S    
C49   H25   S    
C29   H13   S    
C67   H23   S    
C57   H31   S    
C64   N6    A    
C25   C26   A    
C13   C24   S    
C60   C61   A    
C33   H17   S    
O2    S1    D    
C43   C44   A    
C62   C63   A    
N2    Ni3   S    
N7    Ni3   S    
C45   H51   S    
N5    Ni1   S    
C47   C48   A    
C64   H49   S    
N1    Ni1   S    
C73   H42   S    
C50   C51   A    
C26   C27   A    
O1    S1    D    
C36   H18   S    
C5    H55   S    
N9    Ni2   S    
C75   C77   A    
C62   H37   S    
C82   N12   A    
C77   H46   S    
C39   C46   A    
N8    N14   A    
C61   C72   S    
C48   C49   A    
C76   N7    A    
C51   H28   S    
N13   Ni1   S    
C22   C24   A    
C27   H11   S    
C1    H1    S    
C42   C43   A    
C30   S1    S    
N6    Ni4   S    
C70   C71   A    
C39   H20   S    
C5    C7    A    
C2    N13   A    
C15   C17   A    
C54   C55   D    
N1    N7    A    
C47   H22   S    
C18   H7    S    
C34   C52   A    
C2    C8    A    
C76   C81   A    
C23   C55   S    
C28   H27   S    
C16   C23   A    
C7    C19   S    
C2    H53   S    
H52   O3    S    
C75   H44   S    
C52   H48   S    
C32   C33   A    
C56   N9    A    
C9    C68   S    
C71   C72   A    
C12   C44   S    
N11   N12   A    
C59   C65   A    
C37   H19   S    
C63   H38   S    
C11   C13   A    
C57   C58   D    
C11   H3    S    
C5    N15   A    
C10   H2    S    
C33   C35   A    
C73   C80   A    
C32   H16   S    
C54   H29   S    
N10   Ni3   S    
N6    N16   A    
C69   C70   A    
N9    N15   A    
C43   H21   S    
C82   H45   S    
C10   C11   A    
C79   C80   A    
N3    Ni4   S    
C20   C21   A    
C8    C67   A    
C49   C50   A    
C9    C78   A    
C38   H14   S    
C67   N10   A    
C58   H32   S    
C14   C15   A    
C69   C80   S    
C28   N3    A    
C51   C53   A    
C21   C22   A    
C35   C46   S    
C26   H10   S    
C54   C57   S    
C78   N11   A    
C15   H6    S    
C71   C81   S    
C20   C31   S    
