data_mof_unit_2422.cif
_audit_creation_date              2012-10-26T21:05:41-0400
_audit_creation_method            fapswitch 2.2
_symmetry_space_group_name_H-M    P1
_symmetry_Int_Tables_number       1
_space_group_crystal_system       triclinic
_cell_length_a                    13.146204
_cell_length_b                    9.087078
_cell_length_c                    7.848193
_cell_angle_alpha                 89.987378
_cell_angle_beta                  93.246227
_cell_angle_gamma                 90.002749
_cell_volume                      936.045282804

loop_
_atom_site_label
_atom_site_type_symbol
_atom_type_description
_atom_site_fract_x
_atom_site_fract_y
_atom_site_fract_z
_atom_type_partial_charge
Br1   Br    Br    0.798753 0.651243 0.875133 -0.392398
Br2   Br    Br    0.200379 0.313754 0.152098 -0.283436
Br3   Br    Br    0.020458 0.648093 0.127388 -0.387910
Br4   Br    Br    0.988651 0.349020 0.876736 -0.284912
C1    C     C_R   0.500000 0.220296 0.500009 0.558333
C2    C     C_R   0.861300 0.545231 0.696308 0.182768
C3    C     C_R   0.130080 0.522818 0.603909 -0.017658
C4    C     C_R   0.870153 0.477213 0.397462 -0.010969
C5    C     C_R   0.023676 0.507931 0.582541 -0.047313
C6    C     C_R   0.976966 0.489442 0.418236 0.001097
C7    C     C_1   0.499981 0.065447 0.500009 0.002405
C8    C     C_1   0.499976 0.934556 0.499982 -0.000830
C9    C     C_2   0.824194 0.412988 0.237453 0.326692
C10   C     C_2   0.172809 0.593781 0.762622 0.316982
C11   C     C_R   0.499975 0.779705 0.499988 0.551785
C12   C     C_R   0.300894 0.495302 0.473167 0.557488
C13   C     C_R   0.699261 0.505031 0.527352 0.553970
C14   C     C_R   0.810972 0.512806 0.537865 -0.033032
C15   C     C_R   0.189596 0.485648 0.464631 -0.026530
C16   C     C_R   0.038487 0.484502 0.279224 0.248806
C17   C     C_R   0.963019 0.508583 0.722076 0.212386
C18   C     C_R   0.139615 0.445178 0.309264 0.195891
Cu1   Cu    Cu3+1 0.500010 0.500000 0.669080 1.146287
Cu2   Cu    Cu3+1 0.499990 0.500000 0.330920 1.118685
H1    H     H_    0.765328 0.470445 0.162413 0.177437
H2    H     H_    0.145861 0.702182 0.796541 0.145746
N1    N     N_1   0.499980 0.500000 0.076820 -0.050574
N2    N     N_1   0.500020 0.500000 0.923180 -0.037957
O1    O     O_R   0.500000 0.288400 0.642760 -0.494900
O2    O     O_2   0.232086 0.529198 0.861418 -0.395855
O3    O     O_R   0.500000 0.711600 0.357240 -0.497327
O4    O     O_R   0.500000 0.288400 0.357240 -0.490961
O5    O     O_R   0.500000 0.711600 0.642760 -0.493667
O6    O     O_R   0.349000 0.500000 0.619590 -0.468460
O7    O     O_R   0.651000 0.500000 0.380410 -0.544453
O8    O     O_R   0.348990 0.500000 0.334020 -0.462524
O9    O     O_R   0.651010 0.500000 0.665980 -0.462811
O10   O     O_2   0.851942 0.292450 0.189541 -0.412281

loop_
_geom_bond_atom_site_label_1
_geom_bond_atom_site_label_2
_ccdc_geom_bond_type
Br2   C18   S    
Cu1   Cu2   S    
Cu2   O4    S    
C11   O3    A    
C4    C9    S    
C5    C6    A    
C3    C15   A    
Cu2   N1    S    
C7    C8    T    
C1    O4    A    
C9    H1    S    
Cu1   O6    S    
C13   C14   S    
Cu2   O3    S    
Br3   C16   S    
C13   O9    A    
Cu1   N2    S    
C12   O8    A    
Br4   C17   S    
C5    C17   A    
C9    O10   D    
Cu2   O8    S    
C10   O2    D    
C12   C15   S    
Cu1   O1    S    
C16   C18   A    
C1    C7    S    
C8    C11   S    
C1    O1    A    
C2    C14   A    
C4    C14   A    
Cu2   O7    S    
Br1   C2    S    
C15   C18   A    
C4    C6    A    
N1    N2    T    
C3    C5    A    
C13   O7    A    
C12   O6    A    
Cu1   O9    S    
C2    C17   A    
C11   O5    A    
C3    C10   S    
C10   H2    S    
C6    C16   A    
Cu1   O5    S    
