data_mof_unit_1362.cif
_audit_creation_date              2013-03-05T15:41:40-0500
_audit_creation_method            fapswitch 2.2
_symmetry_space_group_name_H-M    P1
_symmetry_Int_Tables_number       1
_space_group_crystal_system       triclinic
_cell_length_a                    17.062955
_cell_length_b                    8.685237
_cell_length_c                    7.440747
_cell_angle_alpha                 103.145975
_cell_angle_beta                  89.286809
_cell_angle_gamma                 92.737986
_cell_volume                      1072.5630159

loop_
_atom_site_label
_atom_site_type_symbol
_atom_site_description
_atom_site_fract_x
_atom_site_fract_y
_atom_site_fract_z
_atom_type_partial_charge
O1    O     O_R   0.505650 0.286040 0.618880 -0.574275
O2    O     O_R   0.494350 0.713960 0.381120 -0.595611
O3    O     O_R   0.490960 0.256910 0.309800 -0.578270
O4    O     O_R   0.509040 0.743090 0.690200 -0.585682
C1    C     C_R   0.497634 0.199724 0.453541 0.942864
C2    C     C_R   0.502291 0.800280 0.546483 0.855083
O5    O     O_R   0.394600 0.516230 0.672450 -0.580358
O6    O     O_R   0.605400 0.483770 0.327550 -0.591732
O7    O     O_R   0.379910 0.487100 0.363380 -0.560071
O8    O     O_R   0.620090 0.512900 0.636620 -0.541050
C3    C     C_R   0.351090 0.504004 0.528041 0.892006
C4    C     C_R   0.649304 0.496950 0.471847 0.870341
Cu1   Cu    Cu3+1 0.508700 0.517250 0.683000 1.031937
Cu2   Cu    Cu3+1 0.491300 0.482750 0.317000 1.019292
C5    C     C_R   0.268048 0.531417 0.554128 -0.188325
C6    C     C_R   0.734509 0.506980 0.447931 -0.195780
C7    C     C_R   0.210156 0.409082 0.499611 0.347274
C8    C     C_R   0.785979 0.443257 0.556002 0.362643
C9    C     C_R   0.131628 0.449116 0.505196 -0.166110
C10   C     C_R   0.866669 0.472007 0.539336 -0.171146
C11   C     C_R   0.110640 0.607728 0.557610 -0.067094
C12   C     C_R   0.896729 0.562794 0.418127 -0.068787
C13   C     C_R   0.168895 0.729396 0.615134 0.423601
C14   C     C_R   0.845388 0.623973 0.307626 0.414608
C15   C     C_R   0.247142 0.688715 0.615556 -0.264820
C16   C     C_R   0.764712 0.593124 0.322170 -0.244720
C17   C     C_2   0.026591 0.641150 0.556537 0.214179
C18   C     C_2   0.982754 0.582824 0.402347 0.230523
H1    H     H_    0.906719 0.420772 0.618985 0.205673
H2    H     H_    0.086161 0.356241 0.466994 0.206974
C19   C     C_2   0.496392 0.031732 0.427514 -0.298505
C20   C     C_2   0.503375 0.968274 0.572565 -0.299140
N1    N     N_2   0.478180 0.456750 0.041980 -0.206296
N2    N     N_2   0.521820 0.543250 0.958020 -0.206789
N3    N     N_R   0.229660 0.245708 0.437652 0.148853
O9    O     O_R   0.181095 0.144626 0.333456 -0.234335
O10   O     O_R   0.293187 0.194205 0.494242 -0.364041
N4    N     N_R   0.757887 0.345274 0.677435 0.145001
O11   O     O_R   0.796278 0.345105 0.827443 -0.275463
O12   O     O_R   0.700636 0.240447 0.626647 -0.349878
H3    H     H_    0.724880 0.643859 0.241534 0.190692
H4    H     H_    0.292768 0.781417 0.653562 0.185222
N5    N     N_R   0.018657 0.524147 0.224449 0.151560
O13   O     O_R   0.980946 0.419047 0.098635 -0.254499
O14   O     O_R   0.084590 0.587867 0.180173 -0.269255
N6    N     N_R   0.991418 0.724091 0.726488 0.158428
O15   O     O_R   0.024842 0.727126 0.883477 -0.204892
O16   O     O_R   0.933069 0.814760 0.723697 -0.238955
N7    N     N_R   0.150506 0.893849 0.664804 0.175585
O17   O     O_R   0.095232 0.946855 0.579525 -0.236091
O18   O     O_R   0.195112 0.994871 0.779984 -0.267957
N8    N     N_R   0.873551 0.722508 0.186835 0.169035
O19   O     O_R   0.932485 0.823639 0.235355 -0.222968
O20   O     O_R   0.834143 0.726332 0.039395 -0.280049
H5    H     H_    0.489758 0.959946 0.287844 0.176328
H6    H     H_    0.509996 0.040068 0.712238 0.188183
H7    H     H_    0.438948 0.379491 0.958913 0.244532
H8    H     H_    0.561108 0.620402 0.041054 0.232525

loop_
_geom_bond_atom_site_label_1
_geom_bond_atom_site_label_2
_geom_bond_distance
_ccdc_geom_bond_type
C15   H4    1.084600 S    
C14   N8    1.439079 S    
N4    O12   1.301427 A    
O7    Cu2   1.928099 S    
O8    Cu1   1.928099 S    
N5    O14   1.301798 A    
C18   N5    1.445673 S    
C2    C20   1.426745 S    
C19   C20   1.327728 D    
O6    C4    1.297308 A    
C17   C18   1.361306 D    
C19   H5    1.087679 S    
Cu2   N1    2.021151 S    
C13   C15   1.397523 A    
N1    N2    1.287488 D    
C11   C17   1.477216 S    
Cu1   N2    2.021151 S    
C12   C18   1.476217 S    
Cu1   Cu2   2.689763 S    
O5    C3    1.295159 A    
O7    C3    1.294050 A    
O2    C2    1.291982 A    
O3    Cu2   1.949721 S    
O8    C4    1.298057 A    
O1    C1    1.291935 A    
C17   N6    1.444390 S    
C6    C8    1.410912 A    
C9    C11   1.406188 A    
N8    O20   1.301487 A    
C8    C10   1.396536 A    
C10   H1    1.084126 S    
C11   C13   1.411520 A    
N5    O13   1.301476 A    
C6    C16   1.403790 A    
N4    O11   1.301540 A    
O2    Cu2   1.953891 S    
N2    H8    1.029173 S    
N6    O16   1.301781 A    
C5    C15   1.400379 A    
C13   N7    1.440471 S    
C10   C12   1.404118 A    
O3    C1    1.285939 A    
O5    Cu1   1.948956 S    
C7    N3    1.442364 S    
O1    Cu1   1.953891 S    
N8    O19   1.301325 A    
N3    O10   1.302195 A    
O4    C2    1.285942 A    
N7    O17   1.301286 A    
C12   C14   1.409579 A    
O4    Cu1   1.949720 S    
C5    C7    1.408155 A    
N7    O18   1.301543 A    
N6    O15   1.300604 A    
N1    H7    1.029135 S    
O6    Cu2   1.948959 S    
C7    C9    1.398062 A    
C8    N4    1.438891 S    
C9    H2    1.083853 S    
C3    C5    1.451362 S    
C20   H6    1.087697 S    
C4    C6    1.463370 S    
C16   H3    1.084015 S    
C14   C16   1.397396 A    
C1    C19   1.426675 S    
N3    O9    1.302083 A    
