data_mof_unit_1379.cif
_audit_creation_date              2012-12-11T15:39:30-0500
_audit_creation_method            fapswitch 2.2
_symmetry_space_group_name_H-M    P1
_symmetry_Int_Tables_number       1
_space_group_crystal_system       triclinic
_cell_length_a                    17.364005
_cell_length_b                    24.262245
_cell_length_c                    15.123226
_cell_angle_alpha                 90.35011
_cell_angle_beta                  125.416268
_cell_angle_gamma                 89.020504
_cell_volume                      5191.52793986

loop_
_atom_site_label
_atom_site_type_symbol
_atom_type_description
_atom_site_fract_x
_atom_site_fract_y
_atom_site_fract_z
_atom_type_partial_charge
C1    C     C_R   0.358803 0.346345 0.909954 0.538351
C2    C     C_R   0.433959 0.500599 0.635773 0.083749
C3    C     C_R   0.187574 0.857581 0.001744 -0.114256
C4    C     C_R   0.963584 0.002844 0.288935 -0.096819
C5    C     C_R   0.933798 0.000646 0.635698 0.081862
C6    C     C_R   0.173877 0.501031 0.718237 -0.177741
C7    C     C_R   0.791786 0.498891 0.369864 -0.208124
C8    C     C_R   0.673882 0.000956 0.718425 -0.176833
C9    C     C_R   0.291689 0.998883 0.369960 -0.210700
C10   C     C_R   0.009777 0.527763 0.641492 0.068570
C11   C     C_R   0.915221 0.525869 0.557091 0.109732
C12   C     C_R   0.509720 0.027523 0.641862 0.053858
C13   C     C_R   0.686344 0.369101 0.091560 0.481403
C14   C     C_R   0.415150 0.025701 0.557411 0.108810
C15   C     C_R   0.076156 0.501437 0.631424 0.073448
C16   C     C_R   0.887457 0.498190 0.462107 0.018012
C17   C     C_R   0.576119 0.001329 0.631662 0.074061
C18   C     C_R   0.387381 0.998182 0.462257 0.017773
C19   C     C_R   0.049635 0.479900 0.531674 -0.094086
C20   C     C_R   0.955186 0.478132 0.447078 -0.122441
C21   C     C_R   0.549584 0.979944 0.531805 -0.090337
C22   C     C_R   0.455133 0.978227 0.447178 -0.112440
C23   C     C_3   0.886666 0.518396 0.632759 0.605428
C24   C     C_R   0.858572 0.846437 0.910034 0.531510
C25   C     C_3   0.992066 0.521805 0.726435 0.580625
C26   C     C_3   0.386587 0.018056 0.633046 0.599621
C27   C     C_3   0.492004 0.021321 0.726760 0.581309
C28   C     C_R   0.320785 0.781103 0.908746 0.420381
C29   C     C_R   0.819649 0.671478 0.004018 0.347548
C30   C     C_R   0.820651 0.281046 0.908693 0.407295
C31   C     C_R   0.209727 0.236898 0.998135 0.393319
C32   C     C_R   0.759547 0.321281 0.906585 0.355930
C33   C     C_R   0.263955 0.280392 0.003341 0.361951
C34   C     C_R   0.259763 0.821398 0.906667 0.351862
C35   C     C_R   0.186401 0.869159 0.091570 0.480109
C36   C     C_R   0.870026 0.715391 0.000755 0.452966
C37   C     C_R   0.767415 0.332055 0.003176 -0.143211
C38   C     C_R   0.340860 0.268468 0.998671 -0.202903
C39   C     C_R   0.267565 0.832141 0.003231 -0.146845
C40   C     C_R   0.839419 0.769371 0.999198 -0.200361
C41   C     C_R   0.447708 0.653860 0.090190 -0.117238
C42   C     C_R   0.598596 0.624145 0.909608 -0.181944
C43   C     C_R   0.947678 0.153852 0.090184 -0.112547
C44   C     C_R   0.098984 0.124014 0.909846 -0.167815
C45   C     C_R   0.856882 0.321114 0.100605 0.401654
C46   C     C_R   0.396099 0.689199 0.002159 0.045974
C47   C     C_R   0.367753 0.214326 0.994074 0.446093
C48   C     C_R   0.357011 0.821154 0.100668 0.400456
C49   C     C_R   0.757590 0.781063 0.994387 0.348509
C50   C     C_R   0.412763 0.777833 0.102742 0.321406
C51   C     C_R   0.705206 0.737941 0.991369 0.384810
C52   C     C_R   0.912660 0.277808 0.102713 0.315584
C53   C     C_R   0.316902 0.170848 0.995226 0.328350
C54   C     C_R   0.381053 0.750191 0.004914 -0.142437
C55   C     C_R   0.737049 0.683666 0.996875 -0.215256
C56   C     C_R   0.880992 0.250168 0.004889 -0.168048
C57   C     C_R   0.684679 0.639793 0.000059 0.196288
C58   C     C_R   0.239078 0.182723 0.998054 -0.210995
C59   C     C_R   0.529723 0.505684 0.569335 0.431106
C60   C     C_R   0.538873 0.506277 0.484226 0.396064
C61   C     C_R   0.029576 0.006225 0.569312 0.433316
C62   C     C_R   0.038796 0.006683 0.484254 0.394813
C63   C     C_R   0.455760 0.503553 0.377326 -0.226197
C64   C     C_R   0.439453 0.500940 0.545946 -0.154123
C65   C     C_R   0.955785 0.003494 0.377372 -0.235342
C66   C     C_R   0.939357 0.001020 0.545909 -0.156917
C67   C     C_R   0.365271 0.500422 0.354042 0.395702
C68   C     C_R   0.896067 0.189186 0.002141 0.049678
C69   C     C_R   0.357220 0.497105 0.440836 0.391188
C70   C     C_R   0.865324 0.999929 0.354040 0.407678
C71   C     C_R   0.857244 0.996676 0.440816 0.390972
C72   C     C_R   0.487684 0.455948 0.258056 0.447761
C73   C     C_R   0.446756 0.454813 0.695000 0.437727
C74   C     C_R   0.987845 0.955914 0.258202 0.457208
C75   C     C_R   0.946618 0.954840 0.694926 0.439358
C76   C     C_R   0.229623 0.546328 0.744968 0.413054
C77   C     C_R   0.748294 0.544809 0.307119 0.468008
C78   C     C_R   0.729597 0.046282 0.745097 0.413549
C79   C     C_R   0.185589 0.139127 0.000445 0.185879
C80   C     C_R   0.248212 0.044799 0.307188 0.471009
C81   C     C_R   0.489110 0.547614 0.256924 0.491163
C82   C     C_R   0.451571 0.545536 0.697730 0.452449
C83   C     C_R   0.989137 0.047589 0.256972 0.493610
C84   C     C_R   0.951501 0.045561 0.697731 0.457075
C85   C     C_R   0.231298 0.455049 0.748931 0.519772
C86   C     C_R   0.748976 0.453962 0.305436 0.504986
C87   C     C_R   0.731346 0.955000 0.749025 0.529087
C88   C     C_R   0.248926 0.953962 0.305472 0.505130
C89   C     C_R   0.365331 0.655955 0.912481 0.616624
C90   C     C_R   0.463478 0.502890 0.288827 -0.101148
C91   C     C_R   0.686941 0.627481 0.090370 0.505598
C92   C     C_R   0.865297 0.155942 0.912458 0.615865
C93   C     C_R   0.187238 0.127128 0.090473 0.524599
C94   C     C_R   0.450168 0.345558 0.089051 0.527285
C95   C     C_R   0.595659 0.368935 0.910348 0.512876
C96   C     C_R   0.949741 0.845733 0.089241 0.512833
C97   C     C_R   0.095758 0.869030 0.910360 0.512899
C98   C     C_R   0.391774 0.314517 0.999152 -0.072842
C99   C     C_R   0.687457 0.357486 0.001719 -0.116646
C100  C     C_R   0.890728 0.814934 0.999373 -0.058700
Cl1   Cl    Cl    0.332373 0.316018 0.789568 -0.370214
Cl2   Cl    Cl    0.465432 0.201271 0.988709 -0.352467
Cl3   Cl    Cl    0.408491 0.868938 0.208789 -0.485826
Cl4   Cl    Cl    0.719902 0.849904 0.991411 -0.466875
Cl5   Cl    Cl    0.528474 0.767227 0.220750 -0.402828
Cl6   Cl    Cl    0.600630 0.752216 0.983212 -0.466967
Cl7   Cl    Cl    0.028315 0.267189 0.220823 -0.431376
Cl8   Cl    Cl    0.349601 0.101868 0.992125 -0.468800
Cl9   Cl    Cl    0.494105 0.390911 0.311687 -0.461816
Cl10  Cl    Cl    0.375361 0.397468 0.629304 -0.396867
Cl11  Cl    Cl    0.995002 0.890932 0.312450 -0.446825
Cl12  Cl    Cl    0.740154 0.324339 0.204035 -0.394232
Cl13  Cl    Cl    0.875031 0.897551 0.629261 -0.393381
Cl14  Cl    Cl    0.182488 0.612035 0.689928 -0.497545
Cl15  Cl    Cl    0.739616 0.605318 0.365251 -0.462939
Cl16  Cl    Cl    0.682334 0.111992 0.690206 -0.491895
Cl17  Cl    Cl    0.239284 0.105233 0.365322 -0.463717
Cl18  Cl    Cl    0.550148 0.312975 0.201843 -0.378455
Cl19  Cl    Cl    0.536639 0.322668 0.801449 -0.385115
Cl20  Cl    Cl    0.049768 0.812844 0.201451 -0.375730
Cl21  Cl    Cl    0.036832 0.822950 0.801137 -0.398912
Cl22  Cl    Cl    0.832637 0.815702 0.790196 -0.375298
Cl23  Cl    Cl    0.240262 0.824411 0.204069 -0.406316
Cl24  Cl    Cl    0.832816 0.453231 0.617963 -0.569170
Cl25  Cl    Cl    0.027629 0.581778 0.810434 -0.491681
Cl26  Cl    Cl    0.332537 0.952913 0.617817 -0.548701
Cl27  Cl    Cl    0.527691 0.081098 0.811290 -0.415589
Cl28  Cl    Cl    0.908326 0.368914 0.208702 -0.506697
H1    H     H_    0.494734 0.666142 0.173072 0.254957
H2    H     H_    0.011445 0.470890 0.835285 0.367496
H3    H     H_    0.322127 0.056722 0.684837 0.375164
H4    H     H_    0.511362 0.970134 0.835246 0.386177
H5    H     H_    0.317408 0.812954 0.788790 0.363382
H6    H     H_    0.918649 0.615761 0.054357 0.349253
H7    H     H_    0.816951 0.312871 0.788494 0.354557
H8    H     H_    0.098928 0.281380 0.955995 0.354460
H9    H     H_    0.679728 0.331313 0.750248 0.380322
H10   H     H_    0.215114 0.335596 0.053569 0.363011
H11   H     H_    0.180168 0.831588 0.750362 0.378267
H12   H     H_    0.574162 0.631439 0.827028 0.184694
H13   H     H_    0.941851 0.671405 0.963449 0.357140
H14   H     H_    0.666281 0.512094 0.681949 0.394516
H15   H     H_    0.628932 0.503802 0.444289 0.360338
H16   H     H_    0.165969 0.013539 0.681877 0.400572
H17   H     H_    0.129027 0.003747 0.444646 0.359050
H18   H     H_    0.232823 0.517412 0.242718 0.343741
H19   H     H_    0.228987 0.469734 0.358168 0.356821
H20   H     H_    0.732653 0.016196 0.242413 0.355930
H21   H     H_    0.729457 0.968624 0.358433 0.365230
H22   H     H_    0.464043 0.604651 0.326813 0.348575
H23   H     H_    0.994681 0.166129 0.173069 0.255435
H24   H     H_    0.424302 0.620782 0.710136 0.322544
H25   H     H_    0.963961 0.104611 0.326785 0.350495
H26   H     H_    0.924703 0.120859 0.710492 0.319481
H27   H     H_    0.135373 0.400320 0.699609 0.354555
H28   H     H_    0.800830 0.400986 0.422194 0.377783
H29   H     H_    0.635558 0.900195 0.699782 0.360973
H30   H     H_    0.300735 0.900958 0.422179 0.378348
H31   H     H_    0.354008 0.646242 0.780214 0.324541
H32   H     H_    0.701730 0.668122 0.206260 0.381905
H33   H     H_    0.853810 0.146196 0.780080 0.323453
H34   H     H_    0.074774 0.131208 0.827308 0.180979
H35   H     H_    0.202676 0.167802 0.206656 0.377763
H36   H     H_    0.101711 0.463175 0.520464 0.195301
H37   H     H_    0.934822 0.460656 0.370357 0.193885
H38   H     H_    0.601663 0.963313 0.520512 0.195299
H39   H     H_    0.434783 0.960868 0.370378 0.194971
H40   H     H_    0.821993 0.557155 0.684177 0.363589
N1    N     N_R   0.394180 0.396910 0.943210 -0.140122
N2    N     N_R   0.474350 0.471570 0.793850 -0.139731
N3    N     N_R   0.025650 0.971570 0.206150 -0.135133
N4    N     N_R   0.974350 0.971570 0.793850 -0.139180
N5    N     N_R   0.319480 0.528420 0.793810 -0.153084
N6    N     N_R   0.680520 0.528420 0.206190 -0.148503
N7    N     N_R   0.819480 0.028420 0.793810 -0.153401
N8    N     N_R   0.180520 0.028420 0.206190 -0.148712
N9    N     N_R   0.525640 0.528390 0.206120 -0.115077
N10   N     N_R   0.474360 0.528390 0.793880 -0.155281
N11   N     N_R   0.025640 0.028390 0.206120 -0.116154
N12   N     N_R   0.605820 0.396910 0.056790 -0.134889
N13   N     N_R   0.974360 0.028390 0.793880 -0.155396
N14   N     N_R   0.319490 0.471590 0.793840 -0.101205
N15   N     N_R   0.680510 0.471590 0.206160 -0.122662
N16   N     N_R   0.819490 0.971590 0.793840 -0.102384
N17   N     N_R   0.180510 0.971590 0.206160 -0.121601
N18   N     N_R   0.394130 0.603080 0.943110 -0.144254
N19   N     N_R   0.605870 0.603080 0.056890 -0.118431
N20   N     N_R   0.894130 0.103080 0.943110 -0.143336
N21   N     N_R   0.105870 0.103080 0.056890 -0.122262
N22   N     N_R   0.450990 0.396900 0.056840 -0.145063
N23   N     N_R   0.894180 0.896910 0.943210 -0.136895
N24   N     N_R   0.549010 0.396900 0.943160 -0.145049
N25   N     N_R   0.950990 0.896900 0.056840 -0.142743
N26   N     N_R   0.049010 0.896900 0.943160 -0.143881
N27   N     N_R   0.105820 0.896910 0.056790 -0.133325
N28   N     N_R   0.450950 0.603070 0.056740 -0.086522
N29   N     N_R   0.549050 0.603070 0.943260 -0.098887
N30   N     N_R   0.950950 0.103070 0.056740 -0.086675
N31   N     N_R   0.049050 0.103070 0.943260 -0.103076
N32   N     N_R   0.525650 0.471570 0.206150 -0.133141
Ni1   Ni    Ni4+2 0.434860 0.434850 0.869700 0.333273
Ni2   Ni    Ni4+2 0.565140 0.434850 0.130300 0.332245
Ni3   Ni    Ni4+2 0.934860 0.934850 0.869700 0.337251
Ni4   Ni    Ni4+2 0.065140 0.934850 0.130300 0.336023
Ni5   Ni    Ni4+2 0.565130 0.565140 0.130240 0.276095
Ni6   Ni    Ni4+2 0.434870 0.565140 0.869760 0.223158
Ni7   Ni    Ni4+2 0.065130 0.065140 0.130240 0.275545
Ni8   Ni    Ni4+2 0.934870 0.065140 0.869760 0.221679
O1    O     O_3   0.832050 0.563356 0.626803 -0.610160
O2    O     O_3   0.244763 0.334660 0.013975 -0.715293
O3    O     O_3   0.198680 0.853104 0.815622 -0.665816
O4    O     O_3   0.947376 0.707452 0.997549 -0.641068
O5    O     O_3   0.607186 0.508533 0.676918 -0.713542
O6    O     O_3   0.628899 0.510029 0.508753 -0.661643
O7    O     O_3   0.106945 0.009563 0.676866 -0.703936
O8    O     O_3   0.128771 0.010779 0.508762 -0.660289
O9    O     O_3   0.287665 0.501433 0.246833 -0.687812
O10   O     O_3   0.272003 0.489802 0.426804 -0.675462
O11   O     O_3   0.787764 0.000469 0.246795 -0.661486
O12   O     O_3   0.031614 0.472745 0.785996 -0.715810
O13   O     O_3   0.772106 0.988992 0.426780 -0.668128
O14   O     O_3   0.496247 0.601259 0.290249 -0.690110
O15   O     O_3   0.423255 0.597891 0.655620 -0.686667
O16   O     O_3   0.996159 0.101242 0.290210 -0.687194
O17   O     O_3   0.923316 0.097951 0.655770 -0.686097
O18   O     O_3   0.202427 0.401438 0.725528 -0.670183
O19   O     O_3   0.748596 0.402881 0.343852 -0.604122
O20   O     O_3   0.702558 0.901375 0.725507 -0.665130
O21   O     O_3   0.248498 0.902876 0.343840 -0.604653
O22   O     O_3   0.346024 0.676742 0.817616 -0.606802
O23   O     O_3   0.332107 0.063010 0.627422 -0.603532
O24   O     O_3   0.744441 0.653379 0.188036 -0.668334
O25   O     O_3   0.845920 0.176711 0.817543 -0.615195
O26   O     O_3   0.245173 0.152737 0.188379 -0.668836
O27   O     O_3   0.531453 0.972135 0.785897 -0.688765
O28   O     O_3   0.332193 0.776870 0.826038 -0.586266
O29   O     O_3   0.849198 0.617077 0.015996 -0.701222
O30   O     O_3   0.832053 0.276836 0.825975 -0.614171
O31   O     O_3   0.127887 0.245552 0.992284 -0.705615
O32   O     O_3   0.698289 0.352895 0.815457 -0.673827

loop_
_geom_bond_atom_site_label_1
_geom_bond_atom_site_label_2
_ccdc_geom_bond_type
C23   O1    S    
C36   O4    S    
H27   O18   S    
C13   C99   A    
C77   N6    A    
C71   O13   S    
N14   Ni1   S    
C89   N18   A    
C14   C18   A    
C19   C20   A    
C50   C54   A    
C38   C98   S    
C49   Cl4   S    
N23   N25   A    
C97   Cl21  S    
N8    N17   A    
C46   C89   A    
C88   N17   A    
C41   H1    S    
C15   C19   A    
C20   H37   S    
C29   C36   A    
C26   C27   S    
C85   N14   A    
C6    C85   A    
H21   O13   S    
N2    N10   A    
C60   C63   A    
C33   C38   A    
N1    N22   A    
N8    Ni7   S    
N18   N28   A    
C76   N5    A    
C79   C93   A    
C13   Cl12  S    
N12   Ni2   S    
C10   C15   A    
C9    C88   A    
C4    C65   S    
C95   C99   A    
C7    C86   A    
C73   Cl10  S    
C94   C98   A    
C45   Cl28  S    
C40   C49   A    
C96   C100  A    
C92   O25   S    
N28   Ni5   S    
C42   C57   A    
C26   Cl26  S    
C11   C23   S    
N3    Ni4   S    
C60   O6    S    
N2    Ni1   S    
C25   Cl25  S    
H29   O20   S    
C6    C15   S    
C80   Cl17  S    
H18   O9    S    
C27   Cl27  S    
N4    N13   A    
N20   Ni8   S    
C52   Cl7   S    
C43   C68   A    
C49   C51   A    
N9    N32   A    
C12   C17   A    
N6    Ni5   S    
C76   Cl14  S    
C41   C46   A    
H32   O24   S    
N5    Ni6   S    
C75   Cl13  S    
N20   N30   A    
C89   O22   S    
C43   N30   A    
C4    C74   A    
C35   N27   A    
C47   C53   A    
N21   N31   A    
C48   C50   A    
C88   O21   S    
C28   C34   A    
C59   C60   A    
C47   Cl2   S    
C18   C22   A    
C21   C22   A    
C8    C78   A    
C86   O19   S    
H22   O14   S    
N3    N11   A    
N29   Ni6   S    
N23   Ni3   S    
N7    Ni8   S    
C30   O30   S    
C84   O17   S    
C61   C66   A    
H30   O21   S    
C29   O29   S    
H20   O11   S    
C2    C64   S    
C63   C67   A    
C42   N29   A    
N11   Ni7   S    
N18   Ni6   S    
H26   O17   S    
C42   H12   S    
C69   O10   S    
H31   O22   S    
C67   O9    S    
N13   Ni8   S    
C80   N8    A    
H25   O16   S    
N12   N24   A    
C87   N16   A    
C5    C84   A    
C28   C54   A    
N22   Ni2   S    
C82   O15   S    
C12   C27   S    
C45   C52   A    
C95   Cl19  S    
C64   C69   A    
C48   Cl3   S    
C30   C56   A    
H10   O2    S    
C17   C21   A    
C21   H38   S    
C34   C39   A    
C67   C69   A    
H5    O28   S    
C97   N26   A    
C5    C75   A    
N4    Ni3   S    
C31   C58   A    
C94   N22   A    
C81   O14   S    
C72   N32   A    
H17   O8    S    
C72   C90   A    
C33   O2    S    
C3    C97   A    
C66   C71   A    
C50   Cl5   S    
C3    C35   A    
N24   Ni1   S    
C46   C54   S    
C31   C33   A    
C74   N3    A    
C16   C20   A    
C32   C37   A    
C14   C26   S    
H2    O12   S    
N25   Ni4   S    
H13   O4    S    
C38   C47   A    
C70   C71   A    
C2    C73   A    
C95   N24   A    
C28   O28   S    
H15   O6    S    
C81   C90   A    
C58   C79   S    
C10   C25   S    
C7    C16   S    
N19   N29   A    
N5    N14   A    
C93   N21   A    
C10   C11   A    
C55   C57   S    
H35   O26   S    
C78   N7    A    
C26   O23   S    
H6    O29   S    
C2    C82   A    
C83   O16   S    
C37   C45   A    
C1    Cl1   S    
N1    Ni1   S    
C37   C99   S    
C36   C40   A    
C43   H23   S    
H28   O19   S    
H3    O23   S    
C74   Cl11  S    
C31   O31   S    
C72   Cl9   S    
C84   N13   A    
C57   C91   A    
C62   C65   A    
N30   Ni7   S    
C24   C100  A    
N15   Ni2   S    
C62   O8    S    
H40   O1    S    
C96   Cl20  S    
C44   C79   A    
C78   Cl16  S    
C8    C17   S    
H14   O5    S    
C12   C14   A    
C5    C66   S    
C59   C64   A    
C1    C98   A    
C40   C100  S    
H16   O7    S    
C32   O32   S    
C53   C58   A    
C59   O5    S    
C6    C76   A    
C23   Cl24  S    
N27   Ni4   S    
C27   O27   S    
C93   O26   S    
C41   N28   A    
C13   N12   A    
C29   C55   A    
C24   Cl22  S    
H24   O15   S    
C83   N11   A    
C70   O11   S    
H7    O30   S    
C7    C77   A    
C91   O24   S    
C8    C87   A    
H11   O3    S    
H9    O32   S    
C35   Cl23  S    
C81   N9    A    
C44   H34   S    
H19   O10   S    
C56   C68   S    
C30   C32   A    
C94   Cl18  S    
C53   Cl8   S    
C86   N15   A    
C4    C83   A    
C52   C56   A    
N21   Ni7   S    
C51   Cl6   S    
N26   Ni3   S    
N10   Ni6   S    
C63   C90   S    
C1    N1    A    
N31   Ni8   S    
C68   C92   A    
N9    Ni5   S    
N19   Ni5   S    
N26   N27   A    
C24   N23   A    
C51   C55   A    
C19   H36   S    
C23   C25   S    
C61   C62   A    
H4    O27   S    
C11   C16   A    
C34   O3    S    
C3    C39   S    
C96   N25   A    
C9    C18   S    
H33   O25   S    
C44   N31   A    
N32   Ni2   S    
C87   O20   S    
H8    O31   S    
N17   Ni4   S    
C75   N4    A    
N16   Ni3   S    
N7    N16   A    
C25   O12   S    
C85   O18   S    
C61   O7    S    
C73   N2    A    
C77   Cl15  S    
N6    N15   A    
C91   N19   A    
C82   N10   A    
C9    C80   A    
C92   N20   A    
C65   C70   A    
C39   C48   A    
C22   H39   S    
