data_mof_unit_3009.cif
_audit_creation_date              2012-10-26T19:03:56-0400
_audit_creation_method            fapswitch 2.2
_symmetry_space_group_name_H-M    P1
_symmetry_Int_Tables_number       1
_space_group_crystal_system       triclinic
_cell_length_a                    15.885057
_cell_length_b                    12.970952
_cell_length_c                    11.664221
_cell_angle_alpha                 99.847683
_cell_angle_beta                  93.78925
_cell_angle_gamma                 90.415494
_cell_volume                      2362.337835

loop_
_atom_site_label
_atom_site_type_symbol
_atom_type_description
_atom_site_fract_x
_atom_site_fract_y
_atom_site_fract_z
_atom_type_partial_charge
C1    C     C_R   0.499234 0.299149 0.478628 0.546061
C2    C     C_R   0.500409 0.185967 0.466581 0.007628
C3    C     C_R   0.536775 0.017341 0.360281 -0.131137
C4    C     C_R   0.340220 0.500154 0.500349 0.544705
C5    C     C_R   0.531466 0.125203 0.367702 -0.131800
C6    C     C_R   0.472275 0.138556 0.556308 -0.126187
C7    C     C_R   0.476028 0.030548 0.548607 0.034353
C8    C     C_R   0.509724 0.969790 0.450873 0.044179
C9    C     C_R   0.516356 0.862626 0.445377 -0.133613
C10   C     C_R   0.449465 0.873994 0.630729 -0.011652
C11   C     C_R   0.446195 0.983003 0.637192 -0.111180
C12   C     C_3   0.955293 0.432337 0.603728 0.182586
C13   C     C_R   0.419752 0.402592 0.021869 -0.171108
C14   C     C_R   0.427816 0.411675 0.144070 0.061196
C15   C     C_R   0.534499 0.542546 0.157073 0.055131
C16   C     C_R   0.496829 0.700850 0.521670 0.538767
C17   C     C_R   0.528681 0.535986 0.034239 0.008254
C18   C     C_R   0.470559 0.464886 0.965823 0.006536
C19   C     C_R   0.465027 0.458000 0.842961 0.048823
C20   C     C_R   0.571713 0.588889 0.855986 0.061107
C21   C     C_R   0.579360 0.598455 0.978220 -0.162552
C22   C     C_R   0.659880 0.500054 0.499790 0.559422
C23   C     C_3   0.917556 0.495793 0.508980 -0.006433
C24   C     C_3   0.055769 0.421554 0.595904 0.008891
C25   C     C_3   0.041487 0.451952 0.379578 0.118156
C26   C     C_3   0.944300 0.443594 0.386717 -0.234758
C27   C     C_1   0.749471 0.498903 0.500288 0.023846
C28   C     C_3   0.083495 0.494789 0.505354 0.039379
C29   C     C_3   0.112786 0.441689 0.715700 -0.189482
C30   C     C_3   0.134560 0.552892 0.781175 -0.295670
C31   C     C_3   0.180402 0.550092 0.900053 -0.421943
C32   C     C_3   0.410576 0.820495 0.722243 -0.234207
C33   C     C_3   0.352823 0.887906 0.804363 -0.323836
C34   C     C_3   0.953380 0.608980 0.533729 -0.215300
C35   C     C_3   0.309549 0.822022 0.880887 -0.445982
C36   C     C_3   0.072466 0.302561 0.542825 -0.302676
C37   C     C_3   0.062361 0.222535 0.625515 -0.307082
C38   C     C_3   0.060741 0.110290 0.558992 -0.441980
C39   C     C_3   0.050586 0.608499 0.539551 -0.204895
C40   C     C_1   0.825102 0.497550 0.503949 -0.006483
C41   C     C_1   0.175522 0.497816 0.502023 -0.024687
C42   C     C_1   0.250872 0.499287 0.500962 -0.007512
C43   C     C_R   0.488060 0.814322 0.534624 0.005334
Cu1   Cu    Cu3+1 0.506190 0.507730 0.615930 0.946543
Cu2   Cu    Cu3+1 0.493810 0.492270 0.384070 0.954846
H1    H     H_    0.925912 0.353083 0.576701 0.112914
H2    H     H_    0.374218 0.347233 0.971748 0.080957
H3    H     H_    0.624612 0.654161 0.028372 0.097876
H4    H     H_    0.388418 0.363293 0.186375 0.130655
H5    H     H_    0.578957 0.597093 0.210556 0.116387
H6    H     H_    0.065840 0.373231 0.347236 0.091846
H7    H     H_    0.923769 0.359890 0.368516 0.078843
H8    H     H_    0.910481 0.480333 0.317826 0.199285
H9    H     H_    0.074839 0.648730 0.625858 0.103461
H10   H     H_    0.073711 0.659734 0.480839 0.191513
H11   H     H_    0.931153 0.653552 0.615446 0.193990
H12   H     H_    0.929743 0.651477 0.463219 0.151102
H13   H     H_    0.139489 0.512944 0.955698 0.226571
H14   H     H_    0.239786 0.505744 0.889371 0.138907
H15   H     H_    0.196424 0.631130 0.944801 0.163391
H16   H     H_    0.177862 0.592695 0.731146 0.139755
H17   H     H_    0.077453 0.599285 0.796380 0.243082
H18   H     H_    0.087350 0.396780 0.778137 0.203565
H19   H     H_    0.175261 0.406018 0.698443 0.116690
H20   H     H_    0.906966 0.607788 0.880119 0.388199
H21   H     H_    0.268809 0.760207 0.825988 0.150827
H22   H     H_    0.357293 0.784796 0.933808 0.161098
H23   H     H_    0.544250 0.816522 0.371319 0.115705
H24   H     H_    0.269483 0.872710 0.940763 0.154034
H25   H     H_    0.390648 0.950867 0.862337 0.158125
H26   H     H_    0.303400 0.923689 0.752482 0.164669
H27   H     H_    0.371911 0.752348 0.675611 0.167290
H28   H     H_    0.462296 0.791488 0.776574 0.166803
H29   H     H_    0.005352 0.096970 0.494614 0.161272
H30   H     H_    0.119481 0.094442 0.512825 0.157931
H31   H     H_    0.056068 0.054806 0.621115 0.152068
H32   H     H_    0.116315 0.230008 0.692171 0.151402
H33   H     H_    0.003119 0.235781 0.670857 0.203545
H34   H     H_    0.562310 0.971349 0.284370 0.107059
H35   H     H_    0.028338 0.275535 0.465802 0.127773
H36   H     H_    0.137229 0.294968 0.511848 0.142372
H37   H     H_    0.078615 0.390731 0.128979 0.331757
H38   H     H_    0.419925 0.032015 0.710198 0.098685
H39   H     H_    0.553522 0.161354 0.297800 0.131825
H40   H     H_    0.447101 0.185791 0.631874 0.108072
H41   H     H_    0.420503 0.403541 0.789464 0.108745
H42   H     H_    0.611034 0.637357 0.813680 0.138632
N1    N     N_R   0.515490 0.519350 0.790130 -0.229343
N2    N     N_R   0.484510 0.480650 0.209890 -0.227969
O1    O     O_R   0.504390 0.354460 0.582000 -0.500079
O2    O     O_2   0.950168 0.405900 0.832472 -0.285090
O3    O     O_3   0.929877 0.598032 0.802106 -0.568335
O4    O     O_2   0.017811 0.623946 0.273774 -0.271882
O5    O     O_2   0.159141 0.550241 0.270974 -0.291610
O6    O     O_3   0.038899 0.449634 0.135560 -0.481574
O7    O     O_R   0.493940 0.341410 0.386200 -0.511846
O8    O     O_R   0.384660 0.506540 0.597940 -0.522933
O9    O     O_R   0.374210 0.493480 0.402140 -0.475236
O10   O     O_R   0.506060 0.658590 0.613800 -0.524499
O11   O     O_R   0.495610 0.645540 0.418000 -0.504013
O12   O     O_R   0.625790 0.506520 0.597860 -0.464009
O13   O     O_R   0.615340 0.493460 0.402060 -0.509246
O14   O     O_2   0.819840 0.449945 0.734968 -0.267599
S1    S     S_3+6 0.913495 0.470612 0.746987 -0.022806
S2    S     S_3+6 0.066442 0.524285 0.265417 -0.024202

loop_
_geom_bond_atom_site_label_1
_geom_bond_atom_site_label_2
_ccdc_geom_bond_type
H20   O3    S    
C29   H18   S    
O5    S2    D    
C34   H11   S    
C1    O1    A    
C4    O9    A    
C41   C42   T    
O2    S1    D    
C19   H41   S    
C3    H34   S    
C25   S2    S    
C7    C8    A    
C32   H27   S    
C38   H31   S    
C25   C28   S    
C7    C11   A    
C12   C23   S    
C24   C36   S    
C22   O12   A    
C13   C18   A    
C31   H13   S    
C36   C37   S    
C37   C38   S    
C12   S1    S    
Cu2   O9    S    
C30   C31   S    
Cu1   O10   S    
C15   H5    S    
C39   H9    S    
C23   C40   S    
C20   H42   S    
C28   C41   S    
C1    C2    S    
C23   C26   S    
C31   H14   S    
C24   C29   S    
O6    S2    S    
O4    S2    D    
C39   H10   S    
C8    C9    A    
C34   H12   S    
C13   C14   A    
Cu2   N2    S    
C36   H36   S    
C21   H3    S    
C29   H19   S    
C4    O8    A    
C2    C6    A    
C38   H30   S    
C9    C43   A    
C34   C39   S    
C12   H1    S    
C19   N1    A    
C36   H35   S    
C32   H28   S    
C13   H2    S    
C5    H39   S    
O3    S1    S    
C18   C19   A    
C35   H21   S    
C11   H38   S    
C25   C26   S    
C37   H32   S    
C17   C21   A    
C31   H15   S    
C25   H6    S    
C14   N2    A    
C29   C30   S    
C26   H7    S    
C15   N2    A    
Cu1   O8    S    
C35   H22   S    
C27   C40   T    
C23   C34   S    
C17   C18   A    
C6    H40   S    
C16   C43   S    
C33   H25   S    
C3    C8    A    
C22   C27   S    
C30   H17   S    
C2    C5    A    
C28   C39   S    
C26   H8    S    
Cu1   O1    S    
Cu1   Cu2   S    
C38   H29   S    
C15   C17   A    
H37   O6    S    
C10   C43   A    
Cu2   O13   S    
C16   O11   A    
C24   C28   S    
C3    C5    A    
Cu2   O11   S    
Cu1   O12   S    
C16   O10   A    
C6    C7    A    
C37   H33   S    
C12   C24   S    
C22   O13   A    
C32   C33   S    
C9    H23   S    
C4    C42   S    
C1    O7    A    
C20   N1    A    
C33   C35   S    
C10   C11   A    
C33   H26   S    
C14   H4    S    
C10   C32   S    
C20   C21   A    
C35   H24   S    
C30   H16   S    
O14   S1    D    
Cu1   N1    S    
Cu2   O7    S    
