data_mof_unit_2828.cif
_audit_creation_date              2012-12-11T14:34:06-0500
_audit_creation_method            fapswitch 2.2
_symmetry_space_group_name_H-M    P1
_symmetry_Int_Tables_number       1
_space_group_crystal_system       triclinic
_cell_length_a                    13.999485
_cell_length_b                    14.069572
_cell_length_c                    27.278496
_cell_angle_alpha                 90.2684
_cell_angle_beta                  89.691007
_cell_angle_gamma                 120.252277
_cell_volume                      4641.16394958

loop_
_atom_site_label
_atom_site_type_symbol
_atom_type_description
_atom_site_fract_x
_atom_site_fract_y
_atom_site_fract_z
_atom_type_partial_charge
C1    C     C_R   0.233288 0.787714 0.568576 0.548839
C2    C     C_1   0.702783 0.860647 0.861110 0.004550
C3    C     C_1   0.140101 0.843562 0.860707 0.006904
C4    C     C_1   0.159293 0.294106 0.860583 0.019508
C5    C     C_1   0.626452 0.813676 0.659159 0.064839
C6    C     C_1   0.177491 0.817500 0.657207 0.062548
C7    C     C_1   0.188800 0.373169 0.659004 0.063733
C8    C     C_1   0.599788 0.796321 0.616743 0.092784
C9    C     C_1   0.198225 0.806787 0.615268 0.094670
C10   C     C_1   0.196361 0.400279 0.616739 0.087496
C11   C     C_R   0.068723 0.156797 0.096642 0.532775
C12   C     C_R   0.212791 0.447717 0.569012 0.544160
C13   C     C_R   0.775676 0.883409 0.087346 0.572103
C14   C     C_R   0.086497 0.932125 0.096564 0.540858
C15   C     C_R   0.107488 0.219996 0.950846 0.588024
C16   C     C_R   0.779715 0.886598 0.950990 0.567264
C17   C     C_R   0.113849 0.892407 0.951183 0.584012
C18   C     C_R   0.635673 0.904388 0.362752 0.245667
C19   C     C_R   0.078458 0.750659 0.372467 0.246094
C20   C     C_R   0.260072 0.341840 0.370155 0.245299
C21   C     C_R   0.643651 0.913812 0.310862 0.025975
C22   C     C_R   0.053400 0.766192 0.323645 0.028532
C23   C     C_R   0.552369 0.765447 0.568940 0.547046
C24   C     C_R   0.247965 0.310068 0.320256 0.029585
C25   C     C_R   0.667937 0.927194 0.207158 -0.019001
C26   C     C_R   0.020670 0.800118 0.223674 -0.007697
C27   C     C_R   0.217378 0.257590 0.218898 -0.013247
C28   C     C_R   0.231505 0.789304 0.432667 0.561505
C29   C     C_R   0.210377 0.441377 0.433009 0.557792
C30   C     C_R   0.555843 0.767395 0.431716 0.560926
C31   C     C_R   0.652048 0.004086 0.233245 -0.096779
C32   C     C_R   0.940695 0.707997 0.249467 -0.077582
C33   C     C_R   0.320164 0.294211 0.241152 -0.094272
C34   C     C_3   0.779305 0.852928 0.780846 -0.174691
C35   C     C_R   0.639685 0.998527 0.284173 0.228532
C36   C     C_R   0.955644 0.689614 0.298285 0.241570
C37   C     C_R   0.335767 0.317347 0.291074 0.234469
C38   C     C_R   0.693338 0.939329 0.156564 0.193336
C39   C     C_R   0.009275 0.813592 0.173135 0.215286
C40   C     C_R   0.202797 0.236395 0.168142 0.203721
C41   C     C_R   0.711814 0.860645 0.132858 0.015021
C42   C     C_R   0.092321 0.908422 0.148617 0.003423
C43   C     C_R   0.095212 0.191510 0.147919 0.005491
C44   C     C_R   0.632083 0.729899 0.358212 -0.133520
C45   C     C_3   0.259566 0.933735 0.788349 -0.174913
C46   C     C_R   0.258654 0.916975 0.366278 -0.134377
C47   C     C_R   0.077403 0.322282 0.370326 -0.136107
C48   C     C_R   0.648273 0.741078 0.308191 -0.001102
C49   C     C_R   0.233231 0.938602 0.320515 0.001883
C50   C     C_R   0.057066 0.274868 0.324165 0.003918
C51   C     C_R   0.650907 0.830884 0.283944 -0.011521
C52   C     C_R   0.133333 0.861329 0.297806 -0.011254
C53   C     C_R   0.144310 0.275549 0.297577 -0.009120
C54   C     C_R   0.654164 0.658703 0.281846 -0.078253
C55   C     C_R   0.311728 0.032808 0.295697 -0.066120
C56   C     C_3   0.293547 0.385002 0.791198 -0.194881
C57   C     C_R   0.953259 0.235730 0.302698 -0.074610
C58   C     C_R   0.661369 0.663511 0.231252 -0.096122
C59   C     C_R   0.294900 0.048524 0.247258 -0.096801
C60   C     C_R   0.936274 0.200562 0.254295 -0.093908
C61   C     C_R   0.666920 0.752984 0.206665 0.012773
C62   C     C_R   0.198287 0.971765 0.223493 0.006883
C63   C     C_R   0.023159 0.206134 0.226592 0.013668
C64   C     C_3   0.551750 0.727165 0.740558 0.113115
C65   C     C_3   0.155497 0.721177 0.736142 0.105927
C66   C     C_3   0.116744 0.225803 0.723124 0.118735
C67   C     C_3   0.758004 0.833257 0.724969 0.066835
C68   C     C_R   0.661755 0.837189 0.232620 0.018747
C69   C     C_R   0.116305 0.878416 0.248547 0.020534
C70   C     C_R   0.127989 0.244698 0.247847 0.023945
C71   C     C_R   0.685125 0.762604 0.156704 -0.126353
C72   C     C_R   0.184819 0.986288 0.174473 -0.164273
C73   C     C_R   0.006935 0.176091 0.177547 -0.163565
C74   C     C_R   0.616336 0.805641 0.385021 -0.000681
C75   C     C_R   0.186401 0.819619 0.390759 -0.003949
C76   C     C_R   0.181410 0.364035 0.391775 -0.004129
C77   C     C_3   0.654749 0.935108 0.730710 -0.182850
C78   C     C_3   0.265771 0.931261 0.731569 0.097452
C79   C     C_3   0.060640 0.831363 0.724163 -0.192657
C80   C     C_3   0.125233 0.407776 0.737908 -0.181073
C81   C     C_3   0.662841 0.943075 0.787642 0.122323
C82   C     C_3   0.050302 0.834418 0.781039 0.106897
C83   C     C_3   0.110256 0.380805 0.793468 0.128150
C84   C     C_1   0.731894 0.871194 0.903243 0.046819
C85   C     C_1   0.129468 0.860494 0.903183 0.048930
C86   C     C_1   0.140433 0.265930 0.902816 0.054613
C87   C     C_3   0.646953 0.826626 0.712340 0.027192
C88   C     C_3   0.164650 0.824827 0.710668 0.014899
C89   C     C_3   0.300906 0.401530 0.734514 0.067814
C90   C     C_3   0.182656 0.351134 0.711989 0.016296
C91   C     C_3   0.575363 0.737937 0.796531 -0.225570
C92   C     C_3   0.148385 0.728573 0.792805 -0.203190
C93   C     C_3   0.116256 0.207509 0.779195 -0.207080
C94   C     C_3   0.680085 0.849491 0.808050 -0.016795
C95   C     C_3   0.149427 0.835088 0.807133 -0.013548
C96   C     C_3   0.170739 0.317971 0.807665 -0.016256
Cl1   Cl    Cl    0.704199 0.052330 0.123364 -0.582031
Cl2   Cl    Cl    0.420184 0.714358 0.728917 -0.687625
Cl3   Cl    Cl    0.039449 0.595951 0.713814 -0.580205
Cl4   Cl    Cl    0.978038 0.160633 0.699962 -0.608707
Cl5   Cl    Cl    0.770197 0.077675 0.806061 -0.561817
Cl6   Cl    Cl    0.041651 0.951260 0.799538 -0.755118
Cl7   Cl    Cl    0.157173 0.503519 0.829225 -0.625435
Cl8   Cl    Cl    0.760973 0.712384 0.705935 -0.581773
Cl9   Cl    Cl    0.395464 0.947743 0.712281 -0.577759
Cl10  Cl    Cl    0.379622 0.346428 0.707038 -0.555515
Cl11  Cl    Cl    0.896286 0.707290 0.140720 -0.596369
Cl12  Cl    Cl    0.321054 0.274758 0.130615 -0.580111
Cl13  Cl    Cl    0.666013 0.017626 0.401421 -0.463048
Cl14  Cl    Cl    0.976022 0.658252 0.413851 -0.437694
Cl15  Cl    Cl    0.359738 0.337094 0.408300 -0.441157
Cl16  Cl    Cl    0.608308 0.094915 0.309867 -0.504812
Cl17  Cl    Cl    0.852761 0.561013 0.321257 -0.451765
Cl18  Cl    Cl    0.472482 0.368006 0.311355 -0.500449
Cr1   Cr    Cr6+3 0.164410 0.584450 0.499910 1.148771
Cr2   Cr    Cr6+3 0.415550 0.579960 0.499910 1.154454
Cr3   Cr    Cr6+3 0.420040 0.835590 0.499910 1.146707
Cr4   Cr    Cr6+3 0.155170 0.075460 0.019960 1.115926
Cr5   Cr    Cr6+3 0.924540 0.079710 0.019960 1.127745
Cr6   Cr    Cr6+3 0.920290 0.844830 0.019960 1.115527
H1    H     H_    0.503686 0.730494 0.817662 0.180810
H2    H     H_    0.650123 0.070550 0.214359 0.214183
H3    H     H_    0.866269 0.646408 0.231525 0.201730
H4    H     H_    0.390562 0.305211 0.220016 0.205784
H5    H     H_    0.690266 0.697888 0.137319 0.196564
H6    H     H_    0.249129 0.057899 0.155834 0.187494
H7    H     H_    0.925258 0.142816 0.161853 0.171531
H8    H     H_    0.665889 0.598888 0.211462 0.169296
H9    H     H_    0.359100 0.119050 0.227908 0.156236
H10   H     H_    0.856860 0.174195 0.237751 0.150301
H11   H     H_    0.652258 0.589967 0.300426 0.219937
H12   H     H_    0.072121 0.656324 0.807423 0.217492
H13   H     H_    0.388278 0.092298 0.313189 0.212553
H14   H     H_    0.886076 0.235066 0.322944 0.195671
H15   H     H_    0.622957 0.656545 0.375587 0.201738
H16   H     H_    0.339184 0.974097 0.381433 0.198215
H17   H     H_    0.013459 0.331579 0.388493 0.185527
H18   H     H_    0.727915 0.006391 0.713584 0.209995
H19   H     H_    0.065663 0.905387 0.707018 0.172646
H20   H     H_    0.176146 0.498202 0.732233 0.208784
H21   H     H_    0.582044 0.939721 0.718586 0.234184
H22   H     H_    0.985467 0.759285 0.709035 0.229404
H23   H     H_    0.030485 0.152675 0.792787 0.230034
H24   H     H_    0.043142 0.380977 0.721237 0.223520
H25   H     H_    0.584111 0.932779 0.802690 0.186672
H26   H     H_    0.971846 0.760495 0.792790 0.184380
H27   H     H_    0.020379 0.327643 0.801419 0.214546
H28   H     H_    0.826520 0.903404 0.704897 0.197649
H29   H     H_    0.264080 0.004140 0.716905 0.178786
H30   H     H_    0.347634 0.490998 0.726799 0.192368
H31   H     H_    0.798630 0.792091 0.797018 0.192963
H32   H     H_    0.330225 0.930624 0.805151 0.174909
H33   H     H_    0.337720 0.341614 0.802709 0.175397
H34   H     H_    0.544864 0.649082 0.727361 0.212955
H35   H     H_    0.851802 0.936129 0.786218 0.229545
H36   H     H_    0.267107 0.012992 0.800230 0.175128
H37   H     H_    0.335567 0.466584 0.809750 0.173678
H38   H     H_    0.229699 0.715993 0.726896 0.240977
H39   H     H_    0.156778 0.184426 0.704397 0.202387
H40   H     H_    0.587561 0.669337 0.808649 0.138940
H41   H     H_    0.220204 0.728221 0.809879 0.188702
H42   H     H_    0.164934 0.166590 0.786475 0.182674
O1    O     O_R   0.137150 0.468200 0.553200 -0.480591
O2    O     O_R   0.140110 0.470540 0.446010 -0.499757
O3    O     O_R   0.529460 0.669570 0.446010 -0.495105
O4    O     O_R   0.330430 0.859890 0.446010 -0.501227
O5    O     O_R   0.176710 0.690910 0.450560 -0.445847
O6    O     O_R   0.309090 0.485800 0.450560 -0.446180
O7    O     O_R   0.514200 0.823290 0.450560 -0.446703
O8    O     O_3   0.333333 0.666667 0.499990 -0.330080
O9    O     O_R   0.176750 0.985260 0.074180 -0.484286
O10   O     O_R   0.014740 0.191490 0.074180 -0.457093
O11   O     O_R   0.808510 0.823250 0.074180 -0.493549
O12   O     O_R   0.531800 0.668950 0.553200 -0.473411
O13   O     O_R   0.146100 0.172630 0.068980 -0.437343
O14   O     O_R   0.827370 0.973470 0.068980 -0.479218
O15   O     O_R   0.026530 0.853900 0.068980 -0.414883
O16   O     O_3   0.000000 0.000000 0.020040 -0.316865
O17   O     O_R   0.148270 0.170520 0.969620 -0.490942
O18   O     O_R   0.829480 0.977750 0.969620 -0.476166
O19   O     O_R   0.022250 0.851730 0.969620 -0.481057
O20   O     O_R   0.331050 0.862850 0.553200 -0.475859
O21   O     O_R   0.179100 0.982980 0.967000 -0.492220
O22   O     O_R   0.017020 0.196120 0.967000 -0.472272
O23   O     O_R   0.803880 0.820900 0.967000 -0.503050
O24   O     O_R   0.173970 0.688730 0.549930 -0.480380
O25   O     O_R   0.311270 0.485240 0.549930 -0.480843
O26   O     O_R   0.514760 0.826030 0.549930 -0.483932

loop_
_geom_bond_atom_site_label_1
_geom_bond_atom_site_label_2
_ccdc_geom_bond_type
C92   H41   S    
C25   C31   A    
C65   C92   S    
C79   H19   S    
C26   C32   A    
C55   C59   A    
C13   O14   A    
C18   C21   A    
C2    C84   T    
C32   H3    S    
C18   Cl13  S    
C65   H38   S    
Cr6   O23   S    
C6    C9    T    
C13   C41   S    
C66   C90   S    
C29   C76   S    
C81   Cl5   S    
C1    O24   A    
C27   C33   A    
C13   O11   A    
C54   H11   S    
C46   C49   A    
C83   Cl7   S    
C60   C63   A    
C17   C85   S    
C32   C36   A    
C29   O6    A    
C51   C68   A    
C92   H12   S    
C47   C76   A    
C15   O17   A    
C16   O23   A    
Cr1   O8    S    
C23   O26   A    
C30   C74   S    
C57   H14   S    
C26   C39   A    
C79   H22   S    
C4    C86   T    
C36   Cl17  S    
C16   O18   A    
Cr6   O11   S    
C64   H34   S    
C16   C84   S    
C8    C23   S    
C6    C88   S    
C20   C76   A    
C7    C10   T    
C66   Cl4   S    
Cr1   O2    S    
Cr6   O16   S    
C79   C88   S    
C52   C69   A    
C28   O5    A    
C4    C96   S    
C66   C93   S    
Cr3   O8    S    
C40   C43   A    
C20   C24   A    
C80   H24   S    
C89   Cl10  S    
C33   H4    S    
C11   C43   S    
C45   C78   S    
Cr5   O16   S    
C80   H20   S    
C39   C42   A    
Cr6   O19   S    
Cr3   O4    S    
C64   C87   S    
C93   H23   S    
C28   O4    A    
Cr5   O10   S    
C41   C71   A    
Cr4   O17   S    
C61   C71   A    
C44   H15   S    
C64   Cl2   S    
C46   C75   A    
C11   O10   A    
C18   C74   A    
Cr4   O9    S    
C29   O2    A    
C25   C68   A    
C38   Cl1   S    
C53   C70   A    
C66   H39   S    
C82   H26   S    
C67   Cl8   S    
C47   C50   A    
C48   C51   A    
Cr2   O25   S    
C50   C53   A    
C62   C72   A    
Cr4   O21   S    
C2    C94   S    
C19   C22   A    
C1    C9    S    
C77   H18   S    
C65   Cl3   S    
C38   C41   A    
C60   H10   S    
C23   O12   A    
Cr1   O24   S    
Cr3   O20   S    
C14   O9    A    
C57   C60   A    
C37   Cl18  S    
C63   C73   A    
C24   C53   A    
C34   H35   S    
C12   O25   A    
C92   C95   S    
C33   C37   A    
C62   C69   A    
C72   H6    S    
C48   C54   A    
Cr6   O15   S    
C30   O7    A    
C73   H7    S    
C56   H37   S    
C17   O19   A    
C25   C38   A    
C79   C82   S    
C20   Cl15  S    
C17   O21   A    
C63   C70   A    
C77   C81   S    
C27   C40   A    
C1    O20   A    
C49   C52   A    
C49   C55   A    
C15   O22   A    
C47   H17   S    
C42   C72   A    
C24   C37   A    
C82   Cl6   S    
Cr2   O8    S    
C45   H36   S    
C14   C42   S    
C44   C74   A    
C91   H40   S    
C27   C70   A    
C10   C12   S    
C15   C86   S    
C83   H27   S    
Cr4   O16   S    
C56   C89   S    
Cr4   O13   S    
C93   C96   S    
C81   H25   S    
C78   Cl9   S    
C31   C35   A    
C3    C85   T    
Cr5   O18   S    
Cr1   O5    S    
C45   C95   S    
C89   H30   S    
C21   C51   A    
C65   C88   S    
C22   C52   A    
C54   C58   A    
C19   Cl14  S    
C78   C88   S    
C56   C96   S    
C59   H9    S    
C59   C62   A    
C82   C95   S    
C50   C57   A    
C67   C87   S    
Cr2   O6    S    
C34   C94   S    
C30   O3    A    
C56   H33   S    
Cr3   O26   S    
C34   C67   S    
C39   Cl11  S    
C5    C8    T    
C34   H31   S    
C21   C35   A    
Cr2   O12   S    
C22   C36   A    
C11   O13   A    
C43   C73   A    
C45   H32   S    
C19   C75   A    
C55   H13   S    
C58   H8    S    
C12   O1    A    
C81   C94   S    
C7    C90   S    
C61   C68   A    
C93   H42   S    
C58   C61   A    
C83   C96   S    
C80   C83   S    
C31   H2    S    
Cr5   O22   S    
Cr1   O1    S    
Cr2   O3    S    
C77   H21   S    
C14   O15   A    
C46   H16   S    
C5    C87   S    
Cr3   O7    S    
C40   Cl12  S    
C77   C87   S    
C91   H1    S    
C67   H28   S    
C26   C69   A    
C71   H5    S    
C3    C95   S    
C64   C91   S    
C89   C90   S    
C28   C75   S    
C80   C90   S    
Cr5   O14   S    
C35   Cl16  S    
C44   C48   A    
C78   H29   S    
C91   C94   S    
