data_mof_unit_4947.cif
_audit_creation_date              2013-03-05T15:54:21-0500
_audit_creation_method            fapswitch 2.2
_symmetry_space_group_name_H-M    P1
_symmetry_Int_Tables_number       1
_space_group_crystal_system       triclinic
_cell_length_a                    14.981092
_cell_length_b                    14.890411
_cell_length_c                    14.837749
_cell_angle_alpha                 109.470153
_cell_angle_beta                  108.848972
_cell_angle_gamma                 109.532234
_cell_volume                      2565.42741623

loop_
_atom_site_label
_atom_site_type_symbol
_atom_site_description
_atom_site_fract_x
_atom_site_fract_y
_atom_site_fract_z
_atom_type_partial_charge
C1    C     C_R   0.934610 0.749780 0.027521 -0.185534
H1    H     H_    0.874435 0.750418 0.051789 0.128433
N1    N     N_R   0.995640 0.706130 0.053910 -0.055869
C2    C     C_R   0.775389 0.238670 0.683636 0.173024
N2    N     N_R   0.848310 0.293860 0.791110 -0.060446
C3    C     C_R   0.095795 0.591572 0.791577 -0.152070
H2    H     H_    0.160218 0.673134 0.826187 0.167370
N3    N     N_R   0.054010 0.556790 0.847890 -0.049310
C4    C     C_R   0.701447 0.408678 0.006557 -0.145663
H3    H     H_    0.649263 0.324111 0.980286 0.091190
N4    N     N_R   0.789940 0.443190 0.997130 -0.032029
C5    C     C_R   0.007767 0.410695 0.700949 -0.139274
H4    H     H_    0.994290 0.330169 0.654176 0.107918
N5    N     N_R   0.997630 0.443170 0.791110 -0.046547
C6    C     C_R   0.789979 0.590795 0.095719 -0.158056
H5    H     H_    0.817367 0.675405 0.149907 0.080867
N6    N     N_R   0.846320 0.556810 0.053910 -0.031531
C7    C     C_R   0.688067 0.255372 0.780645 -0.179948
H6    H     H_    0.625100 0.245360 0.803171 0.118789
N7    N     N_R   0.791080 0.293860 0.847890 -0.052295
C8    C     C_R   0.041329 0.767391 0.950272 0.308852
N8    N     N_R   0.052880 0.706130 0.997130 -0.075442
C9    C     C_R   0.959973 0.789015 0.961573 -0.058819
C10   C     C_R   0.675174 0.220197 0.676947 0.024189
C11   C     C_R   0.067804 0.502070 0.698541 0.052425
C12   C     C_R   0.699445 0.499446 0.068455 0.009319
C13   C     C_R   0.066466 0.591936 0.313296 -0.147333
H7    H     H_    0.123994 0.676330 0.373701 0.108926
N9    N     N_R   0.002370 0.556830 0.208890 -0.039739
C14   C     C_R   0.221735 0.406919 0.974632 -0.139824
H8    H     H_    0.198957 0.321394 0.939038 0.107054
N10   N     N_R   0.153680 0.443190 0.946090 -0.043513
C15   C     C_R   0.300976 0.802726 0.211144 -0.091777
H9    H     H_    0.358225 0.831208 0.184153 0.109401
N11   N     N_R   0.208920 0.706140 0.152110 -0.038934
C16   C     C_R   0.903070 0.197630 0.996284 -0.165580
H10   H     H_    0.838831 0.172293 0.015221 0.096084
N12   N     N_R   0.947120 0.293870 0.002870 -0.035637
C17   C     C_R   0.994849 0.193597 0.905584 -0.133642
H11   H     H_    0.019368 0.162911 0.846435 0.091196
N13   N     N_R   0.004360 0.293870 0.946090 -0.043039
C18   C     C_R   0.206728 0.801090 0.300464 -0.146445
H12   H     H_    0.176144 0.828968 0.354660 0.103009
N14   N     N_R   0.151690 0.706140 0.208890 -0.044334
C19   C     C_R   0.973078 0.408564 0.224085 -0.116815
H13   H     H_    0.941592 0.323721 0.203822 0.091681
N15   N     N_R   0.945990 0.443210 0.152110 -0.039558
C20   C     C_R   0.313606 0.590770 0.066533 -0.129235
H14   H     H_    0.377566 0.675266 0.113982 0.091320
N16   N     N_R   0.210060 0.556810 0.002870 -0.034228
Ni1   Ni    Ni4+2 0.999010 0.630300 0.130220 0.210243
Ni2   Ni    Ni4+2 0.000990 0.369700 0.869780 0.196548
Ni3   Ni    Ni4+2 0.130280 0.630280 0.000000 0.268584
Ni4   Ni    Ni4+2 0.869720 0.369720 0.000000 0.202896
C21   C     C_R   0.049954 0.501211 0.326381 0.070750
C22   C     C_R   0.323887 0.497999 0.050274 0.015321
C23   C     C_R   0.300277 0.861933 0.304257 0.076170
C24   C     C_R   0.930117 0.131712 0.935446 0.094516
C25   C     C_3   0.520956 0.386143 0.051664 -0.394237
H15   H     H_    0.555852 0.363410 0.112450 0.158522
H16   H     H_    0.496594 0.319441 0.970899 0.158546
C26   C     C_3   0.417285 0.385785 0.047264 -0.375462
H17   H     H_    0.348342 0.317165 0.966029 0.160990
H18   H     H_    0.404100 0.369427 0.111113 0.178957
H19   H     H_    0.512755 0.566660 0.242157 0.172840
C27   C     C_3   0.630473 0.596647 0.181382 0.018612
C28   C     C_3   0.545476 0.513988 0.976130 -0.449265
C29   C     C_3   0.602823 0.498896 0.073097 0.336055
H20   H     H_    0.600790 0.590733 0.982716 0.157971
H21   H     H_    0.521242 0.444930 0.896786 0.179260
C30   C     C_3   0.425598 0.497479 0.063979 0.341490
C31   C     C_3   0.523661 0.587359 0.179661 -0.451757
C32   C     C_3   0.445084 0.518723 0.974474 -0.392363
H22   H     H_    0.373564 0.456684 0.891701 0.168555
H23   H     H_    0.456303 0.600869 0.988209 0.160162
H24   H     H_    0.668184 0.672641 0.177297 0.097625
H25   H     H_    0.528784 0.668613 0.201879 0.135479
C33   C     C_R   0.527535 0.148151 0.490270 0.135577
C34   C     C_R   0.570216 0.140673 0.584592 0.044415
C35   C     C_R   0.507732 0.051671 0.591615 -0.203921
H26   H     H_    0.535456 0.046000 0.665619 0.134829
C36   C     C_R   0.415056 0.962947 0.499208 -0.180869
H27   H     H_    0.372736 0.891085 0.503958 0.129989
C37   C     C_R   0.385387 0.962317 0.399274 -0.013472
C38   C     C_R   0.435671 0.058772 0.397759 0.081355
C39   C     C_3   0.472982 0.084827 0.323092 0.203730
C40   C     C_3   0.573866 0.186061 0.425827 -0.649980
H28   H     H_    0.490638 0.023868 0.276110 0.065814
H29   H     H_    0.649183 0.183521 0.435988 0.174762
H30   H     H_    0.578628 0.265229 0.435914 0.236585
C41   C     C_R   0.155112 0.604597 0.530007 0.160832
C42   C     C_R   0.099609 0.505431 0.431208 0.039778
C43   C     C_R   0.075891 0.408258 0.436597 -0.188083
H31   H     H_    0.041143 0.330622 0.364221 0.120019
C44   C     C_R   0.079702 0.408016 0.532021 -0.195273
H32   H     H_    0.047064 0.329843 0.529138 0.124088
C45   C     C_R   0.108414 0.505373 0.621825 0.040069
C46   C     C_R   0.159833 0.604446 0.624267 0.129865
C47   C     C_3   0.149394 0.705170 0.662372 -0.453554
C48   C     C_3   0.143738 0.705341 0.559379 -0.538768
H33   H     H_    0.072252 0.689948 0.664272 0.203292
H34   H     H_    0.224197 0.776302 0.737823 0.217886
H35   H     H_    0.063221 0.690142 0.503759 0.199394
H36   H     H_    0.215059 0.776921 0.575609 0.194401
C49   C     C_R   0.863453 0.893853 0.974376 0.117259
C50   C     C_R   0.909563 0.845390 0.920183 0.087938
C51   C     C_R   0.910098 0.858727 0.830977 -0.118376
H37   H     H_    0.930916 0.811279 0.776870 0.144636
C52   C     C_R   0.901863 0.947396 0.823750 -0.172244
H38   H     H_    0.921300 0.969666 0.767397 0.127912
C53   C     C_R   0.885897 0.015680 0.901605 0.014136
C54   C     C_R   0.846212 0.975049 0.961920 0.064010
C55   C     C_3   0.868757 0.030734 0.079017 -0.065116
C56   C     C_3   0.892826 0.943554 0.092439 -0.544327
H39   H     H_    0.941434 0.114178 0.131509 0.149027
H40   H     H_    0.980210 0.976408 0.147878 0.209465
H41   H     H_    0.835837 0.889247 0.108448 0.177590
C57   C     C_3   0.789748 0.171274 0.593326 -0.467332
C58   C     C_3   0.865078 0.127833 0.632955 -0.231305
C59   C     C_3   0.878725 0.061135 0.540193 -0.958263
H42   H     H_    0.798947 0.989533 0.472249 0.264769
H43   H     H_    0.914830 0.112899 0.508508 0.260219
H44   H     H_    0.933521 0.030771 0.571228 0.252467
H45   H     H_    0.946223 0.196860 0.700518 0.191179
H46   H     H_    0.830325 0.074766 0.664255 0.197289
H47   H     H_    0.709821 0.098580 0.527262 0.195364
H48   H     H_    0.818610 0.219674 0.556067 0.183771
C60   C     C_3   0.716419 0.621660 0.292820 -0.446337
C61   C     C_3   0.696970 0.525254 0.315112 -0.204378
C62   C     C_3   0.773028 0.564449 0.434335 -0.923538
H49   H     H_    0.859081 0.607580 0.454356 0.259747
H50   H     H_    0.757682 0.620755 0.490328 0.259461
H51   H     H_    0.758826 0.492850 0.447467 0.255748
H52   H     H_    0.611873 0.481687 0.297475 0.207585
H53   H     H_    0.714206 0.467800 0.262988 0.195080
H54   H     H_    0.797886 0.654668 0.299151 0.181782
H55   H     H_    0.720627 0.688972 0.359212 0.200632
N17   N     N_R   0.403460 0.112179 0.255353 0.265180
O1    O     O_R   0.366790 0.173898 0.296254 -0.392472
O2    O     O_R   0.379656 0.076328 0.153279 -0.329591
C63   C     C_3   0.766780 0.023342 0.088111 -0.364843
C64   C     C_3   0.794233 0.077412 0.208569 -0.268083
C65   C     C_3   0.693849 0.068075 0.218988 -0.897810
H56   H     H_    0.659186 0.109861 0.181066 0.273664
H57   H     H_    0.631385 0.980558 0.178462 0.256954
H58   H     H_    0.716708 0.107592 0.307006 0.242626
H59   H     H_    0.828785 0.037679 0.249906 0.205888
H60   H     H_    0.855787 0.165600 0.251211 0.188814
H61   H     H_    0.732960 0.064300 0.048532 0.174239
H62   H     H_    0.701727 0.936142 0.044111 0.196525
N18   N     N_R   0.128126 0.833809 0.939666 0.227614
O3    O     O_R   0.124804 0.908362 0.913941 -0.390269
O4    O     O_R   0.221819 0.839624 0.983636 -0.412634

loop_
_geom_bond_atom_site_label_1
_geom_bond_atom_site_label_2
_geom_bond_distance
_ccdc_geom_bond_type
C33   C40   1.497144 S    
C65   H58   1.110445 S    
C27   C29   1.574644 S    
C43   H31   1.081405 S    
C13   N9    1.326091 A    
C32   H23   1.113650 S    
C32   H22   1.114138 S    
C53   C54   1.408787 A    
C60   C61   1.534321 S    
N6    Ni1   1.881139 S    
C45   C46   1.399104 A    
C63   H61   1.107545 S    
C17   N13   1.347246 A    
N2    N7    1.382605 A    
C58   H45   1.108774 S    
C31   H25   1.110889 S    
N9    N15   1.385650 A    
C7    C10   1.371926 A    
C16   H10   1.072411 S    
C1    H1    1.075007 S    
C16   C24   1.361655 A    
C52   C53   1.408432 A    
C14   H8    1.077866 S    
C2    C10   1.396030 A    
C13   C21   1.380697 A    
C3    C11   1.372401 A    
N11   Ni3   1.857509 S    
C50   C51   1.404468 A    
C65   H56   1.110886 S    
C48   H36   1.112105 S    
C65   H57   1.110906 S    
C7    H6    1.080113 S    
C57   C58   1.533195 S    
N10   Ni2   1.881137 S    
C26   H18   1.112854 S    
C61   H53   1.110138 S    
N5    Ni2   1.847180 S    
C44   H32   1.081000 S    
C27   C60   1.556839 S    
C63   H62   1.113366 S    
C15   C23   1.374662 A    
N18   O3    1.299128 A    
N2    Ni2   1.881090 S    
C28   C32   1.521734 S    
C41   C48   1.500805 S    
C4    H3    1.080005 S    
N13   Ni2   1.847431 S    
C7    N7    1.318355 A    
C59   H44   1.110429 S    
C20   N16   1.328372 A    
C25   H15   1.103877 S    
C43   C44   1.399746 A    
C8    N8    1.340164 A    
N18   O4    1.301017 A    
C51   C52   1.401671 A    
C2    C57   1.510998 S    
C18   N14   1.319457 A    
C18   C23   1.361666 A    
C54   C55   1.514438 S    
C59   H43   1.111216 S    
C4    C12   1.374242 A    
N8    Ni3   1.870250 S    
C19   N15   1.341112 A    
C27   C31   1.550350 S    
C25   H16   1.112354 S    
N16   Ni3   1.870726 S    
C28   C29   1.550683 S    
C64   H60   1.111066 S    
C49   C56   1.493315 S    
C37   C38   1.392766 A    
N12   N13   1.382727 A    
N7    Ni4   1.857510 S    
C17   H11   1.080345 S    
C30   C32   1.554943 S    
N1    Ni1   1.847432 S    
C39   C40   1.528504 S    
C2    N2    1.346170 A    
C6    C12   1.377842 A    
C3    N3    1.329628 A    
C38   C39   1.493996 S    
C17   C24   1.392188 A    
C14   C22   1.388742 A    
C36   H27   1.085099 S    
C48   H35   1.112202 S    
C24   C53   1.455170 S    
C1    N1    1.321902 A    
C62   H50   1.110862 S    
C60   H55   1.112849 S    
C21   C42   1.460312 S    
C25   C29   1.561828 S    
C10   C34   1.425982 S    
C47   C48   1.503868 S    
N12   Ni4   1.870249 S    
C51   H37   1.082575 S    
C22   C30   1.473753 S    
C27   H24   1.115208 S    
C26   H17   1.110200 S    
C15   H9    1.080630 S    
C23   C37   1.416657 S    
N11   N14   1.382603 A    
C4    N4    1.324153 A    
N10   N16   1.385649 A    
N4    Ni4   1.870726 S    
N17   O2    1.300287 A    
N15   Ni4   1.856910 S    
C58   H46   1.112179 S    
N14   Ni1   1.881090 S    
C35   C36   1.374357 A    
C20   H14   1.079013 S    
C47   H33   1.112599 S    
C49   C54   1.374611 A    
C5    N5    1.340034 A    
C1    C9    1.384218 A    
C36   C37   1.399429 A    
C8    C9    1.405609 A    
C62   H51   1.110620 S    
C57   H48   1.106198 S    
C41   C42   1.403278 A    
C59   H42   1.111018 S    
C33   C38   1.373400 A    
C55   C56   1.514532 S    
N9    Ni1   1.847180 S    
C11   C45   1.460489 S    
C20   C22   1.390780 A    
N4    N6    1.385649 A    
C25   C26   1.531381 S    
N3    N5    1.385649 A    
C33   C34   1.397558 A    
C64   H59   1.111627 S    
C35   H26   1.084416 S    
N3    Ni3   1.856911 S    
C56   H40   1.112404 S    
C58   C59   1.526086 S    
C44   C45   1.409637 A    
C6    N6    1.329674 A    
C3    H2    1.072557 S    
H19   C31   1.111907 S    
C49   C50   1.396397 A    
C5    C11   1.377094 A    
C28   H21   1.114619 S    
C12   C29   1.468651 S    
C60   H54   1.110843 S    
C62   H49   1.111032 S    
C61   C62   1.527399 S    
C30   C31   1.555693 S    
C52   H38   1.082349 S    
C14   N10   1.323703 A    
C9    C50   1.456044 S    
C16   N12   1.315781 A    
C42   C43   1.406425 A    
C15   N11   1.338281 A    
C55   C63   1.547555 S    
C26   C30   1.552325 S    
C39   H28   1.112526 S    
C8    N18   1.438666 S    
C41   C46   1.378181 A    
C61   H52   1.110324 S    
C56   H41   1.112063 S    
N17   O1    1.302269 A    
C39   N17   1.463209 S    
C34   C35   1.403210 A    
C19   H13   1.079634 S    
C47   H34   1.111853 S    
C5    H4    1.073779 S    
C19   C21   1.394845 A    
C46   C47   1.497411 S    
C18   H12   1.082401 S    
C40   H30   1.111934 S    
C13   H7    1.072908 S    
C40   H29   1.104404 S    
C64   C65   1.526293 S    
N1    N8    1.382726 A    
C57   H47   1.110807 S    
C28   H20   1.114520 S    
C63   C64   1.534998 S    
C6    H5    1.080741 S    
C55   H39   1.112765 S    
