data_mof_unit_842.cif
_audit_creation_date              2012-10-26T20:21:16-0400
_audit_creation_method            fapswitch 2.2
_symmetry_space_group_name_H-M    P1
_symmetry_Int_Tables_number       1
_space_group_crystal_system       triclinic
_cell_length_a                    9.511864
_cell_length_b                    10.834135
_cell_length_c                    15.428048
_cell_angle_alpha                 89.856647
_cell_angle_beta                  74.948783
_cell_angle_gamma                 90.000715
_cell_volume                      1535.3555539

loop_
_atom_site_label
_atom_site_type_symbol
_atom_type_description
_atom_site_fract_x
_atom_site_fract_y
_atom_site_fract_z
_atom_type_partial_charge
C1    C     C_R   0.999936 0.262048 0.500065 0.550692
C2    C     C_R   0.127653 0.063859 0.500235 -0.137935
C3    C     C_R   0.000031 0.871787 0.499970 0.021797
C4    C     C_R   0.999948 0.128209 0.500083 0.021369
C5    C     C_R   0.549357 0.428149 0.559205 0.014282
C6    C     C_R   0.450634 0.571880 0.440813 0.015076
C7    C     C_R   0.400476 0.428297 0.559248 0.013580
C8    C     C_R   0.599505 0.571763 0.440791 0.016280
C9    C     C_R   0.919045 0.502537 0.672443 0.563790
C10   C     C_R   0.081020 0.498494 0.327456 0.563285
C11   C     C_R   0.875827 0.514688 0.771062 0.026245
C12   C     C_R   0.000056 0.737951 0.499954 0.551532
C13   C     C_R   0.124290 0.492614 0.228389 0.026492
C14   C     C_R   0.917676 0.581258 0.912179 -0.124794
C15   C     C_R   0.078359 0.446313 0.084523 -0.123953
C16   C     C_R   0.971412 0.559753 0.820048 0.088448
C17   C     C_R   0.026010 0.460157 0.177517 0.089607
C18   C     C_R   0.730568 0.489690 0.815532 -0.160188
C19   C     C_R   0.270864 0.514275 0.184708 -0.162624
C20   C     C_R   0.673536 0.515966 0.907149 0.026182
C21   C     C_R   0.324621 0.502478 0.091193 0.025062
C22   C     C_R   0.770782 0.560489 0.955470 0.027341
C23   C     C_R   0.575967 0.566884 0.091234 -0.136183
C24   C     C_R   0.225594 0.465988 0.041640 0.028404
C25   C     C_R   0.523005 0.500230 0.951798 0.042874
C26   C     C_R   0.474117 0.522977 0.045920 0.042219
C27   C     C_R   0.419197 0.465174 0.905206 -0.136062
C28   C     C_R   0.720768 0.585551 0.046599 -0.143990
C29   C     C_R   0.273916 0.448560 0.949488 -0.144288
C30   C     C_R   0.872271 0.063832 0.499906 -0.135857
C31   C     C_R   0.127702 0.936162 0.500162 -0.135276
C32   C     C_R   0.872321 0.936135 0.499831 -0.137986
Cu1   Cu    Cu3+1 0.140660 0.500020 0.500000 0.950483
Cu2   Cu    Cu3+1 0.859340 0.499980 0.500000 0.951885
H1    H     H_    0.794373 0.620531 0.083923 0.106041
H2    H     H_    0.227555 0.888144 0.500260 0.131303
H3    H     H_    0.772512 0.888096 0.499657 0.129588
H4    H     H_    0.227462 0.111898 0.500409 0.129741
H5    H     H_    0.585397 0.370347 0.606514 0.102274
H6    H     H_    0.414589 0.629705 0.393518 0.101651
H7    H     H_    0.324255 0.370801 0.606614 0.099639
H8    H     H_    0.675695 0.629354 0.393488 0.099419
H9    H     H_    0.824691 0.524021 0.234704 0.219479
H10   H     H_    0.824231 0.394303 0.175860 0.224275
H11   H     H_    0.176159 0.503023 0.763010 0.221556
H12   H     H_    0.198627 0.420722 0.911151 0.106156
H13   H     H_    0.169590 0.636103 0.819000 0.223332
H14   H     H_    0.341848 0.537519 0.226124 0.119275
H15   H     H_    0.664114 0.449631 0.776275 0.114607
H16   H     H_    0.990415 0.616431 0.950022 0.107158
H17   H     H_    0.003885 0.418875 0.045491 0.107984
H18   H     H_    0.547743 0.590962 0.161211 0.095214
H19   H     H_    0.445122 0.451624 0.833761 0.097282
H20   H     H_    0.772417 0.111849 0.499810 0.131136
N1    N     N_R   0.352080 0.500030 0.499980 -0.219677
N2    N     N_R   0.647920 0.499970 0.500020 -0.219595
N3    N     N_3   0.874837 0.437956 0.220109 -0.597667
N4    N     N_3   0.120893 0.587105 0.776173 -0.597642
O1    O     O_R   0.118740 0.319660 0.500000 -0.510590
O2    O     O_R   0.881260 0.680340 0.500000 -0.511118
O3    O     O_R   0.881170 0.319630 0.500010 -0.504600
O4    O     O_R   0.118830 0.680370 0.499990 -0.503556
O5    O     O_R   0.055570 0.500030 0.629830 -0.473885
O6    O     O_R   0.944430 0.499970 0.370170 -0.470338
O7    O     O_R   0.818000 0.500000 0.629840 -0.517262
O8    O     O_R   0.182000 0.500000 0.370160 -0.518969

loop_
_geom_bond_atom_site_label_1
_geom_bond_atom_site_label_2
_ccdc_geom_bond_type
Cu1   N1    S    
C2    C4    A    
C21   C26   A    
C27   H19   S    
C11   C18   A    
Cu2   N2    S    
C7    N1    A    
C27   C29   A    
C12   O4    A    
C11   C16   A    
C29   H12   S    
C5    N2    A    
C10   O6    A    
C15   H17   S    
C13   C17   A    
H10   N3    S    
Cu1   O5    S    
C1    C4    S    
C14   C22   A    
C9    O7    A    
C7    H7    S    
Cu1   Cu2   S    
Cu1   O1    S    
C16   N4    S    
C32   H3    S    
H13   N4    S    
Cu2   O2    S    
C9    C11   S    
C8    N2    A    
C23   H18   S    
C14   H16   S    
C6    N1    A    
C3    C31   A    
Cu2   O7    S    
C22   C28   A    
C15   C24   A    
C19   C21   A    
C1    O1    A    
C20   C22   A    
Cu1   O8    S    
C30   H20   S    
C18   C20   A    
C10   O8    A    
C3    C32   A    
C23   C28   A    
C14   C16   A    
H11   N4    S    
C21   C24   A    
C25   C27   A    
C20   C25   A    
H9    N3    S    
C8    H8    S    
C30   C32   A    
C24   C29   A    
C6    H6    S    
C1    O3    A    
C18   H15   S    
C5    C7    A    
C23   C26   A    
C15   C17   A    
C5    H5    S    
C2    H4    S    
C31   H2    S    
C2    C31   A    
C13   C19   A    
C6    C8    A    
C3    C12   S    
C19   H14   S    
C25   C26   A    
C9    O5    A    
Cu2   O6    S    
Cu2   O3    S    
C4    C30   A    
C28   H1    S    
C17   N3    S    
Cu1   O4    S    
C10   C13   S    
C12   O2    A    
