data_mof_unit_507.cif
_audit_creation_date              2012-12-11T15:53:53-0500
_audit_creation_method            fapswitch 2.2
_symmetry_space_group_name_H-M    P1
_symmetry_Int_Tables_number       1
_space_group_crystal_system       triclinic
_cell_length_a                    10.62216
_cell_length_b                    10.694819
_cell_length_c                    16.981924
_cell_angle_alpha                 80.883011
_cell_angle_beta                  99.055464
_cell_angle_gamma                 118.450769
_cell_volume                      1667.28980217

loop_
_atom_site_label
_atom_site_type_symbol
_atom_type_description
_atom_site_fract_x
_atom_site_fract_y
_atom_site_fract_z
_atom_type_partial_charge
C1    C     C_R   0.384495 0.285097 0.632020 0.538071
C2    C     C_R   0.515231 0.710826 0.734900 -0.158552
C3    C     C_R   0.493149 0.726621 0.811002 -0.145651
C4    C     C_3   0.094282 0.495816 0.771010 -0.249473
C5    C     C_3   0.118878 0.476668 0.689102 -0.245925
C6    C     C_R   0.399481 0.617904 0.685774 0.000587
C7    C     C_1   0.822906 0.656892 0.705975 -0.055814
C8    C     C_1   0.850040 0.684349 0.773921 -0.053577
C9    C     C_1   0.365017 0.235074 0.714528 -0.038298
C10   C     C_1   0.334217 0.188012 0.781846 -0.037661
C11   C     C_1   0.335669 0.663722 0.277782 -0.055417
C12   C     C_R   0.413913 0.620252 0.601571 0.549292
C13   C     C_1   0.323286 0.673021 0.206920 -0.054884
C14   C     C_R   0.801115 0.655119 0.149521 -0.012354
C15   C     C_R   0.763530 0.524203 0.196814 0.059978
C16   C     C_R   0.760633 0.519392 0.277429 0.000348
C17   C     C_R   0.790702 0.758805 0.263641 -0.150744
C18   C     C_R   0.795737 0.765952 0.181248 -0.154161
C19   C     C_3   0.821945 0.417071 0.210250 0.148646
C20   C     C_3   0.820661 0.416852 0.299392 -0.204039
C21   C     C_R   0.787646 0.639087 0.313426 0.001192
C22   C     C_R   0.260818 0.053304 0.179808 0.006526
C23   C     C_R   0.777506 0.619288 0.626692 0.535539
C24   C     C_R   0.155792 0.067871 0.211649 0.013072
C25   C     C_R   0.178759 0.106817 0.287822 0.021681
C26   C     C_R   0.403382 0.095562 0.309167 -0.138741
C27   C     C_R   0.378237 0.052701 0.231779 -0.129507
C28   C     C_3   0.081713 0.157474 0.180053 -0.260469
C29   C     C_3   0.104328 0.198216 0.264042 -0.255696
C30   C     C_R   0.309097 0.135479 0.334613 0.011361
C31   C     C_R   0.890761 0.701548 0.856113 0.551174
C32   C     C_R   0.316536 0.705858 0.898676 0.551829
C33   C     C_R   0.286994 0.119136 0.858574 0.562090
C34   C     C_R   0.349631 0.222983 0.400640 0.559804
C35   C     C_R   0.881266 0.688648 0.081337 0.531315
C36   C     C_R   0.313133 0.700668 0.123727 0.543987
C37   C     C_R   0.245595 0.037717 0.094876 0.574470
C38   C     C_R   0.365120 0.654122 0.360886 0.559678
C39   C     C_R   0.765569 0.618766 0.397036 0.553791
C40   C     C_R   0.354368 0.650983 0.837679 0.015097
C41   C     C_R   0.249785 0.538436 0.795163 0.013045
C42   C     C_R   0.272394 0.521644 0.720469 0.010569
Cr1   Cr    Cr6+3 0.608440 0.389080 0.519680 1.019096
Cr2   Cr    Cr6+3 0.288640 0.400090 0.490760 1.008504
Cr3   Cr    Cr6+3 0.602940 0.710800 0.489510 1.015445
Cr4   Cr    Cr6+3 0.052530 0.947560 0.964210 1.007988
Cr5   Cr    Cr6+3 0.059970 0.626800 0.992920 0.985013
Cr6   Cr    Cr6+3 0.373320 0.938440 0.995370 1.000516
H1    H     H_    0.618751 0.779676 0.712142 0.141437
H2    H     H_    0.743146 0.313556 0.328752 0.169927
H3    H     H_    0.930189 0.465958 0.331655 0.096365
H4    H     H_    0.501530 0.109266 0.345606 0.138733
H5    H     H_    0.456583 0.031465 0.210684 0.178131
H6    H     H_    0.966647 0.094126 0.159440 0.127831
H7    H     H_    0.143860 0.249970 0.137517 0.161522
H8    H     H_    0.177060 0.314127 0.268446 0.157410
H9    H     H_    0.002379 0.154670 0.292524 0.145816
H10   H     H_    0.580190 0.809137 0.844498 0.143398
H11   H     H_    0.067811 0.584889 0.769875 0.158638
H12   H     H_    0.022633 0.393812 0.804162 0.148463
H13   H     H_    0.061989 0.363461 0.675158 0.152244
H14   H     H_    0.105700 0.554206 0.640872 0.160352
H15   H     H_    0.795169 0.848351 0.288358 0.142666
H16   H     H_    0.811014 0.863255 0.144355 0.133030
H17   H     H_    0.933464 0.456517 0.194281 0.134642
O1    O     O_R   0.754020 0.497590 0.609930 -0.513830
O2    O     O_R   0.295080 0.533620 0.397890 -0.502639
O3    O     O_R   0.485280 0.746620 0.388440 -0.504746
O4    O     O_R   0.720550 0.696220 0.420010 -0.499717
O5    O     O_3   0.500010 0.499990 0.499980 -0.290456
O6    O     O_R   0.163320 0.092900 0.874450 -0.502653
O7    O     O_R   0.934650 0.822080 0.882840 -0.493464
O8    O     O_R   0.915520 0.604140 0.893670 -0.520960
O9    O     O_R   0.191760 0.638110 0.923230 -0.496961
O10   O     O_R   0.406180 0.826930 0.920660 -0.519054
O11   O     O_R   0.358620 0.062870 0.901950 -0.492605
O12   O     O_R   0.481420 0.271390 0.600630 -0.481836
O13   O     O_R   0.163910 0.085460 0.050210 -0.519835
O14   O     O_R   0.935200 0.815170 0.045770 -0.517421
O15   O     O_R   0.916120 0.596690 0.069430 -0.545895
O16   O     O_R   0.192310 0.631200 0.086170 -0.510592
O17   O     O_R   0.406770 0.819480 0.096420 -0.526990
O18   O     O_R   0.359170 0.055960 0.064880 -0.509225
O19   O     O_3   0.161940 0.837600 0.984160 -0.264433
O20   O     O_R   0.263810 0.254550 0.589590 -0.507403
O21   O     O_R   0.300820 0.531200 0.560890 -0.511147
O22   O     O_R   0.491480 0.744020 0.564270 -0.502313
O23   O     O_R   0.726290 0.693800 0.583010 -0.516824
O24   O     O_R   0.747830 0.500190 0.434090 -0.517769
O25   O     O_R   0.475680 0.273800 0.437630 -0.496194
O26   O     O_R   0.257620 0.257160 0.413750 -0.515942
O27   O     O_3   0.719587 0.282152 0.185078 -0.580850
C43   C     C_3   0.732292 0.275754 0.104707 -0.081804
H18   H     H_    0.843740 0.301558 0.095096 0.104251
H19   H     H_    0.695769 0.346774 0.064034 0.155393
H20   H     H_    0.660939 0.164911 0.089112 0.144565

loop_
_geom_bond_atom_site_label_1
_geom_bond_atom_site_label_2
_ccdc_geom_bond_type
C5    C42   S    
C43   H18   S    
C1    O12   A    
C41   C42   A    
C14   C18   A    
C19   C20   S    
C32   O10   A    
C7    C8    T    
C15   C19   S    
C26   C27   A    
Cr1   O24   S    
C23   O1    A    
C28   C29   S    
Cr3   O22   S    
C20   H3    S    
C6    C12   S    
Cr4   O14   S    
C31   O8    A    
C4    C41   S    
C15   C16   A    
C35   O15   A    
Cr6   O11   S    
C34   O26   A    
C20   H2    S    
C19   O27   S    
C36   O17   A    
Cr2   O5    S    
C9    C10   T    
Cr4   O7    S    
Cr5   O16   S    
C43   H19   S    
C25   C29   S    
Cr6   O10   S    
C2    C6    A    
Cr5   O15   S    
Cr2   O21   S    
C28   H7    S    
C1    O20   A    
Cr1   O25   S    
C30   C34   S    
Cr3   O4    S    
Cr3   O23   S    
C1    C9    S    
C24   C25   A    
Cr5   O8    S    
C13   C36   S    
C14   C35   S    
Cr4   O13   S    
C28   H6    S    
C22   C37   S    
C17   C21   A    
Cr6   O19   S    
C11   C38   S    
C34   O25   A    
C2    H1    S    
C26   H4    S    
C33   O11   A    
C21   C39   S    
C36   O16   A    
C16   C20   S    
C4    H12   S    
Cr3   O3    S    
C17   C18   A    
C39   O4    A    
C5    H13   S    
Cr5   O19   S    
Cr4   O6    S    
Cr2   O26   S    
Cr4   O19   S    
C40   C41   A    
C38   O3    A    
C3    C40   A    
C26   C30   A    
Cr1   O5    S    
C23   O23   A    
C22   C24   A    
Cr1   O12   S    
Cr2   O20   S    
C25   C30   A    
C31   O7    A    
C12   O22   A    
Cr3   O5    S    
C8    C31   S    
C24   C28   S    
Cr5   O9    S    
C29   H9    S    
C4    C5    S    
C27   H5    S    
C16   C21   A    
C29   H8    S    
C43   H20   S    
C37   O13   A    
Cr6   O18   S    
C12   O21   A    
C22   C27   A    
C2    C3    A    
C17   H15   S    
C32   O9    A    
C11   C13   T    
C18   H16   S    
Cr1   O1    S    
C7    C23   S    
C4    H11   S    
C35   O14   A    
O27   C43   S    
Cr6   O17   S    
C5    H14   S    
C19   H17   S    
C10   C33   S    
C32   C40   S    
C33   O6    A    
C3    H10   S    
C38   O2    A    
C6    C42   A    
C14   C15   A    
C37   O18   A    
Cr2   O2    S    
C39   O24   A    
