data_mof_unit_1463.cif
_audit_creation_date              2012-12-11T20:21:51-0500
_audit_creation_method            fapswitch 2.2
_symmetry_space_group_name_H-M    P1
_symmetry_Int_Tables_number       1
_space_group_crystal_system       triclinic
_cell_length_a                    8.276978
_cell_length_b                    17.460332
_cell_length_c                    26.962763
_cell_angle_alpha                 100.143689
_cell_angle_beta                  92.505665
_cell_angle_gamma                 81.206251
_cell_volume                      3790.0647388

loop_
_atom_site_label
_atom_site_type_symbol
_atom_type_description
_atom_site_fract_x
_atom_site_fract_y
_atom_site_fract_z
_atom_type_partial_charge
Ba1   Ba    Ba6+2 0.860160 0.462360 0.521850 1.695585
Ba2   Ba    Ba6+2 0.329680 0.537570 0.478140 1.706756
C1    C     C_3   0.538560 0.236580 0.689121 -0.283328
C2    C     C_3   0.604445 0.276317 0.649964 0.714273
C3    C     C_3   0.467438 0.688456 0.638557 0.407900
C4    C     C_3   0.407057 0.743320 0.686797 -0.240710
C5    C     C_3   0.944186 0.762755 0.350085 0.283484
C6    C     C_3   0.977728 0.764705 0.294904 0.613714
C7    C     C_3   0.486031 0.738421 0.334291 0.433091
C8    C     C_3   0.390003 0.801315 0.307629 -0.198595
C9    C     C_R   0.101902 0.479353 0.188011 0.700388
C10   C     C_R   0.817952 0.512633 0.167923 0.650686
C11   C     C_2   0.779391 0.568213 0.278341 -0.008823
C12   C     C_3   0.110892 0.273772 0.645096 0.417297
C13   C     C_3   0.745838 0.585048 0.334367 -0.139731
C14   C     C_1   0.976677 0.481490 0.342860 0.027415
C15   C     C_2   0.000669 0.464237 0.293492 -0.077664
C16   C     C_2   0.901519 0.511490 0.257932 0.250856
C17   C     C_R   0.018750 0.491787 0.101450 -0.125555
C18   C     C_R   0.141273 0.468218 0.136019 -0.091072
C19   C     C_R   0.299153 0.435752 0.117295 0.446482
C20   C     C_R   0.856301 0.513909 0.117555 -0.006565
C21   C     C_2   0.850583 0.530252 0.363697 -0.235565
C22   C     C_2   0.342804 0.476760 0.640266 -0.280604
C23   C     C_3   0.090472 0.235187 0.690361 -0.287120
C24   C     C_R   0.245677 0.451437 0.979464 0.056152
C25   C     C_R   0.984038 0.536223 0.969373 -0.032019
C26   C     C_R   0.133618 0.493794 0.948998 0.022194
C27   C     C_R   0.384538 0.403543 0.956198 -0.099492
C28   C     C_R   0.413706 0.399138 0.905101 -0.050602
C29   C     C_R   0.310221 0.445241 0.875570 -0.007999
C30   C     C_R   0.172482 0.494283 0.897947 -0.081211
C31   C     C_R   0.074499 0.544230 0.869480 -0.090667
C32   C     C_R   0.120154 0.547486 0.819878 0.625574
C33   C     C_R   0.341330 0.442745 0.824031 0.588664
C34   C     C_3   0.222970 0.299666 0.412083 0.298114
C35   C     C_2   0.449302 0.485400 0.728950 -0.085584
C36   C     C_3   0.488322 0.486710 0.674644 -0.021350
C37   C     C_1   0.199920 0.512166 0.657221 0.064427
C38   C     C_2   0.159937 0.510696 0.704359 -0.112718
C39   C     C_2   0.291081 0.496430 0.744004 0.186643
C40   C     C_R   0.214379 0.458091 0.031867 -0.029805
C41   C     C_R   0.057553 0.491967 0.050329 0.056229
C42   C     C_R   0.937664 0.524791 0.017721 0.059729
C43   C     C_R   0.333219 0.430693 0.066311 -0.121508
C44   C     C_R   0.734115 0.534675 0.082457 -0.026573
C45   C     C_3   0.258411 0.210749 0.396696 -0.363161
C46   C     C_R   0.891449 0.589800 0.940924 0.350151
C47   C     C_R   0.936883 0.592805 0.891974 -0.041726
C48   C     C_R   0.774124 0.540203 0.033616 -0.041903
C49   C     C_2   0.454193 0.280212 0.516400 -0.229561
C50   C     C_3   0.380454 0.228835 0.545936 -0.005707
C51   C     C_2   0.432222 0.142122 0.528818 -0.046363
C52   C     C_2   0.557053 0.115941 0.496492 0.031426
C53   C     C_2   0.635699 0.174658 0.475512 -0.071161
C54   C     C_1   0.576627 0.250579 0.485586 0.085165
C55   C     C_R   0.781565 0.859751 0.465802 -0.025976
C56   C     C_3   0.986999 0.709752 0.596458 0.237596
C57   C     C_R   0.850606 0.781225 0.464755 0.029597
C58   C     C_R   0.617809 0.758778 0.508903 0.057889
C59   C     C_R   0.548665 0.837491 0.510483 -0.058013
C60   C     C_R   0.629108 0.888762 0.488725 0.063443
C61   C     C_2   0.630895 0.031567 0.485946 -0.027698
C62   C     C_2   0.551373 0.972123 0.492409 -0.060548
C63   C     C_R   0.767616 0.731052 0.485835 -0.257985
C64   C     C_3   0.978740 0.797081 0.619441 0.583788
C65   C     C_3   0.701611 0.355279 0.366394 0.259386
C66   C     C_3   0.710225 0.327834 0.309138 -0.087098
H1    H     H_    0.350542 0.194998 0.366441 0.123121
H2    H     H_    0.306319 0.183232 0.429395 0.056208
H3    H     H_    0.144303 0.187279 0.382773 0.139115
H4    H     H_    0.865416 0.697114 0.581650 0.016982
H5    H     H_    0.075568 0.694597 0.565421 0.043501
H6    H     H_    0.087916 0.805446 0.643683 0.046814
H7    H     H_    0.824250 0.367979 0.380496 -0.012332
H8    H     H_    0.610190 0.409553 0.375112 0.058059
H9    H     H_    0.640747 0.209294 0.711342 0.149853
H10   H     H_    0.768274 0.369800 0.291341 0.052812
H11   H     H_    0.789268 0.269154 0.301129 0.137242
H12   H     H_    0.498921 0.304444 0.629494 -0.126592
H13   H     H_    0.467881 0.190096 0.670296 0.091703
H14   H     H_    0.359632 0.665263 0.618843 0.013071
H15   H     H_    0.339126 0.799075 0.677822 0.125534
H16   H     H_    0.325920 0.714647 0.707163 0.084491
H17   H     H_    0.511856 0.758263 0.711913 0.161456
H18   H     H_    0.457111 0.280688 0.715165 0.105701
H19   H     H_    0.116720 0.275283 0.725592 0.066177
H20   H     H_    0.874323 0.714087 0.351665 -0.026106
H21   H     H_    0.869977 0.819642 0.365889 -0.047404
H22   H     H_    0.048523 0.812735 0.292758 0.031312
H23   H     H_    0.601272 0.718526 0.313614 0.037601
H24   H     H_    0.468419 0.845814 0.303193 0.124274
H25   H     H_    0.284169 0.832319 0.330557 0.094123
H26   H     H_    0.024721 0.329386 0.648089 0.098998
H27   H     H_    0.348600 0.774653 0.269675 0.164530
H28   H     H_    0.080460 0.410656 0.278334 0.099510
H29   H     H_    0.549966 0.481201 0.755940 0.127542
H30   H     H_    0.520521 0.360458 0.889005 0.126422
H31   H     H_    0.469729 0.366249 0.976237 0.082293
H32   H     H_    0.456396 0.406588 0.054765 0.105140
H33   H     H_    0.712729 0.608578 0.255843 0.150336
H34   H     H_    0.606596 0.547959 0.092835 0.136218
H35   H     H_    0.237244 0.287894 0.646525 -0.147682
H36   H     H_    0.864334 0.634725 0.871654 0.169112
H37   H     H_    0.032810 0.520673 0.714423 0.160553
H38   H     H_    0.674108 0.552697 0.007819 0.134135
H39   H     H_    0.823816 0.535253 0.403307 0.069183
H40   H     H_    0.355513 0.443541 0.602275 0.060697
H41   H     H_    0.423847 0.984963 0.502914 0.078093
H42   H     H_    0.741161 0.154381 0.451492 0.074760
H43   H     H_    0.848239 0.896935 0.449049 0.046339
H44   H     H_    0.757116 0.019713 0.474355 0.093794
H45   H     H_    0.379326 0.102564 0.547994 0.086453
H46   H     H_    0.963791 0.222263 0.691577 0.179092
H47   H     H_    0.434492 0.859228 0.529867 0.109759
H48   H     H_    0.417077 0.343267 0.525744 0.057995
H49   H     H_    0.822057 0.670699 0.485972 0.052321
H50   H     H_    0.176529 0.179328 0.688087 0.122913
H51   H     H_    0.338344 0.322650 0.423616 -0.004445
H52   H     H_    0.138137 0.313895 0.444184 0.087211
N1    N     N_R   0.940671 0.500190 0.203870 -0.432368
N2    N     N_R   0.250166 0.495441 0.796586 -0.420738
O1    O     O_2   0.906370 0.542040 0.619810 -0.463038
O2    O     O_3   0.658310 0.294103 0.388233 -0.646340
O3    O     O_3   0.077776 0.222986 0.600461 -0.524089
O4    O     O_2   0.283330 0.457940 0.380160 -0.445827
O5    O     O_3   0.051340 0.457960 0.440360 -0.503047
O6    O     O_3   0.503130 0.601610 0.416130 -0.475714
O7    O     O_3   0.153108 0.331763 0.370798 -0.642678
O8    O     O_3   0.616890 0.595000 0.528820 -0.494570
O9    O     O_3   0.087820 0.642040 0.442240 -0.461196
O10   O     O_2   0.188659 0.778862 0.472244 -0.454020
O11   O     O_3   0.093041 0.752425 0.377167 -0.581826
O12   O     O_3   0.138370 0.541980 0.559630 -0.494621
O13   O     O_3   0.572820 0.404940 0.471170 -0.497884
O14   O     O_2   0.345130 0.693150 0.532000 -0.470546
O15   O     O_3   0.546095 0.730982 0.609720 -0.586526
O16   O     O_2   0.447950 0.521781 0.325315 -0.427695
O17   O     O_3   0.396186 0.675392 0.333210 -0.500328
O18   O     O_2   0.212159 0.473482 0.219236 -0.483624
O19   O     O_2   0.448701 0.392739 0.803589 -0.608101
O20   O     O_2   0.674451 0.522507 0.179584 -0.527366
O21   O     O_2   0.045466 0.597944 0.797986 -0.580891
O22   O     O_3   0.686580 0.398330 0.583860 -0.457299
O23   O     O_2   0.824484 0.453223 0.670737 -0.492356
O24   O     O_3   0.037197 0.667086 0.635091 -0.646558
O25   O     O_3   0.704484 0.329697 0.674590 -0.604759
O26   O     O_2   0.844570 0.306830 0.467970 -0.450366
O27   O     O_3   0.101900 0.357890 0.557750 -0.503123
O28   O     O_2   0.068270 0.217349 0.502439 -0.470370
P1    P     P_3+3 0.071770 0.565500 0.613330 0.996328
P2    P     P_3+3 0.664870 0.318630 0.453960 0.991012
P3    P     P_3+3 0.155443 0.255977 0.550124 0.992209
P4    P     P_3+3 0.117940 0.434440 0.386660 0.994087
P5    P     P_3+3 0.054058 0.741892 0.438929 1.017536
P6    P     P_3+3 0.671625 0.417283 0.650033 0.985105
P7    P     P_3+3 0.531843 0.694944 0.544930 0.984372
P8    P     P_3+3 0.524490 0.594443 0.350950 1.037680
Cl1   Cl    Cl    0.725947 0.203061 0.607168 -0.660696
Cl2   Cl    Cl    0.803826 0.830591 0.657870 -0.578723
Cl3   Cl    Cl    0.978508 0.858134 0.573401 -0.680245
N3    N     N_3   0.547301 0.321379 0.286114 -0.422102
H53   H     H_    0.479696 0.292931 0.307613 0.209424
H54   H     H_    0.483727 0.378276 0.285807 0.254366
N4    N     N_3   0.583515 0.624010 0.652226 -0.524853
H55   H     H_    0.609586 0.582629 0.619616 0.186868
H56   H     H_    0.691823 0.645198 0.665501 0.231022
Cl4   Cl    Cl    0.087653 0.673630 0.265210 -0.592789
Cl5   Cl    Cl    0.793692 0.784905 0.259961 -0.692820
N5    N     N_3   0.520866 0.774403 0.385886 -0.524181
H57   H     H_    0.611937 0.736100 0.400443 0.098183
H58   H     H_    0.416552 0.779509 0.407432 0.223015
Cl6   Cl    Cl    0.456668 0.392373 0.154301 -0.572064
Cl7   Cl    Cl    0.737456 0.666134 0.966821 -0.625191

loop_
_geom_bond_atom_site_label_1
_geom_bond_atom_site_label_2
_ccdc_geom_bond_type
C25   C46   A    
C53   C54   D    
N4    H55   S    
C37   P1    S    
C17   C18   A    
C36   P6    S    
C9    O18   D    
C65   O2    S    
C7    H23   S    
C47   H36   S    
C64   Cl2   S    
C12   H35   S    
O6    P8    S    
C55   C60   A    
C51   C52   D    
C50   C51   S    
C44   H34   S    
Ba2   O12   S    
C12   O3    S    
C11   C16   D    
C34   C45   S    
O8    P7    S    
C3    C4    S    
C35   C36   S    
C2    H12   S    
C28   C29   A    
C55   C57   A    
C2    Cl1   S    
N5    H57   S    
C31   C47   A    
O13   P2    S    
C5    H21   S    
C10   C20   A    
C23   H19   S    
O10   P5    D    
Ba1   P2    S    
C49   C54   D    
C61   H44   S    
C34   H51   S    
O27   P3    S    
C45   H1    S    
C60   C62   S    
C6    Cl4   S    
O23   P6    D    
C25   C42   A    
C56   C64   S    
C10   N1    Am   
C5    H20   S    
O17   P8    S    
O3    P3    S    
C14   C15   D    
O28   P3    D    
C1    H13   S    
C22   C36   S    
Ba1   O27   S    
C22   H40   S    
C3    N4    S    
C54   P2    S    
C7    C8    S    
N3    H54   S    
Ba2   O5    S    
C66   H11   S    
C13   C21   S    
O2    P2    S    
C8    H24   S    
C32   N2    Am   
C23   H50   S    
C1    H18   S    
C7    N5    S    
C9    N1    Am   
C19   C43   A    
O5    P4    S    
C35   H29   S    
C17   C41   A    
Ba2   O9    S    
C46   Cl7   S    
C66   H10   S    
C9    C18   A    
O1    P1    D    
C32   O21   D    
C4    H16   S    
C27   H31   S    
C49   C50   S    
O26   P2    D    
C26   C30   A    
C17   C20   A    
C58   P7    S    
C13   P8    S    
Ba1   O8    S    
C37   C38   D    
C57   P5    S    
C49   H48   S    
C8    H25   S    
C50   P3    S    
C2    O25   S    
Ba2   O14   S    
C65   C66   S    
C64   Cl3   S    
C58   C59   A    
C40   C43   A    
C39   N2    S    
O22   P6    S    
C41   C42   A    
Ba1   O1    S    
C45   H2    S    
C59   H47   S    
C27   C28   A    
C64   H6    S    
O16   P8    D    
C51   H45   S    
C29   C30   A    
C10   O20   D    
C21   H39   S    
C15   C16   S    
C15   H28   S    
C3    O15   S    
O25   P6    S    
C4    H17   S    
C45   H3    S    
C33   O19   D    
O14   P7    D    
O4    P4    D    
C46   C47   A    
C20   C44   A    
C58   C63   A    
C14   C21   D    
C19   Cl6   S    
C11   C13   S    
C53   H42   S    
C14   P4    S    
C29   C33   A    
C6    H22   S    
C40   C41   A    
C11   H33   S    
C1    C2    S    
C1    H9    S    
Ba2   O4    S    
C6    Cl5   S    
C24   C40   A    
N3    H53   S    
C42   C48   A    
C44   C48   A    
C52   C53   S    
C38   C39   S    
C4    H15   S    
O11   P5    S    
C33   N2    Am   
Ba1   O5    S    
C61   C62   D    
C43   H32   S    
C56   O24   S    
C5    O11   S    
C66   N3    S    
C28   H30   S    
C24   C26   A    
Ba2   O13   S    
O15   P7    S    
C30   C31   A    
O9    P5    S    
Ba1   O22   S    
Ba1   O13   S    
C34   O7    S    
C57   C63   A    
C3    H14   S    
C7    O17   S    
C56   H4    S    
C62   H41   S    
C55   H43   S    
N5    H58   S    
C8    H27   S    
O12   P1    S    
Ba1   Ba2   S    
Ba2   O8    S    
C31   C32   A    
Ba1   P1    S    
C12   C23   S    
C35   C39   D    
C59   C60   A    
C34   H52   S    
C5    C6    S    
C16   N1    S    
O24   P1    S    
C65   H7    S    
C18   C19   A    
C24   C27   A    
N4    H56   S    
C52   C61   S    
Ba2   P4    S    
C25   C26   A    
C48   H38   S    
C63   H49   S    
Ba1   O26   S    
C65   H8    S    
C23   H46   S    
C22   C37   D    
C12   H26   S    
O7    P4    S    
Ba1   O12   S    
C56   H5    S    
C38   H37   S    
Ba2   O6    S    
