data_mof_unit_359.cif
_audit_creation_date              2012-12-11T17:25:11-0500
_audit_creation_method            fapswitch 2.2
_symmetry_space_group_name_H-M    P1
_symmetry_Int_Tables_number       1
_space_group_crystal_system       triclinic
_cell_length_a                    6.954117
_cell_length_b                    20.540143
_cell_length_c                    24.503394
_cell_angle_alpha                 90.086486
_cell_angle_beta                  90.473255
_cell_angle_gamma                 89.456173
_cell_volume                      3499.74882482

loop_
_atom_site_label
_atom_site_type_symbol
_atom_type_description
_atom_site_fract_x
_atom_site_fract_y
_atom_site_fract_z
_atom_type_partial_charge
O1    O     O_R   0.507280 0.423750 0.460310 -0.537649
O2    O     O_R   0.171030 0.555650 0.437630 -0.528637
O3    O     O_R   0.004080 0.576250 0.539690 -0.535020
C1    C     C_R   0.338973 0.575665 0.421797 0.716823
O4    O     O_R   0.177330 0.422980 0.453960 -0.539551
O5    O     O_R   0.010420 0.442640 0.556140 -0.536059
C2    C     C_R   0.346227 0.399125 0.443244 0.688762
O6    O     O_R   0.500930 0.557360 0.443860 -0.536309
O7    O     O_3   0.340310 0.506600 0.533500 -0.366882
V1    V     V_3+5 0.064140 0.498780 0.493780 1.448937
O8    O     O_R   0.680890 0.444350 0.562370 -0.537395
C3    C     C_R   0.850623 0.424447 0.578157 0.722503
O9    O     O_R   0.674590 0.577020 0.546040 -0.537431
C4    C     C_R   0.842703 0.600894 0.556747 0.703671
V2    V     V_3+5 0.564550 0.501220 0.506220 1.440501
O10   O     O_3   0.838250 0.493400 0.466500 -0.366539
C5    C     C_R   0.976504 0.838177 0.911217 -0.041306
C6    C     C_R   0.847534 0.661353 0.589232 -0.049885
C7    C     C_R   0.039506 0.722592 0.906829 -0.115955
C8    C     C_R   0.025463 0.779889 0.936825 -0.169640
C9    C     C_R   0.937190 0.838636 0.854932 -0.197577
C10   C     C_R   0.950988 0.780672 0.822864 0.080223
C11   C     C_R   0.009624 0.722138 0.849727 0.061280
C12   C     C_R   0.910046 0.779179 0.765256 0.062187
C13   C     C_R   0.929158 0.719477 0.735257 0.035885
C14   C     C_R   0.992500 0.663493 0.763490 -0.219284
C15   C     C_R   0.034645 0.664191 0.819318 -0.031567
C16   C     C_R   0.849188 0.835460 0.736632 -0.178745
C17   C     C_R   0.809010 0.833841 0.681102 -0.199983
C18   C     C_R   0.825517 0.776177 0.651471 0.137726
C19   C     C_R   0.885746 0.717804 0.677697 0.098203
C20   C     C_R   0.779212 0.776637 0.595603 -0.160246
C21   C     C_R   0.788708 0.719671 0.564942 -0.160260
C22   C     C_R   0.896554 0.660272 0.645046 -0.209731
H1    H     H_    0.936770 0.613526 0.661614 0.103169
H2    H     H_    0.748565 0.720952 0.522129 0.119181
H3    H     H_    0.762467 0.878438 0.661151 0.123991
H4    H     H_    0.073546 0.678651 0.929214 0.148287
H5    H     H_    0.054703 0.778825 0.980329 0.108175
H6    H     H_    0.016284 0.617997 0.742666 0.148966
H7    H     H_    0.829575 0.882104 0.755899 0.122919
H8    H     H_    0.732688 0.821214 0.575660 0.117801
C23   C     C_R   0.736581 0.287963 0.742918 -0.190564
H9    H     H_    0.607256 0.316892 0.736448 0.161806
C24   C     C_R   0.890072 0.295495 0.706776 0.110319
C25   C     C_R   0.057236 0.257971 0.714441 -0.122810
H10   H     H_    0.177468 0.263141 0.686995 0.117395
C26   C     C_R   0.071016 0.213364 0.757572 -0.156364
H11   H     H_    0.202249 0.185057 0.762581 0.138252
C27   C     C_R   0.918378 0.205344 0.794095 0.046285
C28   C     C_R   0.747382 0.243169 0.786692 -0.009232
C29   C     C_1   0.875142 0.341375 0.661605 -0.035697
C30   C     C_1   0.942954 0.159062 0.838884 0.019299
C31   C     C_1   0.959962 0.120740 0.876445 -0.133438
C32   C     C_1   0.863076 0.379434 0.623730 -0.181379
C33   C     C_R   0.575054 0.749857 0.220352 -0.122119
H12   H     H_    0.708173 0.748175 0.197714 0.126792
C34   C     C_R   0.432470 0.795860 0.206994 0.109980
C35   C     C_R   0.261488 0.796842 0.237064 -0.207266
H13   H     H_    0.151144 0.832231 0.226216 0.159609
C36   C     C_R   0.230585 0.752513 0.280329 -0.012561
C37   C     C_R   0.377049 0.706055 0.293609 0.047249
C38   C     C_R   0.547614 0.705584 0.263131 -0.168044
C39   C     C_1   0.458796 0.841427 0.161921 -0.037439
C40   C     C_1   0.359865 0.659525 0.338594 0.029291
C41   C     C_1   0.347978 0.621072 0.376262 -0.145220
C42   C     C_1   0.475141 0.879386 0.124063 -0.187076
C43   C     C_R   0.472586 0.161579 0.089068 -0.048879
C44   C     C_R   0.352382 0.338547 0.410934 -0.041613
C45   C     C_R   0.533504 0.277028 0.094802 -0.156804
C46   C     C_R   0.524853 0.219879 0.064375 -0.160208
C47   C     C_R   0.429485 0.160682 0.145055 -0.214464
C48   C     C_R   0.440642 0.218309 0.177458 0.088032
C49   C     C_R   0.493376 0.276748 0.150849 0.135931
C50   C     C_R   0.404118 0.220012 0.235130 0.056978
C51   C     C_R   0.421042 0.280125 0.264867 0.057607
C52   C     C_R   0.473325 0.336496 0.235907 -0.185729
C53   C     C_R   0.508180 0.334658 0.180239 -0.196771
C54   C     C_R   0.351867 0.163637 0.264088 -0.184038
C55   C     C_R   0.316995 0.165472 0.319752 -0.197502
C56   C     C_R   0.331745 0.223383 0.349140 0.137422
C57   C     C_R   0.384479 0.281828 0.322538 0.086812
C58   C     C_R   0.291534 0.223095 0.405178 -0.159970
C59   C     C_R   0.300094 0.280240 0.435607 -0.168083
C60   C     C_R   0.395560 0.339456 0.354948 -0.213900
H14   H     H_    0.548521 0.379310 0.159939 0.127018
H15   H     H_    0.432361 0.386014 0.338008 0.094096
H16   H     H_    0.264458 0.279095 0.478561 0.106392
H17   H     H_    0.276666 0.120817 0.340050 0.127699
H18   H     H_    0.574501 0.321601 0.074528 0.122751
H19   H     H_    0.560370 0.221015 0.021410 0.126067
H20   H     H_    0.392645 0.114129 0.161996 0.095432
H21   H     H_    0.335886 0.116820 0.244899 0.126516
H22   H     H_    0.250513 0.178518 0.425443 0.115233
O11   O     O_R   0.323320 0.942780 0.056240 -0.536798
O12   O     O_R   0.647300 0.077050 0.046060 -0.537991
O13   O     O_R   0.813840 0.057330 0.943840 -0.525770
C61   C     C_R   0.478507 0.100993 0.056775 0.703258
O14   O     O_R   0.653250 0.944380 0.062400 -0.537656
O15   O     O_R   0.819830 0.923720 0.960300 -0.537499
C62   C     C_R   0.485216 0.924463 0.078304 0.718207
O16   O     O_R   0.317330 0.076390 0.039790 -0.536121
O17   O     O_3   0.483830 0.993470 0.966560 -0.363214
V3    V     V_3+5 0.760140 0.001210 0.006210 1.448981
O18   O     O_R   0.149290 0.922840 0.953850 -0.538837
C63   C     C_R   0.981086 0.899049 0.943160 0.687801
O19   O     O_R   0.143340 0.055500 0.937510 -0.534868
C64   C     C_R   0.973552 0.075513 0.921822 0.720764
V4    V     V_3+5 0.259690 0.998600 0.993650 1.451346
O20   O     O_3   0.986130 0.006520 0.033440 -0.370021
C65   C     C_2   0.112814 0.603205 0.843812 0.758939
O21   O     O_2   0.037715 0.551063 0.833097 -0.543942
O22   O     O_R   0.277256 0.604951 0.877007 -0.665052
H23   H     H_    0.317630 0.560205 0.890531 0.306576
C66   C     C_2   0.577751 0.237710 0.823250 0.730323
O23   O     O_2   0.560957 0.191234 0.853899 -0.566376
O24   O     O_R   0.434327 0.285944 0.822080 -0.660858
H24   H     H_    0.325973 0.276854 0.848361 0.304197
H25   H     H_    0.661060 0.670800 0.272652 0.148353
C67   C     C_2   0.044629 0.756690 0.310184 0.729604
O25   O     O_2   0.996475 0.713564 0.341421 -0.566697
O26   O     O_R   0.922300 0.810351 0.302071 -0.670278
H26   H     H_    0.800315 0.807752 0.324322 0.302324
H27   H     H_    0.489343 0.383309 0.255103 0.124208
H28   H     H_    0.901156 0.885322 0.837563 0.090464

loop_
_geom_bond_atom_site_label_1
_geom_bond_atom_site_label_2
_ccdc_geom_bond_type
C13   C19   A    
C1    C41   S    
C48   C50   A    
C48   C49   A    
C4    C6    S    
O2    C1    A    
C65   O21   D    
C1    O6    A    
C14   H6    S    
C21   H2    S    
C56   C57   A    
C44   C60   A    
C52   C53   A    
C14   C15   A    
C17   C18   A    
C9    C10   A    
C16   C17   A    
C54   H21   S    
O5    C3    A    
C18   C19   A    
C47   H20   S    
C17   H3    S    
V2    O10   S    
C16   H7    S    
O15   V3    S    
C5    C8    A    
C33   H12   S    
C22   H1    S    
C55   H17   S    
O13   C64   A    
O8    V2    S    
C7    C8    A    
C66   O24   S    
O12   C61   A    
C45   C49   A    
O11   C62   A    
O19   C64   A    
C45   C46   A    
O1    V2    S    
C11   C15   A    
O7    V1    S    
C29   C32   T    
C53   H14   S    
C26   C27   A    
O14   V3    S    
C15   C65   S    
C35   H13   S    
O9    C4    A    
C36   C67   S    
O19   V4    S    
C45   H18   S    
C56   C58   A    
C67   O26   S    
C60   H15   S    
C34   C39   S    
C25   C26   A    
C35   C36   A    
C27   C30   S    
C3    C32   S    
C39   C42   T    
C59   H16   S    
C12   C13   A    
O11   V4    S    
C51   C57   A    
O4    C2    A    
C8    H5    S    
C55   C56   A    
C24   C29   S    
C13   C14   A    
C61   O16   A    
C58   H22   S    
C28   C66   S    
C7    C11   A    
C50   C51   A    
C2    C44   S    
C37   C38   A    
C7    H4    S    
C38   H25   S    
C58   C59   A    
C43   C47   A    
C27   C28   A    
C33   C38   A    
C65   O22   S    
C51   C52   A    
C6    C22   A    
O3    C4    A    
C26   H11   S    
O14   C62   A    
O6    V2    S    
O12   V3    S    
C23   H9    S    
C10   C12   A    
V3    O20   S    
C9    H28   S    
O2    V1    S    
C19   C22   A    
C67   O25   D    
C42   C62   S    
C44   C59   A    
O22   H23   S    
O18   V4    S    
C25   H10   S    
C37   C40   S    
O1    C2    A    
C12   C16   A    
C47   C48   A    
O5    V1    S    
O8    C3    A    
C30   C31   T    
C57   C60   A    
O18   C63   A    
O15   C63   A    
C31   C64   S    
O17   V4    S    
C20   C21   A    
O9    V2    S    
C34   C35   A    
O4    V1    S    
C23   C24   A    
C52   H27   S    
V1    O10   S    
C5    C63   S    
C18   C20   A    
C23   C28   A    
C43   C46   A    
C33   C34   A    
O7    V2    S    
C36   C37   A    
C6    C21   A    
C43   C61   S    
O13   V3    S    
C54   C55   A    
C24   C25   A    
C46   H19   S    
C40   C41   T    
C49   C53   A    
V4    O20   S    
O17   V3    S    
O3    V1    S    
C20   H8    S    
C10   C11   A    
O16   V4    S    
O26   H26   S    
O24   H24   S    
C50   C54   A    
C66   O23   D    
C5    C9    A    
