data_mof_unit_3190.cif
_audit_creation_date              2013-03-05T15:56:47-0500
_audit_creation_method            fapswitch 2.2
_symmetry_space_group_name_H-M    P1
_symmetry_Int_Tables_number       1
_space_group_crystal_system       triclinic
_cell_length_a                    6.928556
_cell_length_b                    14.56285
_cell_length_c                    16.071944
_cell_angle_alpha                 90.084035
_cell_angle_beta                  90.268817
_cell_angle_gamma                 89.702211
_cell_volume                      1621.61002563

loop_
_atom_site_label
_atom_site_type_symbol
_atom_site_description
_atom_site_fract_x
_atom_site_fract_y
_atom_site_fract_z
_atom_type_partial_charge
O1    O     O_R   0.638180 0.333920 0.163320 -0.597248
O2    O     O_R   0.361820 0.666080 0.836680 -0.597250
O3    O     O_R   0.308470 0.344960 0.336080 -0.593983
O4    O     O_R   0.691530 0.655040 0.663920 -0.593992
O5    O     O_R   0.138140 0.166110 0.336680 -0.584839
O6    O     O_R   0.861860 0.833890 0.663320 -0.584776
C1    C     C_R   0.477551 0.367258 0.364999 0.959507
C2    C     C_R   0.522449 0.632742 0.635001 0.959503
O7    O     O_R   0.308460 0.344950 0.163930 -0.599245
O8    O     O_R   0.691540 0.655050 0.836070 -0.599249
O9    O     O_R   0.138140 0.166100 0.163310 -0.603496
O10   O     O_R   0.861860 0.833900 0.836690 -0.603508
C3    C     C_R   0.477151 0.367258 0.134968 0.929120
C4    C     C_R   0.522849 0.632742 0.865032 0.929111
O11   O     O_R   0.638180 0.333930 0.336700 -0.593740
O12   O     O_R   0.361820 0.666070 0.663300 -0.593746
O13   O     O_3   0.471670 0.191340 0.250000 -0.290359
O14   O     O_3   0.528330 0.808660 0.750000 -0.290321
V1    V     V_3+5 0.196830 0.260900 0.250000 1.179512
V2    V     V_3+5 0.803170 0.739100 0.750000 1.179542
O15   O     O_R   0.808420 0.155070 0.163920 -0.607961
O16   O     O_R   0.191580 0.844930 0.836080 -0.607962
C5    C     C_R   0.977359 0.133350 0.134545 0.987536
C6    C     C_R   0.022641 0.866650 0.865454 0.987542
O17   O     O_R   0.808420 0.155080 0.336070 -0.602020
O18   O     O_R   0.191580 0.844920 0.663930 -0.602021
C7    C     C_R   0.979092 0.131496 0.363367 1.051439
C8    C     C_R   0.020908 0.868502 0.636631 1.051466
V3    V     V_3+5 0.696830 0.239130 0.250000 1.166492
V4    V     V_3+5 0.303170 0.760870 0.750000 1.166521
O19   O     O_3   0.971850 0.308690 0.250010 -0.270999
O20   O     O_3   0.028150 0.691310 0.749990 -0.271013
H1    H     H_    0.011726 0.812167 0.256176 0.196750
H2    H     H_    0.988311 0.187832 0.743823 0.196717
C9    C     C_R   0.013585 0.190940 0.533258 -0.347089
C10   C     C_R   0.986417 0.809058 0.466741 -0.347082
C11   C     C_R   0.017214 0.224397 0.614938 0.386802
C12   C     C_R   0.982795 0.775601 0.385061 0.386761
C13   C     C_R   0.995045 0.162842 0.680400 -0.385298
C14   C     C_R   0.004969 0.837156 0.319599 -0.385199
C15   C     C_R   0.973654 0.068702 0.665705 0.509752
C16   C     C_R   0.026348 0.931295 0.334294 0.509686
C17   C     C_R   0.994818 0.032559 0.583735 -0.040003
C18   C     C_R   0.005185 0.967439 0.416264 -0.040052
C19   C     C_R   0.001096 0.095696 0.516043 0.023080
C20   C     C_R   0.998906 0.904302 0.483956 0.023083
C21   C     C_R   0.003847 0.936413 0.567470 -0.229278
C22   C     C_R   0.996154 0.063585 0.432528 -0.229325
H3    H     H_    0.023591 0.240274 0.483264 0.161372
H4    H     H_    0.976407 0.759724 0.516734 0.161361
C23   C     C_R   0.177855 0.980028 0.963139 -0.123388
C24   C     C_R   0.822144 0.019973 0.036860 -0.123394
H5    H     H_    0.317266 0.965983 0.935567 0.112391
H6    H     H_    0.682733 0.034019 0.064432 0.112399
C25   C     C_R   0.166586 0.044110 0.027973 -0.151960
C26   C     C_R   0.833413 0.955892 0.972024 -0.151988
H7    H     H_    0.297864 0.077619 0.048208 0.113559
H8    H     H_    0.702135 0.922384 0.951790 0.113565
C27   C     C_R   0.988619 0.064900 0.065806 -0.103033
C28   C     C_R   0.011380 0.935101 0.934193 -0.103038
C29   C     C_R   0.327825 0.489465 0.455366 0.003277
C30   C     C_R   0.672176 0.510535 0.544634 0.003268
H9    H     H_    0.192932 0.482503 0.421717 0.171659
H10   H     H_    0.807068 0.517497 0.578283 0.171656
C31   C     C_R   0.338659 0.552857 0.520874 -0.032674
C32   C     C_R   0.661341 0.447143 0.479125 -0.032672
H11   H     H_    0.211821 0.593209 0.535827 0.152937
H12   H     H_    0.788179 0.406792 0.464173 0.152940
C33   C     C_R   0.511131 0.564407 0.566216 -0.218577
C34   C     C_R   0.488869 0.435593 0.433784 -0.218581
C35   C     C_R   0.320225 0.475100 0.031969 -0.121792
C36   C     C_R   0.679775 0.524900 0.968031 -0.121792
H13   H     H_    0.179295 0.456974 0.055481 0.124739
H14   H     H_    0.820704 0.543026 0.944519 0.124739
C37   C     C_R   0.331805 0.538591 0.966783 -0.110434
C38   C     C_R   0.668195 0.461409 0.033217 -0.110440
H15   H     H_    0.199024 0.567553 0.942285 0.126113
H16   H     H_    0.800976 0.432447 0.057715 0.126114
C39   C     C_R   0.511751 0.564402 0.933846 -0.131669
C40   C     C_R   0.488249 0.435598 0.066154 -0.131674
N1    N     N_R   0.038212 0.321058 0.631318 0.239772
O21   O     O_R   0.020599 0.353320 0.706490 -0.413436
O22   O     O_R   0.081074 0.377398 0.571619 -0.466211
N2    N     N_R   0.961804 0.678939 0.368680 0.239772
O23   O     O_R   0.979430 0.646678 0.293509 -0.413430
O24   O     O_R   0.918931 0.622600 0.428379 -0.466208
O25   O     O_3   0.922840 0.013678 0.731935 -0.653311
C41   C     C_3   0.723200 0.025975 0.746517 -0.156090
H17   H     H_    0.635965 0.006946 0.690740 0.137222
H18   H     H_    0.689104 0.097528 0.766166 0.124593
H19   H     H_    0.678525 0.980630 0.798055 0.170487
O26   O     O_3   0.077166 0.986310 0.268060 -0.653333
C42   C     C_3   0.276863 0.974113 0.253567 -0.155954
H20   H     H_    0.311257 0.902525 0.234129 0.124504
H21   H     H_    0.363916 0.993395 0.309318 0.137368
H22   H     H_    0.321468 0.019317 0.201917 0.170406

loop_
_geom_bond_atom_site_label_1
_geom_bond_atom_site_label_2
_geom_bond_distance
_ccdc_geom_bond_type
C7    C22   1.492781 S    
C29   C34   1.405190 A    
C32   H12   1.082391 S    
O25   C41   1.414432 S    
C8    C21   1.492781 S    
C42   H20   1.112836 S    
C25   C27   1.408692 A    
O13   V3    1.711535 S    
O4    C2    1.300864 A    
V1    O19   1.703790 S    
C1    C34   1.488423 S    
N1    O21   1.301685 A    
C13   C15   1.399309 A    
C5    C27   1.488979 S    
O9    V1    2.001846 S    
C2    C33   1.488423 S    
C9    C11   1.399745 A    
N2    O24   1.299802 A    
C36   C39   1.405718 A    
O3    C1    1.300864 A    
O12   V4    2.001644 S    
C29   H9    1.082742 S    
O7    C3    1.302976 A    
C30   H10   1.082742 S    
O5    C7    1.289668 A    
O7    V1    2.008681 S    
O6    C8    1.289667 A    
O8    V2    2.008679 S    
C31   H11   1.082391 S    
C9    H3    1.081349 S    
O3    V1    2.001421 S    
O14   V4    1.711535 S    
V4    O20   2.162662 S    
C23   C25   1.399978 A    
C36   C38   1.401199 A    
C14   C16   1.399290 A    
C3    C40   1.491443 S    
C42   H21   1.114207 S    
V3    O19   2.162664 S    
C15   C17   1.425862 A    
C11   N1    1.439682 S    
C16   C18   1.425866 A    
C35   C40   1.405717 A    
N1    O22   1.299801 A    
C24   H6    1.083002 S    
O11   V3    2.001642 S    
O17   V3    1.998653 S    
C15   O25   1.381316 S    
C35   C37   1.401200 A    
H1    C14   1.082988 S    
C30   C32   1.401243 A    
H2    C13   1.082985 S    
N2    O23   1.301686 A    
C36   H14   1.082745 S    
O8    C4    1.302978 A    
C35   H13   1.082745 S    
C1    O11   1.295961 A    
C18   C20   1.426438 A    
O15   V3    2.001388 S    
C26   C28   1.408692 A    
C30   C33   1.405191 A    
C23   H5    1.083002 S    
C24   C27   1.405993 A    
C17   C19   1.426438 A    
C41   H19   1.106391 S    
C6    C28   1.488980 S    
O10   V2    2.001848 S    
O1    V3    2.001485 S    
C4    C39   1.491442 S    
C10   C20   1.416959 A    
C37   H15   1.082737 S    
C41   H18   1.112889 S    
O18   V4    1.998654 S    
C42   H22   1.106370 S    
C25   H7    1.082851 S    
O16   C6    1.301500 A    
O1    C3    1.295518 A    
C10   C12   1.399745 A    
C9    C19   1.416955 A    
C10   H4    1.081351 S    
V2    O20   1.703788 S    
C19   C22   1.421040 A    
C20   C21   1.421035 A    
O16   V4    2.001388 S    
C16   O26   1.381299 S    
C12   N2    1.439682 S    
C38   C40   1.409816 A    
C38   H16   1.082737 S    
O5    V1    2.007100 S    
O17   C7    1.303883 A    
O6    V2    2.007103 S    
O10   C6    1.296991 A    
O18   C8    1.303882 A    
O2    V4    2.001482 S    
O15   C5    1.301501 A    
C11   C13   1.392764 A    
C18   C22   1.425078 A    
C12   C14   1.392764 A    
C32   C34   1.407438 A    
C37   C39   1.409816 A    
C31   C33   1.407439 A    
O9    C5    1.296993 A    
O26   C42   1.414406 S    
O13   V1    2.152266 S    
C26   H8    1.082851 S    
O14   V2    2.152266 S    
O2    C4    1.295519 A    
O4    V2    2.001423 S    
C29   C31   1.401243 A    
C41   H17   1.114296 S    
C2    O12   1.295960 A    
C23   C28   1.405992 A    
C17   C21   1.425080 A    
C24   C26   1.399978 A    
