data_mof_unit_4221.cif
_audit_creation_date              2012-12-10T18:09:52-0500
_audit_creation_method            fapswitch 2.2
_symmetry_space_group_name_H-M    P1
_symmetry_Int_Tables_number       1
_space_group_crystal_system       triclinic
_cell_length_a                    10.798756
_cell_length_b                    12.617715
_cell_length_c                    13.292895
_cell_angle_alpha                 82.34506
_cell_angle_beta                  94.354656
_cell_angle_gamma                 103.601311
_cell_volume                      1742.87687408

loop_
_atom_site_label
_atom_site_type_symbol
_atom_type_description
_atom_site_fract_x
_atom_site_fract_y
_atom_site_fract_z
_atom_type_partial_charge
Br1   Br    Br    0.856780 0.611708 0.284521 -0.576101
Br2   Br    Br    0.294526 0.437891 0.153406 -0.582874
Br3   Br    Br    0.342904 0.180745 0.757997 -0.391486
Br4   Br    Br    0.818545 0.353275 0.690136 -0.410870
Br5   Br    Br    0.766247 0.571220 0.764701 -0.515355
Br6   Br    Br    0.883298 0.967742 0.692882 -0.434792
Br7   Br    Br    0.121101 0.379571 0.710237 -0.358120
Br8   Br    Br    0.059815 0.246685 0.538460 -0.405517
C1    C     C_R   0.489257 0.439248 0.692084 0.979047
C2    C     C_R   0.497221 0.456292 0.973755 0.070888
C3    C     C_R   0.538472 0.479675 0.873662 -0.054725
C4    C     C_R   0.742510 0.502913 0.498533 1.022661
C5    C     C_R   0.519646 0.541748 0.036622 0.014973
C6    C     C_R   0.602076 0.644854 0.005374 0.074521
C7    C     C_R   0.660926 0.661448 0.912311 0.086446
C8    C     C_R   0.634814 0.576051 0.850434 0.286062
C9    C     C_R   0.463479 0.528007 0.130754 0.201315
C10   C     C_R   0.593955 0.701964 0.170869 -0.171935
C11   C     C_R   0.487533 0.402460 0.802901 -0.144090
C12   C     C_3   0.120241 0.495554 0.501139 -0.130316
C13   C     C_R   0.292256 0.078396 0.367096 -0.264340
C14   C     C_R   0.678819 0.810203 0.606544 -0.114135
C15   C     C_R   0.714973 0.915728 0.634474 0.231000
C16   C     C_R   0.507776 0.560634 0.309214 0.916792
C17   C     C_R   0.629061 0.984151 0.615482 0.080646
C18   C     C_R   0.528615 0.960016 0.540377 -0.032812
C19   C     C_R   0.497802 0.851492 0.512379 0.193579
C20   C     C_R   0.463478 0.038745 0.487256 0.021435
C21   C     C_R   0.359937 0.003673 0.417726 0.183513
C22   C     C_R   0.329841 0.896060 0.394387 -0.284510
C23   C     C_3   0.060722 0.500421 0.384871 0.212534
C24   C     C_R   0.401876 0.822876 0.437543 -0.189348
C25   C     C_R   0.502517 0.152626 0.493343 -0.025868
C26   C     C_R   0.329634 0.187877 0.383217 0.084590
C27   C     C_R   0.257556 0.497311 0.501964 0.921967
C28   C     C_3   0.903892 0.396778 0.561637 -0.035449
C29   C     C_3   0.046674 0.391539 0.570352 0.432576
C30   C     C_3   0.916257 0.504726 0.386737 0.058362
C31   C     C_3   0.964726 0.610702 0.541735 0.010055
C32   C     C_3   0.880022 0.506786 0.497388 -0.168518
C33   C     C_3   0.138413 0.600557 0.316125 -0.731447
C34   C     C_3   0.105212 0.603417 0.546841 -0.082883
C35   C     C_3   0.757267 0.767454 0.882961 -0.760086
C36   C     C_3   0.636851 0.067617 0.687920 -0.742973
C37   C     C_3   0.063636 0.399378 0.330041 -0.769238
C38   C     C_3   0.955096 0.727382 0.490367 -0.792624
C39   C     C_3   0.166214 0.628447 0.653901 -0.753733
C40   C     C_R   0.631294 0.726594 0.071846 -0.136036
C41   C     C_R   0.517043 0.599375 0.201898 -0.090226
C42   C     C_R   0.422194 0.294659 0.840656 0.312749
C43   C     C_R   0.409937 0.266311 0.944680 -0.141253
C44   C     C_R   0.446636 0.345691 0.010524 -0.128074
H1    H     H_    0.852996 0.328477 0.518370 0.153999
H2    H     H_    0.588407 0.188779 0.534133 0.160196
H3    H     H_    0.741452 0.754785 0.625004 0.197258
H4    H     H_    0.385196 0.745874 0.407528 0.202670
H5    H     H_    0.854460 0.428101 0.361658 0.146193
H6    H     H_    0.932853 0.606147 0.619223 0.245994
H7    H     H_    0.240651 0.598422 0.318026 0.208190
H8    H     H_    0.104258 0.599884 0.235180 0.289104
H9    H     H_    0.131563 0.680598 0.336566 0.212441
H10   H     H_    0.797031 0.770642 0.808724 0.282957
H11   H     H_    0.710940 0.837934 0.877647 0.230351
H12   H     H_    0.159137 0.674154 0.497327 0.211549
H13   H     H_    0.838424 0.777820 0.940087 0.262411
H14   H     H_    0.718197 0.137198 0.669213 0.294651
H15   H     H_    0.546825 0.095153 0.687554 0.255207
H16   H     H_    0.652969 0.030573 0.767059 0.256034
H17   H     H_    0.992168 0.324764 0.356831 0.232965
H18   H     H_    0.036776 0.414485 0.247882 0.278005
H19   H     H_    0.158752 0.380964 0.335492 0.281786
H20   H     H_    0.001116 0.749348 0.416732 0.257359
H21   H     H_    0.858148 0.741494 0.477067 0.281718
H22   H     H_    0.006544 0.789116 0.540333 0.248268
H23   H     H_    0.630897 0.760954 0.224221 0.187882
H24   H     H_    0.184426 0.718227 0.658177 0.237431
H25   H     H_    0.102002 0.588696 0.716153 0.287033
H26   H     H_    0.258351 0.604686 0.672062 0.276323
H27   H     H_    0.692004 0.806789 0.051681 0.165180
H28   H     H_    0.438252 0.318652 0.090776 0.185513
H29   H     H_    0.366795 0.182771 0.974732 0.177761
H30   H     H_    0.276630 0.246001 0.346379 0.157535
H31   H     H_    0.255074 0.870287 0.337724 0.159655
H32   H     H_    0.211871 0.052505 0.315033 0.162056
N1    N     N_R   0.433240 0.222190 0.444680 -0.108695
N2    N     N_R   0.566070 0.776970 0.554790 -0.141765
O1    O     O_R   0.468120 0.366740 0.627160 -0.554206
O2    O     O_R   0.510770 0.544830 0.662520 -0.606228
O3    O     O_R   0.663880 0.410950 0.482330 -0.637339
O4    O     O_R   0.706530 0.589040 0.517700 -0.604000
O5    O     O_R   0.489230 0.455170 0.337480 -0.594238
O6    O     O_R   0.531880 0.633260 0.372840 -0.645084
O7    O     O_R   0.293470 0.410960 0.482300 -0.584922
O8    O     O_R   0.336120 0.589050 0.517670 -0.661767
Zn1   Zn    Zn3+2 0.471520 0.381090 0.476390 1.023761
Zn2   Zn    Zn3+2 0.528480 0.618910 0.523610 0.952832

loop_
_geom_bond_atom_site_label_1
_geom_bond_atom_site_label_2
_ccdc_geom_bond_type
C30   C32   S    
O2    Zn2   S    
C4    C32   S    
C10   H23   S    
C37   H19   S    
C36   H14   S    
C33   H9    S    
C2    C44   A    
Br4   C28   S    
C35   H11   S    
C3    C11   A    
C18   C19   A    
C40   H27   S    
C4    O4    A    
C28   C29   S    
C39   H24   S    
C1    O2    A    
C7    C8    A    
C16   C41   S    
C22   H31   S    
C25   N1    A    
Br5   C8    S    
C28   H1    S    
C12   C27   S    
C1    C11   S    
O1    Zn1   S    
C43   H29   S    
C38   H20   S    
C14   N2    A    
C19   C24   A    
O7    Zn1   S    
C5    C6    A    
Br2   C9    S    
C16   O6    A    
C17   C36   S    
Br3   C42   S    
C31   C34   S    
C27   O7    A    
O6    Zn2   S    
C37   H17   S    
C43   C44   A    
C4    O3    A    
C28   C32   S    
C33   H7    S    
C9    C41   A    
C31   C32   S    
C6    C40   A    
C13   C26   A    
C17   C18   A    
C31   H6    S    
C13   C21   A    
C26   N1    A    
O3    Zn1   S    
C19   N2    A    
C21   C22   A    
C30   H5    S    
C3    C8    A    
C13   H32   S    
C35   H13   S    
C42   C43   A    
Br7   C29   S    
O8    Zn2   S    
N2    Zn2   S    
Br1   C30   S    
C31   C38   S    
C20   C25   A    
C36   H16   S    
Br8   C29   S    
C39   H25   S    
C16   O5    A    
C34   H12   S    
C38   H22   S    
C27   O8    A    
C25   H2    S    
C20   C21   A    
C23   C33   S    
C37   H18   S    
C14   C15   A    
C33   H8    S    
C2    C5    A    
C10   C40   A    
C12   C34   S    
O4    Zn2   S    
C14   H3    S    
C18   C20   A    
C23   C30   S    
C5    C9    A    
C7    C35   S    
C1    O1    A    
C22   C24   A    
C12   C29   S    
N1    Zn1   S    
C11   C42   A    
Br6   C15   S    
C34   C39   S    
C15   C17   A    
C2    C3    A    
O5    Zn1   S    
C35   H10   S    
C23   C37   S    
C6    C7    A    
C36   H15   S    
C26   H30   S    
C39   H26   S    
C44   H28   S    
C24   H4    S    
C38   H21   S    
C10   C41   A    
C12   C23   S    
