data_mof_unit_4828.cif
_audit_creation_date              2012-12-11T15:55:44-0500
_audit_creation_method            fapswitch 2.2
_symmetry_space_group_name_H-M    P1
_symmetry_Int_Tables_number       1
_space_group_crystal_system       triclinic
_cell_length_a                    6.937969
_cell_length_b                    14.546797
_cell_length_c                    16.093791
_cell_angle_alpha                 89.971236
_cell_angle_beta                  89.926152
_cell_angle_gamma                 90.00524
_cell_volume                      1624.26794337

loop_
_atom_site_label
_atom_site_type_symbol
_atom_type_description
_atom_site_fract_x
_atom_site_fract_y
_atom_site_fract_z
_atom_type_partial_charge
O1    O     O_R   0.505680 0.583900 0.413320 -0.540485
O2    O     O_R   0.176010 0.594950 0.586080 -0.543209
O3    O     O_R   0.005680 0.416100 0.586680 -0.536941
C1    C     C_R   0.344996 0.617141 0.615056 0.686505
O4    O     O_R   0.175960 0.594930 0.413930 -0.543663
O5    O     O_R   0.005640 0.416080 0.413300 -0.540720
C2    C     C_R   0.345081 0.617177 0.385016 0.687909
O6    O     O_R   0.505720 0.583920 0.586700 -0.540403
O7    O     O_3   0.339190 0.441320 0.500000 -0.369513
V1    V     V_3+5 0.064350 0.510890 0.500000 1.400333
O8    O     O_R   0.675920 0.405050 0.413920 -0.544443
C3    C     C_R   0.845076 0.382857 0.385034 0.719251
O9    O     O_R   0.675960 0.405070 0.586070 -0.543795
C4    C     C_R   0.844714 0.382985 0.614868 0.697770
V2    V     V_3+5 0.564340 0.489110 0.500000 1.397924
O10   O     O_3   0.839370 0.558680 0.500000 -0.370999
C5    C     C_R   0.006630 0.317713 0.741768 0.101068
C6    C     C_R   0.852617 0.317517 0.685494 -0.111809
C7    C     C_R   0.701389 0.255107 0.700722 -0.175483
H1    H     H_    0.579279 0.252442 0.659219 0.134108
C8    C     C_R   0.712682 0.190936 0.766194 -0.174550
H2    H     H_    0.598311 0.141046 0.773322 0.126297
C9    C     C_R   0.875861 0.186986 0.818240 -0.106234
C10   C     C_R   0.018255 0.253954 0.806318 0.103660
C11   C     C_3   0.229947 0.242394 0.794857 -0.408924
C12   C     C_3   0.217416 0.312262 0.724881 -0.397192
H3    H     H_    0.267360 0.172128 0.773124 0.166703
H4    H     H_    0.313260 0.267419 0.849285 0.177710
H5    H     H_    0.248435 0.282798 0.662576 0.172717
H6    H     H_    0.292650 0.377885 0.739008 0.169043
C13   C     C_R   0.042648 0.232357 0.211175 -0.216219
H7    H     H_    0.180419 0.220708 0.181408 0.209591
C14   C     C_R   0.032521 0.295982 0.276326 -0.148976
H8    H     H_    0.163117 0.331202 0.294832 0.141441
C15   C     C_R   0.856256 0.314469 0.316403 -0.133633
C16   C     C_R   0.690782 0.267307 0.289851 -0.233567
H9    H     H_    0.552913 0.279467 0.319522 0.145808
C17   C     C_R   0.700562 0.203151 0.225177 0.617544
C18   C     C_R   0.877228 0.184972 0.184464 -0.177809
C19   C     C_R   0.188105 0.724458 0.717822 -0.157046
H10   H     H_    0.047427 0.705929 0.694076 0.116823
C20   C     C_R   0.199261 0.788014 0.783006 -0.152428
H11   H     H_    0.066588 0.816627 0.807271 0.117100
C21   C     C_R   0.378765 0.814317 0.816224 -0.042332
C22   C     C_R   0.546789 0.775255 0.782346 -0.158265
H12   H     H_    0.687468 0.793784 0.806091 0.115202
C23   C     C_R   0.535633 0.711700 0.717162 -0.151420
H13   H     H_    0.668306 0.683087 0.692897 0.118864
C24   C     C_R   0.356134 0.685426 0.683921 -0.047265
C25   C     C_R   0.188228 0.724483 0.282426 -0.153625
H14   H     H_    0.047540 0.705883 0.306287 0.116938
C26   C     C_R   0.199325 0.788042 0.217209 -0.146469
H15   H     H_    0.066641 0.816598 0.193021 0.117829
C27   C     C_R   0.378822 0.814404 0.183857 -0.049339
C28   C     C_R   0.546915 0.775447 0.217627 -0.149687
H16   H     H_    0.687599 0.794052 0.193764 0.115084
C29   C     C_R   0.535818 0.711884 0.282846 -0.149131
H17   H     H_    0.668496 0.683326 0.307038 0.118455
C30   C     C_R   0.356315 0.685518 0.316192 -0.047610
O11   O     O_R   0.229200 0.915950 0.913350 -0.545923
O12   O     O_R   0.559090 0.905000 0.086080 -0.542116
O13   O     O_R   0.729280 0.083880 0.086680 -0.495900
C31   C     C_R   0.390002 0.882734 0.115024 0.717024
O14   O     O_R   0.558920 0.904980 0.913920 -0.549167
O15   O     O_R   0.729110 0.083860 0.913300 -0.543843
C32   C     C_R   0.389917 0.882693 0.885019 0.664541
O16   O     O_R   0.229360 0.915970 0.086730 -0.541794
O17   O     O_3   0.395680 0.058580 0.000030 -0.351829
V3    V     V_3+5 0.670570 0.989070 0.999990 1.454095
O18   O     O_R   0.058820 0.094950 0.913870 -0.544315
C33   C     C_R   0.889777 0.116850 0.884946 0.680204
O19   O     O_R   0.058990 0.094970 0.086020 -0.537515
C34   C     C_R   0.889614 0.116907 0.115258 0.745090
V4    V     V_3+5 0.170560 0.010930 0.999930 1.451116
O20   O     O_3   0.895590 0.941310 0.999960 -0.383125
F1    F     F_    0.536532 0.158341 0.203616 -0.705037

loop_
_geom_bond_atom_site_label_1
_geom_bond_atom_site_label_2
_ccdc_geom_bond_type
C28   H16   S    
C4    C6    S    
C21   C32   S    
C15   C16   A    
C1    O6    A    
C23   C24   A    
C17   F1    S    
C22   H12   S    
C21   C22   A    
C11   H4    S    
C5    C12   S    
C16   H9    S    
C7    C8    A    
O5    C3    A    
C17   C18   A    
C29   C30   A    
C27   C31   S    
O17   V4    S    
V2    O10   S    
C6    C7    A    
O12   C31   A    
O8    V2    S    
C13   H7    S    
O17   V3    S    
O18   V4    S    
C25   C26   A    
C9    C10   A    
C13   C14   A    
O13   C34   A    
O18   C33   A    
O1    V2    S    
O7    V1    S    
C19   C20   A    
O11   C32   A    
C8    H2    S    
C20   C21   A    
C2    C30   S    
C26   C27   A    
C14   H8    S    
C22   C23   A    
C8    C9    A    
C31   O16   A    
C5    C10   A    
V4    O20   S    
C9    C33   S    
C10   C11   S    
O19   V4    S    
O4    C2    A    
C25   H14   S    
C11   C12   S    
O15   C33   A    
O13   V3    S    
O14   C32   A    
O2    C1    A    
C23   H13   S    
C5    C6    A    
O16   V4    S    
O14   V3    S    
C3    C15   S    
O3    C4    A    
C19   H10   S    
C12   H6    S    
O6    V2    S    
C28   C29   A    
C20   H11   S    
C25   C30   A    
C16   C17   A    
O2    V1    S    
C26   H15   S    
O12   V3    S    
C27   C28   A    
O1    C2    A    
O19   C34   A    
O5    V1    S    
O8    C3    A    
C11   H3    S    
C1    C24   S    
C7    H1    S    
O9    V2    S    
O7    V2    S    
O4    V1    S    
O3    V1    S    
V1    O10   S    
C29   H17   S    
O15   V3    S    
O11   V4    S    
C14   C15   A    
C13   C18   A    
V3    O20   S    
C18   C34   S    
C12   H5    S    
O9    C4    A    
C19   C24   A    
