data_mof_unit_1081.cif
_audit_creation_date              2013-03-05T15:57:37-0500
_audit_creation_method            fapswitch 2.2
_symmetry_space_group_name_H-M    P1
_symmetry_Int_Tables_number       1
_space_group_crystal_system       triclinic
_cell_length_a                    15.102037
_cell_length_b                    15.08616
_cell_length_c                    15.041938
_cell_angle_alpha                 108.984411
_cell_angle_beta                  110.373747
_cell_angle_gamma                 109.871664
_cell_volume                      2610.92537216

loop_
_atom_site_label
_atom_site_type_symbol
_atom_site_description
_atom_site_fract_x
_atom_site_fract_y
_atom_site_fract_z
_atom_type_partial_charge
C1    C     C_R   0.909091 0.975513 0.720376 -0.125720
H1    H     H_    0.824041 0.944062 0.695969 0.095783
N1    N     N_R   0.941940 0.944580 0.650780 -0.047005
C2    C     C_R   0.091426 0.314753 0.559865 -0.143091
H2    H     H_    0.174625 0.381323 0.601314 0.146244
N2    N     N_R   0.056800 0.208900 0.502740 -0.046773
C3    C     C_R   0.294550 0.218216 0.808202 -0.069753
H3    H     H_    0.326993 0.194402 0.866682 0.113415
N3    N     N_R   0.204460 0.150250 0.707090 -0.054780
C4    C     C_R   0.696908 0.993711 0.401230 -0.157606
H4    H     H_    0.669257 0.015188 0.339041 0.099005
N4    N     N_R   0.794270 0.003240 0.446420 -0.037640
C5    C     C_R   0.291525 0.308180 0.716019 -0.108502
H5    H     H_    0.319466 0.365114 0.689647 0.174573
N5    N     N_R   0.204920 0.207570 0.650770 -0.055391
C6    C     C_R   0.696487 0.907315 0.496109 -0.131392
H6    H     H_    0.669839 0.853917 0.526402 0.112059
N6    N     N_R   0.793810 0.945920 0.502740 -0.040774
C7    C     C_R   0.908920 0.218931 0.480170 -0.117212
H7    H     H_    0.824271 0.195833 0.452469 0.094182
N7    N     N_R   0.943620 0.152590 0.446420 -0.043602
C8    C     C_R   0.092340 0.063236 0.812949 -0.140431
H8    H     H_    0.177540 0.110023 0.875301 0.120319
N8    N     N_R   0.055110 0.000900 0.707100 -0.047117
C9    C     C_R   0.002413 0.052746 0.824389 0.057291
C10   C     C_R   0.998813 0.322286 0.545042 0.075073
C11   C     C_R   0.347309 0.318051 0.815747 0.172051
C12   C     C_R   0.634011 0.935516 0.431719 0.062187
C13   C     C_R   0.755385 0.687996 0.280904 -0.134963
H9    H     H_    0.747049 0.625459 0.302672 0.150974
N9    N     N_R   0.795080 0.792430 0.349230 -0.049045
C14   C     C_R   0.244414 0.025867 0.433343 -0.092635
H10   H     H_    0.241936 0.047797 0.372084 0.103213
N10   N     N_R   0.206190 0.054080 0.497260 -0.036868
C15   C     C_R   0.093042 0.789293 0.587414 -0.079986
H11   H     H_    0.178179 0.816361 0.639777 0.097687
N11   N     N_R   0.056380 0.847410 0.553580 -0.048612
C16   C     C_R   0.906977 0.995553 0.196966 -0.145218
H12   H     H_    0.822480 0.970636 0.146280 0.103600
N12   N     N_R   0.944890 0.999100 0.292900 -0.038137
C17   C     C_R   0.089153 0.087751 0.286743 -0.141237
H13   H     H_    0.172774 0.146280 0.316793 0.095348
N13   N     N_R   0.058060 0.055420 0.349220 -0.041082
C18   C     C_R   0.909980 0.700204 0.501704 -0.075694
H14   H     H_    0.826474 0.644653 0.475753 0.099149
N14   N     N_R   0.943200 0.791100 0.497260 -0.044174
C19   C     C_R   0.756133 0.777462 0.187968 -0.135719
H15   H     H_    0.749514 0.796287 0.123488 0.115063
N15   N     N_R   0.795540 0.849750 0.292910 -0.046070
C20   C     C_R   0.258012 0.943632 0.533286 -0.065854
H16   H     H_    0.278449 0.898188 0.571222 0.090055
N16   N     N_R   0.205730 0.996760 0.553580 -0.039568
Ni1   Ni    Ni4+2 0.869690 0.869690 0.500000 0.213472
Ni2   Ni    Ni4+2 0.130310 0.130310 0.500000 0.238737
Ni3   Ni    Ni4+2 0.129250 0.998840 0.629170 0.233852
Ni4   Ni    Ni4+2 0.870750 0.001160 0.370830 0.212024
C21   C     C_R   0.733691 0.676527 0.180277 0.149895
C22   C     C_R   0.284493 0.963100 0.458847 0.042993
C23   C     C_R   0.002099 0.696614 0.554686 0.087726
C24   C     C_R   0.995283 0.048900 0.188469 0.057233
H17   H     H_    0.499702 0.499961 0.405495 0.116897
C25   C     C_R   0.497640 0.599723 0.331296 -0.091617
H18   H     H_    0.523333 0.562970 0.278486 0.117544
C26   C     C_R   0.479158 0.683542 0.328290 -0.155903
H19   H     H_    0.488624 0.708711 0.270864 0.115729
C27   C     C_R   0.454458 0.738324 0.402917 0.112217
C28   C     C_R   0.442311 0.702960 0.476053 -0.149870
H20   H     H_    0.424524 0.744245 0.535266 0.117798
C29   C     C_R   0.457180 0.616318 0.475959 -0.108123
H21   H     H_    0.448783 0.590211 0.533095 0.151052
C30   C     C_R   0.485710 0.565340 0.404163 -0.098912
C31   C     C_R   0.364394 0.849081 0.419222 -0.232559
H22   H     H_    0.304618 0.788012 0.423192 0.140147
C32   C     C_R   0.360005 0.942876 0.429263 0.070724
C33   C     C_R   0.433414 0.020578 0.417994 0.019619
C34   C     C_R   0.511801 0.004699 0.402161 -0.224079
H23   H     H_    0.571380 0.069252 0.401455 0.136059
C35   C     C_R   0.526186 0.919465 0.407222 0.054030
C36   C     C_R   0.448225 0.836211 0.408865 0.027604
C37   C     C_R   0.402112 0.149398 0.357365 -0.095786
H24   H     H_    0.358321 0.085709 0.272452 0.102941
C38   C     C_R   0.409788 0.250522 0.382053 -0.073377
H25   H     H_    0.372843 0.265206 0.316842 0.114175
C39   C     C_R   0.466429 0.333412 0.491212 -0.073322
H26   H     H_    0.473031 0.411791 0.510374 0.124141
C40   C     C_R   0.515410 0.315492 0.575919 -0.063405
H27   H     H_    0.561317 0.380704 0.660085 0.139005
C41   C     C_R   0.504895 0.213566 0.551963 -0.127332
H28   H     H_    0.542098 0.200012 0.618236 0.153680
C42   C     C_R   0.446465 0.129290 0.442575 0.078875
H29   H     H_    0.637754 0.027806 0.078257 0.104697
C43   C     C_R   0.805398 0.161112 0.185803 -0.049753
H30   H     H_    0.835198 0.126357 0.137122 0.146185
C44   C     C_R   0.879135 0.260740 0.282836 -0.065658
H31   H     H_    0.965358 0.301010 0.308397 0.125197
C45   C     C_R   0.842239 0.306864 0.348058 0.073231
C46   C     C_R   0.728960 0.254114 0.312793 0.009360
C47   C     C_R   0.655845 0.153339 0.214597 -0.135840
H32   H     H_    0.569159 0.110077 0.186633 0.138534
C48   C     C_R   0.694378 0.106472 0.152449 -0.134560
C49   C     C_R   0.933624 0.505362 0.456158 0.322481
C50   C     C_R   0.000193 0.602849 0.557275 -0.119901
C51   C     C_R   0.064167 0.608941 0.655671 0.002720
C52   C     C_R   0.061673 0.514425 0.650220 -0.207883
H33   H     H_    0.113150 0.516760 0.723369 0.140513
C53   C     C_R   0.991321 0.416054 0.550775 0.034777
C54   C     C_R   0.923134 0.410293 0.453858 -0.182711
C55   C     C_R   0.247771 0.751449 0.826202 -0.172812
H34   H     H_    0.283742 0.706081 0.797595 0.159788
C56   C     C_R   0.315247 0.850574 0.925549 -0.110700
H35   H     H_    0.402192 0.880600 0.973243 0.107025
C57   C     C_R   0.270751 0.911271 0.963024 -0.093092
H36   H     H_    0.323203 0.988093 0.039771 0.101817
C58   C     C_R   0.158570 0.872724 0.901482 -0.114722
H37   H     H_    0.124163 0.919763 0.930631 0.114527
C59   C     C_R   0.090751 0.773540 0.802209 -0.138319
H38   H     H_    0.003940 0.744664 0.755602 0.111412
C60   C     C_R   0.134987 0.712414 0.763137 0.134729
C61   C     C_2   0.546528 0.438293 0.905983 0.078320
C62   C     C_2   0.451656 0.413930 0.904623 -0.231500
H39   H     H_    0.447059 0.477192 0.960181 0.128584
C63   C     C_2   0.636125 0.550452 0.985129 -0.300527
C64   C     C_2   0.695145 0.573408 0.086949 -0.160026
H40   H     H_    0.626176 0.613369 0.971158 0.178332
H41   H     H_    0.694332 0.507431 0.102213 0.181565
H42   H     H_    0.494324 0.421099 0.112965 0.123125
C65   C     C_R   0.397177 0.281632 0.116756 -0.071749
H43   H     H_    0.463787 0.266906 0.147651 0.170495
C66   C     C_R   0.294068 0.213822 0.096631 -0.224204
H44   H     H_    0.281443 0.146254 0.111599 0.114901
C67   C     C_R   0.206788 0.231532 0.054585 0.116720
C68   C     C_R   0.224418 0.318859 0.034871 -0.110815
H45   H     H_    0.158234 0.334062 0.003362 0.121480
C69   C     C_R   0.328235 0.387756 0.057189 -0.126771
H46   H     H_    0.341858 0.456251 0.043863 0.110906
C70   C     C_R   0.414179 0.368340 0.096773 -0.128215
C71   C     C_R   0.090002 0.150684 0.118960 -0.219700
H47   H     H_    0.164247 0.198977 0.198672 0.123356
C72   C     C_R   0.991078 0.074555 0.100985 0.015753
C73   C     C_R   0.892938 0.023647 0.998433 0.074777
C74   C     C_R   0.900345 0.047001 0.918723 -0.088512
H48   H     H_    0.825099 0.007776 0.841859 0.122630
C75   C     C_R   0.001664 0.095966 0.927148 0.003527
C76   C     C_R   0.097597 0.159046 0.032130 0.030271
C77   C     C_R   0.792286 0.829850 0.941884 -0.220749
H49   H     H_    0.870804 0.834032 0.974475 0.148421
C78   C     C_R   0.696671 0.727997 0.879645 -0.278212
H50   H     H_    0.703872 0.656526 0.866948 0.164979
C79   C     C_R   0.593335 0.718103 0.832620 0.460226
C80   C     C_R   0.587568 0.812287 0.847723 -0.375291
H51   H     H_    0.507800 0.804655 0.809752 0.157984
C81   C     C_R   0.683157 0.915209 0.905075 -0.079757
C82   C     C_R   0.787953 0.924649 0.955560 0.069502
C83   C     C_2   0.686982 0.302798 0.378287 0.510091
H52   H     H_    0.742709 0.369642 0.462360 0.006587
O1    O     O_2   0.589015 0.270060 0.337878 -0.617230
N17   N     N_R   0.884102 0.504589 0.354573 0.231755
O2    O     O_R   0.777776 0.453890 0.292325 -0.455378
O3    O     O_R   0.945977 0.557890 0.326165 -0.395838
C84   C     C_2   0.566473 0.359617 0.838626 0.562920
H53   H     H_    0.644707 0.388765 0.842314 -0.003763
O4    O     O_2   0.498166 0.262327 0.780946 -0.608261
N18   N     N_R   0.494763 0.612477 0.766432 0.213703
O5    O     O_R   0.500162 0.524349 0.734090 -0.500300
O6    O     O_R   0.398586 0.603388 0.734170 -0.469479
C85   C     C_2   0.666917 0.006902 0.903552 0.461370
H54   H     H_    0.584065 0.991989 0.862085 0.031010
O7    O     O_2   0.743511 0.099185 0.947427 -0.577560

loop_
_geom_bond_atom_site_label_1
_geom_bond_atom_site_label_2
_geom_bond_distance
_ccdc_geom_bond_type
C49   C54   1.375760 A    
C85   O7    1.219689 D    
C6    C12   1.383473 A    
N17   O2    1.300907 A    
C17   H13   1.078686 S    
C78   H50   1.082155 S    
C14   C22   1.369120 A    
C10   C53   1.434409 S    
C52   C53   1.394977 A    
C77   H49   1.083817 S    
C3    H3    1.080784 S    
C19   N15   1.349026 A    
C11   C62   1.445045 S    
C55   H34   1.082886 S    
N8    Ni3   1.882162 S    
C27   C36   1.487282 S    
C71   C72   1.405096 A    
C43   C48   1.395689 A    
C49   C50   1.400657 A    
C34   C35   1.395888 A    
C15   N11   1.326051 A    
N2    Ni2   1.880080 S    
C31   C36   1.396263 A    
C74   C75   1.392371 A    
C16   H12   1.077491 S    
C40   C41   1.397558 A    
C64   H41   1.088999 S    
C84   H53   1.085197 S    
C21   C64   1.457462 S    
C53   C54   1.415866 A    
C18   C23   1.371426 A    
C75   C76   1.410761 A    
C3    C11   1.387860 A    
C59   H38   1.083106 S    
C15   C23   1.363622 A    
C1    H1    1.074102 S    
C29   C30   1.397229 A    
C7    C10   1.369319 A    
C56   H35   1.082718 S    
C57   H36   1.082601 S    
C25   C26   1.395452 A    
N6    Ni1   1.880261 S    
C14   N10   1.313760 A    
C39   H26   1.081336 S    
N12   N13   1.377298 A    
C7    H7    1.077537 S    
C55   C56   1.399138 A    
C61   C84   1.482960 S    
N12   Ni4   1.882162 S    
C8    C9    1.390454 A    
C20   N16   1.340844 A    
C79   N18   1.438632 S    
H29   C48   1.081206 S    
C12   C35   1.449866 S    
C83   O1    1.218232 D    
C33   C42   1.483343 S    
N16   Ni3   1.882463 S    
C73   C82   1.487229 S    
C77   C82   1.404808 A    
H17   C30   1.081419 S    
C27   C28   1.408668 A    
C49   N17   1.442614 S    
N17   O3    1.301202 A    
C5    H5    1.079339 S    
C1    C9    1.397855 A    
C17   N13   1.338417 A    
N1    N8    1.377296 A    
C9    C75   1.475092 S    
N9    N15   1.393609 A    
N3    Ni3   1.857096 S    
C57   C58   1.397606 A    
C52   H33   1.084819 S    
C77   C78   1.391760 A    
C18   N14   1.323575 A    
C46   C47   1.405138 A    
C8    H8    1.070068 S    
C73   C74   1.384068 A    
C2    C10   1.387895 A    
C78   C79   1.400845 A    
C32   C33   1.417231 A    
C13   C21   1.368992 A    
C50   C51   1.409943 A    
C20   C22   1.394927 A    
N5    Ni2   1.838334 S    
C55   C60   1.406207 A    
C65   C70   1.395923 A    
C31   C32   1.400399 A    
C40   H27   1.079878 S    
C37   H24   1.083216 S    
C69   C70   1.399566 A    
N2    N7    1.377421 A    
C38   H25   1.080216 S    
N9    Ni1   1.838336 S    
C28   H20   1.082958 S    
C1    N1    1.326996 A    
C15   H11   1.081173 S    
C26   C27   1.407058 A    
C33   C34   1.366559 A    
C65   C66   1.396517 A    
C13   H9    1.077990 S    
C19   C21   1.397917 A    
N13   Ni2   1.839190 S    
C81   C85   1.490494 S    
C19   H15   1.078129 S    
C61   C62   1.343506 D    
C45   C46   1.417492 A    
C25   H18   1.078561 S    
C43   C44   1.390166 A    
C20   H16   1.080118 S    
C44   H31   1.083552 S    
C6    N6    1.337008 A    
C46   C83   1.480695 S    
C34   H23   1.084325 S    
C44   C45   1.399025 A    
C83   H52   1.084769 S    
N4    Ni4   1.882463 S    
C4    N4    1.319656 A    
C16   C24   1.377856 A    
C2    N2    1.337384 A    
C71   C76   1.391631 A    
C41   C42   1.402763 A    
N10   Ni2   1.880263 S    
C38   C39   1.396579 A    
C5    N5    1.328566 A    
C85   H54   1.085891 S    
C8    N8    1.333625 A    
C51   C60   1.487661 S    
C63   H40   1.082788 S    
C65   H43   1.082052 S    
C62   H39   1.086537 S    
C22   C32   1.446763 S    
C66   H44   1.083130 S    
C61   C63   1.456881 S    
C4    C12   1.371758 A    
C3    N3    1.346028 A    
C7    N7    1.321071 A    
C35   C36   1.414019 A    
C23   C50   1.418535 S    
C45   C54   1.481407 S    
C18   H14   1.082133 S    
C17   C24   1.396677 A    
C39   C40   1.395535 A    
C31   H22   1.084071 S    
N7    Ni4   1.858074 S    
C58   C59   1.399023 A    
C72   C73   1.424617 A    
C58   H37   1.082931 S    
C69   H46   1.081301 S    
N15   Ni4   1.857096 S    
C71   H47   1.079753 S    
N10   N16   1.393609 A    
C26   H19   1.083168 S    
N3    N5    1.393611 A    
C13   N9    1.331651 A    
C79   C80   1.402128 A    
C14   H10   1.068977 S    
C16   N12   1.329167 A    
N1    Ni1   1.839189 S    
C6    H6    1.079178 S    
N14   Ni1   1.880079 S    
C43   H30   1.074102 S    
C37   C38   1.399973 A    
C59   C60   1.407706 A    
C25   C30   1.395262 A    
C68   H45   1.083053 S    
C80   C81   1.405917 A    
C37   C42   1.405990 A    
C29   H21   1.082587 S    
C47   C48   1.393166 A    
C56   C57   1.397854 A    
N18   O5    1.300547 A    
C4    H4    1.082405 S    
C24   C72   1.474909 S    
H42   C70   1.082341 S    
N11   Ni3   1.858075 S    
C2    H2    1.079521 S    
C41   H28   1.082570 S    
C68   C69   1.396354 A    
C47   H32   1.083435 S    
N4    N6    1.393609 A    
C51   C52   1.387999 A    
C63   C64   1.324621 D    
C80   H51   1.083764 S    
C5    C11   1.368085 A    
N18   O6    1.301723 A    
C81   C82   1.428733 A    
C28   C29   1.399098 A    
N11   N14   1.377422 A    
C74   H48   1.077572 S    
C67   C76   1.474820 S    
C67   C68   1.401834 A    
C84   O4    1.220709 D    
C66   C67   1.406307 A    
