data_mof_unit_3394.cif
_audit_creation_date              2012-12-11T15:14:57-0500
_audit_creation_method            fapswitch 2.2
_symmetry_space_group_name_H-M    P1
_symmetry_Int_Tables_number       1
_space_group_crystal_system       triclinic
_cell_length_a                    11.239526
_cell_length_b                    11.259159
_cell_length_c                    18.483357
_cell_angle_alpha                 90.272161
_cell_angle_beta                  90.178678
_cell_angle_gamma                 120.348234
_cell_volume                      2018.44526286

loop_
_atom_site_label
_atom_site_type_symbol
_atom_type_description
_atom_site_fract_x
_atom_site_fract_y
_atom_site_fract_z
_atom_type_partial_charge
C1    C     C_R   0.538786 0.429347 0.637480 0.527251
C2    C     C_R   0.454588 0.518952 0.354857 0.576269
C3    C     C_R   0.477218 0.931083 0.144163 0.583987
C4    C     C_R   0.069050 0.548391 0.356366 0.563199
C5    C     C_3   0.496794 0.089622 0.462689 -0.158443
C6    C     C_3   0.594932 0.603575 0.021506 -0.093464
C7    C     C_3   0.902658 0.401495 0.462044 -0.148115
C8    C     C_3   0.396158 0.001837 0.022182 -0.093386
C9    C     C_3   0.610989 0.506269 0.457737 -0.145904
C10   C     C_3   0.995850 0.397328 0.020233 -0.106260
C11   C     C_3   0.089136 0.500649 0.962653 -0.165597
C12   C     C_R   0.928137 0.479266 0.856900 0.551282
C13   C     C_3   0.606301 0.593237 0.521181 -0.085406
C14   C     C_3   0.396675 0.904537 0.963303 -0.163061
C15   C     C_3   0.996446 0.395363 0.521414 -0.093690
C16   C     C_3   0.515242 0.619515 0.957907 -0.147809
C17   C     C_3   0.398515 0.994216 0.521428 -0.088916
C18   C     C_3   0.623157 0.124336 0.511161 -0.179770
C19   C     C_3   0.571697 0.466799 0.988936 -0.131574
C20   C     C_3   0.874158 0.496594 0.510740 -0.183885
C21   C     C_3   0.527199 0.123778 0.990247 -0.134690
C22   C     C_3   0.523802 0.373457 0.501685 -0.201008
C23   C     C_R   0.547031 0.068928 0.643787 0.537116
C24   C     C_3   0.869785 0.401732 0.989668 -0.143965
C25   C     C_3   0.117669 0.621870 0.013412 -0.171683
C26   C     C_3   0.470892 0.578712 0.490921 -0.122323
C27   C     C_3   0.489841 0.873934 0.012473 -0.182841
C28   C     C_3   0.122810 0.525193 0.490856 -0.128925
C29   C     C_3   0.379070 0.537119 0.000447 -0.203985
C30   C     C_3   0.407355 0.871169 0.490054 -0.132562
C31   C     C_3   0.523593 0.027025 0.568490 0.009599
C32   C     C_3   0.491780 0.484905 0.926495 0.004681
C33   C     C_3   0.969621 0.491456 0.568334 0.008596
C34   C     C_R   0.517815 0.456688 0.853737 0.560041
C35   C     C_3   0.526049 0.024476 0.931704 0.000066
C36   C     C_3   0.517978 0.460573 0.563591 0.002225
C37   C     C_3   0.966214 0.503342 0.932572 0.001883
C38   C     C_3   0.022906 0.518308 0.069631 0.026544
C39   C     C_3   0.479115 0.492787 0.428354 0.005664
C40   C     C_3   0.490138 0.972581 0.069252 0.032693
C41   C     C_3   0.026893 0.527976 0.431778 0.004182
C42   C     C_3   0.459286 0.520423 0.062579 0.021611
C43   C     C_3   0.503455 0.969534 0.431799 0.003983
C44   C     C_3   0.536616 0.908326 0.537474 0.034197
C45   C     C_R   0.928465 0.476515 0.643405 0.542807
C46   C     C_3   0.354854 0.401537 0.967767 0.045485
C47   C     C_3   0.091823 0.620891 0.538486 0.036838
C48   C     C_3   0.619936 0.993532 0.980260 0.051488
C49   C     C_3   0.383228 0.443625 0.533759 0.050484
C50   C     C_3   0.994646 0.626402 0.981936 0.056233
C51   C     C_3   0.901148 0.526232 0.039752 0.032420
C52   C     C_3   0.390283 0.358439 0.470901 0.038541
C53   C     C_3   0.620323 0.090658 0.038576 0.040787
C54   C     C_3   0.997887 0.624189 0.479173 0.036911
C55   C     C_3   0.434042 0.384187 0.030434 0.063068
C56   C     C_R   0.547473 0.067653 0.856190 0.541071
C57   C     C_3   0.631443 0.004232 0.478437 0.043747
C58   C     C_2   0.582690 0.837815 0.590735 0.584890
C59   C     C_2   0.219262 0.298950 0.933176 0.591785
C60   C     C_2   0.166420 0.732396 0.594917 0.586885
C61   C     C_2   0.737937 0.971884 0.962920 0.572710
C62   C     C_2   0.262862 0.396421 0.584575 0.604292
C63   C     C_2   0.009937 0.763999 0.966519 0.569954
C64   C     C_2   0.822025 0.559616 0.094139 0.576645
C65   C     C_2   0.274231 0.228023 0.437432 0.614029
C66   C     C_2   0.729366 0.169147 0.095481 0.582707
C67   C     C_R   0.428236 0.539636 0.137283 0.554343
C68   C     C_2   0.993926 0.747758 0.450654 0.628162
C69   C     C_2   0.384717 0.262278 0.079705 0.600538
C70   C     C_2   0.761311 0.014485 0.448935 0.628004
C71   C     C_R   0.479806 0.930184 0.356374 0.569619
C72   C     C_R   0.067084 0.545438 0.144419 0.570550
Cr1   Cr    Cr6+3 0.769930 0.543130 0.750000 1.117047
Cr2   Cr    Cr6+3 0.773200 0.230070 0.750000 1.118099
Cr3   Cr    Cr6+3 0.456870 0.226800 0.750000 1.107008
Cr4   Cr    Cr6+3 0.543130 0.769930 0.250000 1.078121
Cr5   Cr    Cr6+3 0.230070 0.773200 0.250000 1.079003
Cr6   Cr    Cr6+3 0.226800 0.456870 0.250000 1.071113
H1    H     H_    0.706661 0.223312 0.531593 0.118434
H2    H     H_    0.221017 0.533901 0.475458 0.111047
H3    H     H_    0.309422 0.571016 0.018412 0.095378
H4    H     H_    0.322783 0.771008 0.471945 0.103203
H5    H     H_    0.489987 0.161127 0.424704 0.191775
H6    H     H_    0.690455 0.688013 0.045246 0.203540
H7    H     H_    0.825826 0.320312 0.425745 0.187293
H8    H     H_    0.305718 0.002132 0.043946 0.202586
H9    H     H_    0.695345 0.522124 0.421298 0.196478
H10   H     H_    0.006135 0.308365 0.035598 0.220594
H11   H     H_    0.163607 0.501416 0.923738 0.171518
H12   H     H_    0.654390 0.444332 0.977547 0.106556
H13   H     H_    0.698788 0.685652 0.542906 0.220089
H14   H     H_    0.309746 0.830940 0.928378 0.145825
H15   H     H_    0.988637 0.298534 0.540308 0.211762
H16   H     H_    0.544733 0.710068 0.923235 0.165434
H17   H     H_    0.309551 0.002291 0.540053 0.231173
H18   H     H_    0.531640 0.693077 0.666750 0.362772
H19   H     H_    0.036149 0.126111 0.942164 0.367961
H20   H     H_    0.298586 0.804162 0.679145 0.347085
H21   H     H_    0.866901 0.912387 0.000209 0.361898
H22   H     H_    0.173861 0.444432 0.664935 0.356750
H23   H     H_    0.779532 0.485552 0.533149 0.117149
H24   H     H_    0.085264 0.957255 0.002718 0.369672
H25   H     H_    0.818683 0.703266 0.158580 0.350630
H26   H     H_    0.213255 0.084863 0.358118 0.349235
H27   H     H_    0.891812 0.187814 0.152033 0.348112
H28   H     H_    0.913512 0.822047 0.378337 0.358635
H29   H     H_    0.223278 0.104698 0.129938 0.350490
H30   H     H_    0.919941 0.107346 0.379381 0.358109
H31   H     H_    0.536627 0.221760 0.974616 0.110896
H32   H     H_    0.553466 0.301779 0.521493 0.102361
H33   H     H_    0.771914 0.316175 0.969889 0.102256
H34   H     H_    0.215330 0.708729 0.033319 0.130364
H35   H     H_    0.451233 0.662791 0.479431 0.112368
H36   H     H_    0.480517 0.781119 0.035749 0.122973
O1    O     O_R   0.913270 0.574260 0.668550 -0.471228
O2    O     O_R   0.574260 0.913270 0.331450 -0.490235
O3    O     O_R   0.086730 0.660990 0.168550 -0.456776
O4    O     O_R   0.339010 0.425740 0.331450 -0.484526
O5    O     O_R   0.640160 0.530400 0.673300 -0.509570
O6    O     O_R   0.890240 0.359840 0.826700 -0.481317
O7    O     O_R   0.469600 0.109760 0.673300 -0.515194
O8    O     O_R   0.640160 0.530400 0.826700 -0.488713
O9    O     O_R   0.890240 0.359840 0.673300 -0.514952
O10   O     O_R   0.469600 0.109760 0.826700 -0.503956
O11   O     O_R   0.530400 0.640160 0.173300 -0.498689
O12   O     O_R   0.660990 0.086730 0.831450 -0.458451
O13   O     O_R   0.359840 0.890240 0.326700 -0.492260
O14   O     O_R   0.109760 0.469600 0.173300 -0.528274
O15   O     O_R   0.530400 0.640160 0.326700 -0.493607
O16   O     O_R   0.359840 0.890240 0.173300 -0.505112
O17   O     O_R   0.109760 0.469600 0.326700 -0.496636
O18   O     O_3   0.666667 0.333333 0.750000 -0.349347
O19   O     O_3   0.333333 0.666667 0.250000 -0.347056
O20   O     O_2   0.705320 0.889275 0.605099 -0.444472
O21   O     O_R   0.487233 0.723247 0.628853 -0.621869
O22   O     O_2   0.191759 0.318183 0.871841 -0.484742
O23   O     O_R   0.425740 0.339010 0.668550 -0.455711
O24   O     O_R   0.122577 0.185347 0.971639 -0.668502
O25   O     O_2   0.127913 0.814387 0.607204 -0.453030
O26   O     O_R   0.263833 0.730026 0.640302 -0.620012
O27   O     O_2   0.776599 0.976936 0.900799 -0.477618
O28   O     O_R   0.797679 0.936860 0.018727 -0.644779
O29   O     O_2   0.181466 0.273542 0.591817 -0.439307
O30   O     O_R   0.253345 0.490247 0.629787 -0.614378
O31   O     O_2   0.979593 0.790096 0.907637 -0.469055
O32   O     O_R   0.063381 0.863982 0.020786 -0.674652
O33   O     O_2   0.714187 0.469204 0.118944 -0.433382
O34   O     O_R   0.913270 0.574260 0.831450 -0.464295
O35   O     O_R   0.877787 0.694347 0.120050 -0.634139
O36   O     O_2   0.157808 0.175312 0.461819 -0.438885
O37   O     O_R   0.298808 0.171189 0.375921 -0.683379
O38   O     O_2   0.716847 0.246764 0.136660 -0.430455
O39   O     O_R   0.831278 0.135861 0.108985 -0.639306
O40   O     O_2   0.072000 0.862466 0.475040 -0.446937
O41   O     O_R   0.904431 0.731657 0.393975 -0.687607
O42   O     O_2   0.467404 0.248094 0.116009 -0.436691
O43   O     O_R   0.243676 0.175917 0.091223 -0.639563
O44   O     O_2   0.798402 0.935165 0.469222 -0.456605
O45   O     O_R   0.660990 0.086730 0.668550 -0.468404
O46   O     O_R   0.836297 0.111638 0.395952 -0.691720
O47   O     O_R   0.425740 0.339010 0.831450 -0.473679
O48   O     O_R   0.574260 0.913270 0.168550 -0.474021
O49   O     O_R   0.086730 0.660990 0.331450 -0.486372
O50   O     O_R   0.339010 0.425740 0.168550 -0.456122

loop_
_geom_bond_atom_site_label_1
_geom_bond_atom_site_label_2
_ccdc_geom_bond_type
C27   C48   S    
Cr5   O49   S    
H27   O39   S    
C28   C47   S    
Cr6   O50   S    
Cr1   O5    S    
Cr2   O18   S    
C29   C42   S    
C3    O16   A    
C33   C45   S    
C59   O22   D    
H21   O28   S    
Cr4   O48   S    
C62   O29   D    
C68   O41   S    
Cr6   O14   S    
C2    O4    A    
C23   O7    A    
Cr2   O12   S    
C58   O20   D    
C29   H3    S    
C6    C19   S    
C16   H16   S    
C10   H10   S    
Cr2   O45   S    
C72   O14   A    
C57   C70   S    
C56   O10   A    
H26   O37   S    
Cr6   O4    S    
C68   O40   D    
C67   O11   A    
C5    H5    S    
C9    C22   S    
C5    C17   S    
C4    C41   S    
C35   C48   S    
C28   C41   S    
C9    C39   S    
C2    O15   A    
C1    O5    A    
C65   O36   D    
C11   C37   S    
C9    C13   S    
C25   C50   S    
C3    O48   A    
C47   C60   S    
C12   O6    A    
C6    C42   S    
C2    C39   S    
C44   C58   S    
C18   H1    S    
C22   H32   S    
C23   O45   A    
C46   C55   S    
C69   O43   S    
C17   H17   S    
C56   O12   A    
C14   C27   S    
C4    O17   A    
C44   C57   S    
C63   O32   S    
C70   O46   S    
Cr5   O13   S    
C30   C43   S    
C34   O47   A    
C24   C51   S    
C7    C15   S    
Cr2   O9    S    
C5    C43   S    
Cr1   O18   S    
C34   O8    A    
C13   H13   S    
C17   C30   S    
C25   H34   S    
C30   C44   S    
C24   H33   S    
Cr5   O19   S    
C19   C32   S    
C67   O50   A    
C72   O3    A    
H29   O43   S    
C24   C37   S    
H18   O21   S    
C50   C63   S    
C48   C53   S    
C38   C72   S    
C69   O42   D    
C6    H6    S    
C31   C44   S    
Cr1   O34   S    
Cr3   O10   S    
C13   C36   S    
C20   C54   S    
H22   O30   S    
C26   C49   S    
C14   C35   S    
H25   O35   S    
C38   C51   S    
C71   O13   A    
C59   O24   S    
C10   C24   S    
C16   C29   S    
C45   O9    A    
H20   O26   S    
C65   O37   S    
C70   O44   D    
C32   C34   S    
C30   H4    S    
Cr6   O17   S    
C36   C49   S    
C66   O38   D    
C25   C38   S    
Cr4   O15   S    
C45   O1    A    
C18   C57   S    
C27   C40   S    
C49   C52   S    
C11   H11   S    
C50   C51   S    
C4    O49   A    
Cr4   O11   S    
C53   C66   S    
C14   H14   S    
C55   C69   S    
C26   C39   S    
C60   O26   S    
C47   C54   S    
H30   O46   S    
C20   C33   S    
C61   O27   D    
C3    C40   S    
C7    C20   S    
C64   O33   D    
Cr3   O23   S    
C42   C67   S    
C17   C31   S    
C8    C14   S    
C13   C26   S    
H19   O24   S    
C1    O23   A    
Cr3   O18   S    
C22   C52   S    
C19   C55   S    
C43   C71   S    
C49   C62   S    
C35   C56   S    
Cr3   O7    S    
C32   C46   S    
Cr1   O8    S    
C51   C64   S    
C62   O30   S    
C8    C21   S    
C15   H15   S    
C66   O39   S    
C21   H31   S    
Cr4   O19   S    
C40   C53   S    
C20   H23   S    
C58   O21   S    
C16   C32   S    
C22   C36   S    
C29   C46   S    
Cr5   O3    S    
Cr1   O1    S    
Cr3   O47   S    
C64   O35   S    
C10   C38   S    
C12   O34   A    
C21   C35   S    
C26   H35   S    
C19   H12   S    
H24   O32   S    
C21   C53   S    
C37   C50   S    
C15   C28   S    
C7    H7    S    
C5    C18   S    
C42   C55   S    
C33   C47   S    
Cr4   O2    S    
C15   C33   S    
C71   O2    A    
C39   C52   S    
C8    H8    S    
Cr5   O16   S    
C7    C41   S    
C28   H2    S    
Cr6   O19   S    
C41   C54   S    
C10   C11   S    
C43   C57   S    
C60   O25   D    
C6    C16   S    
Cr2   O6    S    
C27   H36   S    
C61   O28   S    
C54   C68   S    
C46   C59   S    
H28   O41   S    
C12   C37   S    
C48   C61   S    
C11   C25   S    
C18   C31   S    
C8    C40   S    
C63   O31   D    
C9    H9    S    
C52   C65   S    
C1    C36   S    
C23   C31   S    
