data_mof_unit_4302.cif
_audit_creation_date              2012-12-10T20:30:14-0500
_audit_creation_method            fapswitch 2.2
_symmetry_space_group_name_H-M    P1
_symmetry_Int_Tables_number       1
_space_group_crystal_system       triclinic
_cell_length_a                    9.929939
_cell_length_b                    10.713981
_cell_length_c                    13.125051
_cell_angle_alpha                 90.808283
_cell_angle_beta                  70.002093
_cell_angle_gamma                 88.219699
_cell_volume                      1311.08169957

loop_
_atom_site_label
_atom_site_type_symbol
_atom_type_description
_atom_site_fract_x
_atom_site_fract_y
_atom_site_fract_z
_atom_type_partial_charge
C1    C     C_R   0.499403 0.739636 0.497016 0.965600
C2    C     C_R   0.367501 0.506254 0.821358 -0.069663
C3    C     C_R   0.375787 0.941642 0.509066 -0.024711
C4    C     C_R   0.420065 0.498335 0.703775 0.863954
C5    C     C_R   0.503145 0.870226 0.478572 -0.277532
C6    C     C_R   0.634991 0.927541 0.428401 0.368476
C7    C     C_R   0.639549 0.057022 0.438755 0.374749
C8    C     C_R   0.509261 0.127224 0.483867 -0.258629
C9    C     C_R   0.379368 0.068620 0.507873 -0.035903
C10   C     C_3   0.248492 0.084992 0.606676 -0.466166
C11   C     C_3   0.245019 0.943245 0.609501 0.428259
C12   C     C_R   0.431892 0.502140 0.983624 0.104944
C13   C     C_R   0.886010 0.521379 0.593859 0.229040
C14   C     C_R   0.969244 0.467772 0.409533 -0.272494
C15   C     C_R   0.112957 0.467209 0.408800 0.564017
C16   C     C_R   0.502972 0.259887 0.497503 0.900382
C17   C     C_R   0.028110 0.519879 0.594069 0.065612
C18   C     C_3   0.998751 0.633665 0.665440 -0.579018
C19   C     C_3   0.846334 0.637298 0.663547 0.340998
C20   C     C_R   0.580191 0.499198 0.295694 0.862621
C21   C     C_R   0.762125 0.360275 0.018248 -0.290070
C22   C     C_R   0.629694 0.484302 0.177902 -0.161580
C23   C     C_R   0.450683 0.454232 0.878946 0.027360
C24   C     C_R   0.250956 0.588199 0.873102 -0.186117
C25   C     C_R   0.222328 0.625508 0.980051 -0.214016
C26   C     C_R   0.311748 0.584252 0.035167 -0.174687
C27   C     C_3   0.997468 0.391056 0.089410 -0.384428
C28   C     C_3   0.829655 0.147680 0.313044 0.193105
C29   C     C_3   0.980091 0.089353 0.262423 -0.858729
C30   C     C_3   0.151242 0.900958 0.791370 -0.366016
C31   C     C_3   0.235725 0.317375 0.284997 -0.330579
C32   C     C_3   0.692594 0.727643 0.822178 -0.305047
C33   C     C_3   0.717327 0.118796 0.841150 -0.382188
C34   C     C_R   0.537756 0.470581 0.029753 0.007347
C35   C     C_3   0.762249 0.813410 0.277015 0.097725
C36   C     C_3   0.891457 0.724715 0.226682 -0.778877
C37   C     C_R   0.653177 0.385050 0.974974 -0.004452
C38   C     C_R   0.657345 0.324778 0.878473 0.561592
C39   C     C_R   0.556494 0.359640 0.831365 -0.268250
C40   C     C_R   0.532786 0.522777 0.128731 -0.287519
C41   C     C_R   0.754004 0.413375 0.118966 0.502226
H1    H     H_    0.271377 0.129778 0.675724 0.204791
H2    H     H_    0.186832 0.628697 0.829055 0.159726
H3    H     H_    0.283000 0.618644 0.117562 0.155772
H4    H     H_    0.133312 0.690309 0.019155 0.142712
H5    H     H_    0.564192 0.313800 0.755418 0.165801
H6    H     H_    0.071778 0.416156 0.132319 0.215622
H7    H     H_    0.007224 0.462160 0.026536 0.191564
H8    H     H_    0.032168 0.297221 0.050670 0.170685
H9    H     H_    0.838366 0.250173 0.315376 0.217263
H10   H     H_    0.765630 0.125525 0.260122 0.085756
H11   H     H_    0.975698 0.987655 0.250362 0.272438
H12   H     H_    0.156901 0.128773 0.588025 0.179860
H13   H     H_    0.034727 0.130450 0.182346 0.200513
H14   H     H_    0.043044 0.105157 0.316561 0.253425
H15   H     H_    0.067755 0.840328 0.781278 0.151889
H16   H     H_    0.107571 0.998611 0.811222 0.171476
H17   H     H_    0.178705 0.867364 0.861617 0.194651
H18   H     H_    0.234250 0.258471 0.354711 0.172901
H19   H     H_    0.340041 0.297934 0.219288 0.191095
H20   H     H_    0.150401 0.291540 0.253156 0.156658
H21   H     H_    0.627690 0.781881 0.782564 0.176931
H22   H     H_    0.781575 0.784116 0.828937 0.135725
H23   H     H_    0.151078 0.904191 0.594199 0.060637
H24   H     H_    0.621768 0.708019 0.905675 0.195022
H25   H     H_    0.634660 0.103462 0.803033 0.179028
H26   H     H_    0.674202 0.098207 0.929148 0.149090
H27   H     H_    0.808274 0.051384 0.802283 0.194022
H28   H     H_    0.768998 0.892269 0.221387 0.111028
H29   H     H_    0.664602 0.761091 0.283620 0.108149
H30   H     H_    0.890293 0.648341 0.282785 0.287364
H31   H     H_    0.887539 0.683722 0.149627 0.200993
H32   H     H_    0.992679 0.774583 0.209881 0.220931
H33   H     H_    0.948809 0.445561 0.335830 0.195177
H34   H     H_    0.005894 0.613222 0.746217 0.222247
H35   H     H_    0.061968 0.712845 0.623809 0.176492
H36   H     H_    0.818822 0.717472 0.619872 0.103377
H37   H     H_    0.850851 0.296489 0.975627 0.190225
H38   H     H_    0.448975 0.588739 0.173837 0.182883
N1    N     N_R   0.856940 0.500860 0.500710 -0.159990
N2    N     N_R   0.142580 0.500820 0.500710 -0.145809
O1    O     O_R   0.385310 0.683210 0.499990 -0.624783
O2    O     O_3   0.770370 0.109865 0.421375 -0.578323
O3    O     O_3   0.276438 0.894050 0.698591 -0.583101
O4    O     O_3   0.223001 0.445874 0.311696 -0.594275
O5    O     O_3   0.744143 0.613255 0.765836 -0.562996
O6    O     O_3   0.768412 0.240817 0.824222 -0.603122
O7    O     O_3   0.761275 0.858073 0.379347 -0.565107
O8    O     O_R   0.614650 0.683240 0.500000 -0.580568
O9    O     O_R   0.328390 0.499940 0.653610 -0.613579
O10   O     O_R   0.557730 0.499980 0.653620 -0.578259
O11   O     O_R   0.385350 0.316760 0.500000 -0.614099
O12   O     O_R   0.614690 0.316790 0.500010 -0.586012
O13   O     O_R   0.442270 0.500020 0.346380 -0.556728
O14   O     O_R   0.671610 0.500060 0.346390 -0.597823
O15   O     O_3   0.857348 0.388282 0.165999 -0.646583
Zn1   Zn    Zn3+2 0.346870 0.499980 0.499990 0.973413
Zn2   Zn    Zn3+2 0.653130 0.500020 0.500010 0.992487

loop_
_geom_bond_atom_site_label_1
_geom_bond_atom_site_label_2
_ccdc_geom_bond_type
C27   H7    S    
C7    O2    S    
C18   H34   S    
C31   O4    S    
C10   H1    S    
C34   C37   A    
C31   H20   S    
C35   C36   S    
C19   O5    S    
O14   Zn2   S    
C26   H3    S    
C7    C8    A    
C15   N2    A    
C12   C23   A    
C16   O12   A    
C1    C5    S    
C14   H33   S    
C28   C29   S    
C5    C6    A    
C28   H10   S    
C22   C41   A    
C29   H13   S    
C30   H16   S    
C6    O7    S    
C18   C19   S    
C31   H18   S    
C19   H36   S    
C10   H12   S    
C28   H9    S    
C35   H29   S    
C8    C9    A    
C21   H37   S    
O11   Zn1   S    
C18   H35   S    
C14   N1    A    
C9    C10   S    
O9    Zn1   S    
C36   H30   S    
C15   O4    S    
C4    O10   A    
C13   N1    A    
C32   O5    S    
C8    C16   S    
C28   O2    S    
C27   O15   S    
C33   H25   S    
C4    O9    A    
C13   C19   S    
C24   C25   A    
C11   H23   S    
C10   C11   S    
C29   H14   S    
O13   Zn1   S    
C25   C26   A    
C30   H15   S    
C12   C26   A    
C31   H19   S    
C2    C4    S    
C37   C38   A    
C3    C9    A    
C35   O7    S    
C22   C40   A    
C17   C18   S    
C40   H38   S    
C39   H5    S    
C21   C41   A    
C20   O14   A    
C20   C22   S    
C16   O11   A    
C2    C24   A    
O1    Zn1   S    
C34   C40   A    
C12   C34   A    
C25   H4    S    
C33   H26   S    
C27   H6    S    
C20   O13   A    
C1    O8    A    
N1    Zn2   S    
C32   H22   S    
C3    C5    A    
C6    C7    A    
C11   O3    S    
C38   O6    S    
C13   C17   A    
O8    Zn2   S    
C33   O6    S    
C32   H21   S    
C1    O1    A    
C38   C39   A    
N2    Zn1   S    
C23   C39   A    
C30   H17   S    
C17   N2    A    
O10   Zn2   S    
C30   O3    S    
C3    C11   S    
C36   H32   S    
C41   O15   S    
C27   H8    S    
C21   C37   A    
C35   H28   S    
C2    C23   A    
C24   H2    S    
C14   C15   A    
O12   Zn2   S    
C36   H31   S    
C33   H27   S    
C32   H24   S    
C29   H11   S    
