data_mof_unit_279.cif
_audit_creation_date              2012-12-10T19:00:15-0500
_audit_creation_method            fapswitch 2.2
_symmetry_space_group_name_H-M    P1
_symmetry_Int_Tables_number       1
_space_group_crystal_system       triclinic
_cell_length_a                    9.53391
_cell_length_b                    10.839342
_cell_length_c                    13.431085
_cell_angle_alpha                 90.214493
_cell_angle_beta                  72.256754
_cell_angle_gamma                 90.065437
_cell_volume                      1321.95258062

loop_
_atom_site_label
_atom_site_type_symbol
_atom_type_description
_atom_site_fract_x
_atom_site_fract_y
_atom_site_fract_z
_atom_type_partial_charge
C1    C     C_R   0.502161 0.737579 0.495895 0.813542
C2    C     C_R   0.435943 0.489175 0.979078 0.107784
C3    C     C_R   0.469022 0.456227 0.872225 0.080446
C4    C     C_R   0.545116 0.470457 0.030211 0.044355
C5    C     C_R   0.680011 0.409935 0.976859 0.036739
C6    C     C_R   0.698962 0.362334 0.876594 -0.223317
C7    C     C_R   0.595304 0.384543 0.825591 -0.177912
C8    C     C_R   0.523697 0.510137 0.133234 -0.256739
C9    C     C_R   0.757503 0.424767 0.132951 -0.200484
C10   C     C_R   0.372883 0.493393 0.815403 -0.103248
C11   C     C_R   0.372813 0.935443 0.536083 0.024390
C12   C     C_R   0.421034 0.494854 0.700272 0.795150
C13   C     C_R   0.504969 0.871241 0.494823 -0.214604
C14   C     C_R   0.639546 0.938391 0.464563 0.395877
C15   C     C_R   0.635938 0.066429 0.473423 -0.182094
C16   C     C_R   0.501065 0.129528 0.503919 -0.228089
C17   C     C_R   0.370712 0.062467 0.539616 0.126069
C18   C     C_3   0.232376 0.069916 0.509798 0.113390
C19   C     C_3   0.234137 0.929759 0.506138 -0.441335
C20   C     C_R   0.947487 0.408387 0.450098 0.282785
C21   C     C_R   0.900792 0.583012 0.557883 -0.038807
C22   C     C_R   0.049733 0.582920 0.557990 -0.075612
C23   C     C_R   0.499933 0.262506 0.500448 0.835067
C24   C     C_R   0.094962 0.408334 0.450090 0.321069
C25   C     C_3   0.149122 0.377273 0.336508 -0.496775
C26   C     C_3   0.990135 0.378000 0.336576 -0.514650
C27   C     C_R   0.578944 0.497837 0.299819 0.807075
C28   C     C_R   0.789298 0.392930 0.027783 0.401108
C29   C     C_R   0.624163 0.481348 0.186204 -0.132873
C30   C     C_R   0.234243 0.542356 0.868992 -0.164795
C31   C     C_R   0.194097 0.561153 0.976195 -0.098782
C32   C     C_R   0.294099 0.537796 0.030647 -0.171548
Cu1   Cu    Cu3+1 0.359330 0.500020 0.500010 0.962289
Cu2   Cu    Cu3+1 0.640670 0.499980 0.499990 0.953087
H1    H     H_    0.836636 0.402970 0.173229 0.167757
H2    H     H_    0.739101 0.116594 0.447816 0.189649
H3    H     H_    0.248626 0.113466 0.432307 0.121146
H4    H     H_    0.142682 0.885779 0.567786 0.226019
H5    H     H_    0.252251 0.891830 0.426138 0.180255
H6    H     H_    0.825589 0.651734 0.603064 0.162166
H7    H     H_    0.086294 0.651353 0.603405 0.140514
H8    H     H_    0.214777 0.452506 0.288449 0.210707
H9    H     H_    0.200751 0.284449 0.321808 0.199650
H10   H     H_    0.966322 0.454635 0.289484 0.210380
H11   H     H_    0.792613 0.305602 0.836682 0.190572
H12   H     H_    0.949555 0.285687 0.321703 0.206312
H13   H     H_    0.427928 0.562219 0.175495 0.149395
H14   H     H_    0.157770 0.569139 0.827599 0.149853
H15   H     H_    0.255211 0.556360 0.113318 0.120276
H16   H     H_    0.086223 0.597953 0.016986 0.146449
H17   H     H_    0.613842 0.341327 0.750018 0.180851
N1    N     N_R   0.852320 0.499070 0.499340 -0.198619
N2    N     N_R   0.148230 0.499110 0.499340 -0.191105
O1    O     O_R   0.381190 0.680360 0.500000 -0.580635
O2    O     O_R   0.618780 0.680320 0.499990 -0.566042
O3    O     O_R   0.323230 0.500000 0.650990 -0.568764
O4    O     O_R   0.560820 0.499960 0.650980 -0.586674
O5    O     O_R   0.381220 0.319680 0.500010 -0.560503
O6    O     O_R   0.618810 0.319640 0.500000 -0.588415
O7    O     O_R   0.439180 0.500040 0.349020 -0.588096
O8    O     O_R   0.676770 0.500000 0.349010 -0.593333
Br1   Br    Br    0.070442 0.136952 0.622471 -0.529187
O9    O     O_3   0.925897 0.342248 0.979356 -0.718218
H18   H     H_    0.957349 0.367043 0.904995 0.325999
O10   O     O_3   0.775074 0.884208 0.420000 -0.712964
H19   H     H_    0.762489 0.817234 0.373067 0.326052

loop_
_geom_bond_atom_site_label_1
_geom_bond_atom_site_label_2
_ccdc_geom_bond_type
C25   H8    S    
C23   O5    A    
C2    C4    A    
C1    O1    A    
C6    C7    A    
C19   H4    S    
C27   C29   S    
C5    C28   A    
C10   C30   A    
Cu2   N1    S    
C31   C32   A    
Cu1   O5    S    
C9    C29   A    
C30   C31   A    
C4    C8    A    
C16   C23   S    
C25   H9    S    
Cu1   O3    S    
C2    C3    A    
C1    O2    A    
C8    H13   S    
C26   H10   S    
Cu2   O2    S    
C20   N1    A    
C3    C10   A    
C8    C29   A    
C13   C14   A    
C23   O6    A    
Cu1   O7    S    
C11   C13   A    
C11   C19   S    
C12   O3    A    
C21   H6    S    
C19   H5    S    
Cu2   O4    S    
C12   O4    A    
C10   C12   S    
C2    C32   A    
C30   H14   S    
C6    H11   S    
C18   H3    S    
Cu1   Cu2   S    
C22   N2    A    
C3    C7    A    
C27   O7    A    
Cu2   O8    S    
Cu1   N2    S    
C5    C6    A    
C16   C17   A    
C32   H15   S    
C22   H7    S    
C1    C13   S    
C26   H12   S    
C31   H16   S    
C7    H17   S    
C15   C16   A    
C28   O9    S    
C20   C24   A    
C15   H2    S    
C24   C25   S    
C24   N2    A    
C17   C18   S    
O10   H19   S    
Cu1   O1    S    
C9    H1    S    
C14   C15   A    
C18   C19   S    
C18   Br1   S    
C27   O8    A    
C25   C26   S    
C21   C22   A    
Cu2   O6    S    
C14   O10   S    
C21   N1    A    
C11   C17   A    
O9    H18   S    
C9    C28   A    
C4    C5    A    
C20   C26   S    
