data_mof_unit_2085.cif
_audit_creation_date              2012-12-10T18:53:04-0500
_audit_creation_method            fapswitch 2.2
_symmetry_space_group_name_H-M    P1
_symmetry_Int_Tables_number       1
_space_group_crystal_system       triclinic
_cell_length_a                    9.826303
_cell_length_b                    10.715331
_cell_length_c                    16.645688
_cell_angle_alpha                 90.183659
_cell_angle_beta                  85.197923
_cell_angle_gamma                 90.003617
_cell_volume                      1746.4981149

loop_
_atom_site_label
_atom_site_type_symbol
_atom_type_description
_atom_site_fract_x
_atom_site_fract_y
_atom_site_fract_z
_atom_type_partial_charge
C1    C     C_R   0.500027 0.740173 0.500141 0.869997
C2    C     C_R   0.064911 0.578245 0.549845 -0.079598
C3    C     C_R   0.079088 0.421815 0.450143 -0.076525
C4    C     C_R   0.920921 0.578234 0.549813 -0.076459
C5    C     C_R   0.481204 0.492309 0.653270 0.873224
C6    C     C_R   0.518914 0.498916 0.346334 0.879980
C7    C     C_R   0.470412 0.445973 0.735636 -0.057629
C8    C     C_R   0.530208 0.482204 0.259332 -0.076602
C9    C     C_R   0.577477 0.373291 0.761079 -0.281544
C10   C     C_R   0.415841 0.502830 0.216432 -0.259962
C11   C     C_R   0.566376 0.317852 0.836852 0.245076
C12   C     C_R   0.499936 0.259834 0.500072 0.867658
C13   C     C_R   0.418543 0.470225 0.135195 0.253949
C14   C     C_R   0.448612 0.341187 0.889008 0.144798
C15   C     C_R   0.538903 0.417607 0.096823 0.124074
C16   C     C_R   0.338118 0.406529 0.861691 -0.207262
C17   C     C_R   0.655335 0.403765 0.138799 -0.219180
C18   C     C_R   0.348636 0.458338 0.784967 -0.210138
C19   C     C_R   0.650966 0.435074 0.219886 -0.201153
C20   C     C_2   0.452042 0.327843 0.975861 -0.188734
C21   C     C_2   0.550691 0.387639 0.011114 -0.185022
C22   C     C_3   0.178820 0.436323 0.117327 -0.848871
C23   C     C_R   0.617748 0.936204 0.518392 -0.196356
C24   C     C_3   0.646758 0.113982 0.873090 -0.787198
C25   C     C_R   0.381963 0.063832 0.482514 -0.193047
C26   C     C_R   0.617706 0.064078 0.518393 -0.198593
C27   C     C_R   0.381985 0.935983 0.482548 -0.199207
C28   C     C_R   0.499870 0.127439 0.500342 -0.010292
C29   C     C_R   0.499935 0.872598 0.500370 -0.014587
C30   C     C_R   0.935090 0.421790 0.450120 -0.081264
H1    H     H_    0.669039 0.357232 0.721421 0.157243
H2    H     H_    0.290559 0.112490 0.467961 0.152125
H3    H     H_    0.709075 0.112957 0.532928 0.155042
H4    H     H_    0.290574 0.887145 0.468045 0.155993
H5    H     H_    0.886070 0.359347 0.410267 0.123155
H6    H     H_    0.113929 0.640744 0.589660 0.124310
H7    H     H_    0.139432 0.359365 0.410310 0.124963
H8    H     H_    0.860590 0.640763 0.589591 0.123997
H9    H     H_    0.291660 0.594022 0.084200 0.226224
H10   H     H_    0.103277 0.451122 0.072276 0.242286
H11   H     H_    0.135775 0.474271 0.176238 0.239138
H12   H     H_    0.324070 0.543619 0.246199 0.162499
H13   H     H_    0.196046 0.334363 0.123000 0.246873
H14   H     H_    0.769066 0.260331 0.829379 0.216855
H15   H     H_    0.736373 0.066241 0.895527 0.236567
H16   H     H_    0.624599 0.070865 0.814774 0.236121
H17   H     H_    0.558097 0.100262 0.918070 0.251503
H18   H     H_    0.740624 0.418977 0.252121 0.157668
H19   H     H_    0.263470 0.510760 0.765043 0.152104
H20   H     H_    0.639127 0.424599 0.975258 0.158463
H21   H     H_    0.362525 0.292406 0.011037 0.169123
H22   H     H_    0.247574 0.424873 0.901760 0.152993
H23   H     H_    0.749044 0.366635 0.108971 0.147587
H24   H     H_    0.709146 0.887518 0.532923 0.151784
N1    N     N_R   0.142790 0.500030 0.500020 -0.076817
N2    N     N_R   0.857210 0.499970 0.499980 -0.077153
N3    N     N_2   0.305003 0.499272 0.090834 -0.313001
N4    N     N_2   0.676666 0.245320 0.862106 -0.317842
O1    O     O_R   0.385380 0.683250 0.500010 -0.626084
O2    O     O_R   0.614620 0.316750 0.499990 -0.629378
O3    O     O_R   0.614710 0.683220 0.500000 -0.622410
O4    O     O_R   0.385290 0.316780 0.500000 -0.623792
O5    O     O_R   0.371780 0.500040 0.615800 -0.614187
O6    O     O_R   0.628220 0.499960 0.384200 -0.616757
O7    O     O_R   0.601110 0.500010 0.615800 -0.621285
O8    O     O_R   0.398890 0.499990 0.384200 -0.618770
Zn1   Zn    Zn3+2 0.346870 0.500020 0.500000 0.943506
Zn2   Zn    Zn3+2 0.653130 0.499980 0.500000 0.939821

loop_
_geom_bond_atom_site_label_1
_geom_bond_atom_site_label_2
_ccdc_geom_bond_type
C3    C30   A    
N1    Zn1   S    
C23   C29   A    
C30   N2    A    
C14   C20   S    
C25   C27   A    
C11   N4    S    
C12   O4    A    
C26   H3    S    
C26   C28   A    
C22   H13   S    
C8    C19   A    
C6    O8    A    
O7    Zn2   S    
C22   H10   S    
C7    C9    A    
C7    C18   A    
C25   H2    S    
C1    C29   S    
O8    Zn1   S    
C18   H19   S    
C24   H16   S    
N2    Zn2   S    
C4    N2    A    
C25   C28   A    
C9    C11   A    
O3    Zn2   S    
O2    Zn2   S    
C2    C4    A    
C30   H5    S    
C12   C28   S    
C24   H15   S    
O6    Zn2   S    
C22   N3    S    
C24   N4    S    
C21   H20   S    
C17   C19   A    
C1    O1    A    
C4    H8    S    
C5    O7    A    
C20   H21   S    
O5    Zn1   S    
C2    N1    A    
C13   C15   A    
C27   H4    S    
C11   C14   A    
C14   C16   A    
C22   H11   S    
C10   H12   S    
C9    H1    S    
C2    H6    S    
H9    N3    S    
C17   H23   S    
O4    Zn1   S    
C15   C21   S    
C13   N3    S    
C20   C21   D    
C5    O5    A    
C23   H24   S    
C16   C18   A    
C23   C26   A    
C6    O6    A    
C27   C29   A    
C15   C17   A    
C5    C7    S    
C6    C8    S    
O1    Zn1   S    
C19   H18   S    
C24   H17   S    
C3    N1    A    
C8    C10   A    
C16   H22   S    
C3    H7    S    
H14   N4    S    
C1    O3    A    
C10   C13   A    
C12   O2    A    
