data_mof_unit_3789.cif
_audit_creation_date              2013-03-05T16:45:51-0500
_audit_creation_method            fapswitch 2.2
_symmetry_space_group_name_H-M    P1
_symmetry_Int_Tables_number       1
_space_group_crystal_system       triclinic
_cell_length_a                    18.294135
_cell_length_b                    18.370829
_cell_length_c                    18.18216
_cell_angle_alpha                 60.486692
_cell_angle_beta                  60.508224
_cell_angle_gamma                 60.336308
_cell_volume                      4364.19388323

loop_
_atom_site_label
_atom_site_type_symbol
_atom_site_description
_atom_site_fract_x
_atom_site_fract_y
_atom_site_fract_z
_atom_type_partial_charge
Zn1   Zn    Zn3+2 0.206620 0.206630 0.380140 1.033615
Zn2   Zn    Zn3+2 0.793380 0.793370 0.619860 1.039399
Zn3   Zn    Zn3+2 0.206630 0.380140 0.206620 1.062163
Zn4   Zn    Zn3+2 0.793370 0.619860 0.793380 1.061103
Zn5   Zn    Zn3+2 0.380140 0.206620 0.206630 1.056953
Zn6   Zn    Zn3+2 0.619860 0.793380 0.793370 1.066524
Zn7   Zn    Zn3+2 0.206620 0.206620 0.206620 1.140703
Zn8   Zn    Zn3+2 0.793380 0.793380 0.793380 1.155501
O1    O     O_3   0.250000 0.250000 0.250000 -0.540477
O2    O     O_3   0.750000 0.750000 0.750000 -0.546623
O3    O     O_R   0.305080 0.134200 0.134200 -0.603287
O4    O     O_R   0.694920 0.865800 0.865800 -0.574958
O5    O     O_R   0.134200 0.134200 0.305080 -0.623967
O6    O     O_R   0.865800 0.865800 0.694920 -0.616768
O7    O     O_R   0.134200 0.305080 0.134200 -0.569090
O8    O     O_R   0.865800 0.694920 0.865800 -0.602267
O9    O     O_R   0.134200 0.305090 0.426530 -0.625904
O10   O     O_R   0.865800 0.694910 0.573470 -0.586508
O11   O     O_R   0.305090 0.426530 0.134200 -0.615023
O12   O     O_R   0.694910 0.573470 0.865800 -0.595581
O13   O     O_R   0.426530 0.134200 0.305090 -0.612797
O14   O     O_R   0.573470 0.865800 0.694910 -0.594324
O15   O     O_R   0.134190 0.426530 0.134200 -0.602033
O16   O     O_R   0.865810 0.573470 0.865800 -0.572249
O17   O     O_R   0.426530 0.134200 0.134190 -0.553887
O18   O     O_R   0.573470 0.865800 0.865810 -0.592152
O19   O     O_R   0.134200 0.134190 0.426530 -0.593615
O20   O     O_R   0.865800 0.865810 0.573470 -0.586024
O21   O     O_R   0.426530 0.305080 0.134210 -0.625013
O22   O     O_R   0.573470 0.694920 0.865790 -0.647739
O23   O     O_R   0.305080 0.134210 0.426530 -0.626265
O24   O     O_R   0.694920 0.865790 0.573470 -0.662216
O25   O     O_R   0.134210 0.426530 0.305080 -0.630225
O26   O     O_R   0.865790 0.573470 0.694920 -0.652712
C1    C     C_R   0.389692 0.106043 0.113112 0.894543
C2    C     C_R   0.610528 0.889795 0.889498 0.988880
C3    C     C_R   0.110276 0.109593 0.390031 0.924940
C4    C     C_R   0.890067 0.890674 0.609575 0.894659
C5    C     C_R   0.111523 0.389093 0.108851 1.003335
C6    C     C_R   0.891284 0.611354 0.889302 0.951401
C7    C     C_R   0.110328 0.389938 0.389974 0.819592
C8    C     C_R   0.889437 0.610154 0.609914 0.887130
C9    C     C_R   0.390314 0.389746 0.110266 0.844457
C10   C     C_R   0.609819 0.610255 0.889917 0.908721
C11   C     C_R   0.389396 0.110724 0.390597 0.821264
C12   C     C_R   0.610294 0.889673 0.609781 0.882033
H1    H     H_    0.120446 0.951934 0.703729 0.188132
H2    H     H_    0.959921 0.972369 0.277780 0.186356
H3    H     H_    0.833037 0.582423 0.257281 0.153130
H4    H     H_    0.178094 0.417087 0.728444 0.153883
H5    H     H_    0.623403 0.831790 0.241324 0.188819
H6    H     H_    0.398948 0.162925 0.753444 0.165671
C13   C     C_R   0.982570 0.112529 0.329346 0.348031
C14   C     C_R   0.934595 0.975507 0.682809 0.348038
C15   C     C_R   0.184343 0.391155 0.922854 0.364292
C16   C     C_R   0.882302 0.659122 0.032049 0.366342
C17   C     C_R   0.334619 0.108049 0.978664 0.398571
C18   C     C_R   0.602218 0.814706 0.076560 0.361198
C19   C     C_R   0.965389 0.083001 0.283410 -0.199611
C20   C     C_R   0.989793 0.965819 0.722127 -0.191963
C21   C     C_R   0.210100 0.379107 0.842502 -0.227142
C22   C     C_R   0.844406 0.658715 0.120422 -0.230549
C23   C     C_R   0.329116 0.146879 0.892318 -0.239160
C24   C     C_R   0.621373 0.789198 0.152803 -0.226563
C25   C     C_R   0.964833 0.996754 0.318057 -0.281014
C26   C     C_R   0.076989 0.965132 0.671155 -0.275454
C27   C     C_R   0.153679 0.425151 0.792601 -0.292493
C28   C     C_R   0.865097 0.581143 0.189308 -0.291253
C29   C     C_R   0.404635 0.130392 0.819740 -0.290847
C30   C     C_R   0.601288 0.852322 0.186528 -0.297253
C31   C     C_R   0.968932 0.942862 0.404888 0.504935
C32   C     C_R   0.105941 0.986840 0.577743 0.509787
C33   C     C_R   0.070987 0.488308 0.819433 0.490769
C34   C     C_R   0.933061 0.504933 0.169730 0.498030
C35   C     C_R   0.484598 0.065498 0.833922 0.508271
C36   C     C_R   0.551142 0.941135 0.151914 0.470553
C37   C     C_R   0.970978 0.979038 0.457160 -0.007183
C38   C     C_R   0.045517 0.006876 0.537527 -0.008226
C39   C     C_R   0.039094 0.496415 0.905491 0.015804
C40   C     C_R   0.976081 0.506811 0.078901 0.004643
C41   C     C_R   0.488526 0.022660 0.922501 -0.011044
C42   C     C_R   0.517373 0.965708 0.083846 0.016088
C43   C     C_R   0.000605 0.052129 0.410686 -0.108874
C44   C     C_R   0.971656 0.978282 0.592211 -0.112007
C45   C     C_R   0.094818 0.443133 0.960012 -0.114303
C46   C     C_R   0.937965 0.577285 0.014105 -0.113169
C47   C     C_R   0.420188 0.058342 0.989856 -0.094890
C48   C     C_R   0.557774 0.906015 0.036249 -0.102587
C49   C     C_R   0.944225 0.949373 0.552816 -0.098245
C50   C     C_R   0.052130 0.055868 0.446209 -0.088471
C51   C     C_R   0.957394 0.561506 0.935827 -0.097866
C52   C     C_R   0.058892 0.444221 0.049403 -0.081930
C53   C     C_R   0.554062 0.941477 0.948842 -0.079780
C54   C     C_R   0.443210 0.042972 0.062479 -0.100326
H7    H     H_    0.954121 0.126021 0.219981 0.214329
H8    H     H_    0.965248 0.959681 0.791893 0.223760
H9    H     H_    0.277431 0.339122 0.814437 0.191790
H10   H     H_    0.802707 0.719904 0.135515 0.191965
H11   H     H_    0.265304 0.186434 0.881730 0.195065
H12   H     H_    0.653187 0.720040 0.185540 0.190191
H13   H     H_    0.366024 0.586922 0.157807 0.162368
H14   H     H_    0.651194 0.393725 0.860721 0.151686
H15   H     H_    0.607202 0.145385 0.352506 0.153159
H16   H     H_    0.371573 0.876182 0.671698 0.143440
H17   H     H_    0.164008 0.364113 0.600424 0.148947
H18   H     H_    0.853752 0.652285 0.384095 0.149443
C55   C     C_R   0.304804 0.528475 0.298571 -0.151129
C56   C     C_R   0.698878 0.462431 0.719937 -0.158830
C57   C     C_R   0.548596 0.286316 0.296514 -0.149450
C58   C     C_R   0.440876 0.735743 0.711204 -0.158240
C59   C     C_R   0.303887 0.301667 0.540781 -0.173470
C60   C     C_R   0.712887 0.702195 0.450138 -0.191271
H19   H     H_    0.364092 0.504314 0.314785 0.149876
H20   H     H_    0.635431 0.487358 0.711029 0.150051
H21   H     H_    0.530612 0.299296 0.356218 0.147909
H22   H     H_    0.459763 0.731332 0.646695 0.145542
H23   H     H_    0.321510 0.358205 0.521814 0.147375
H24   H     H_    0.702169 0.641792 0.468248 0.149495
C61   C     C_R   0.227403 0.512726 0.366346 -0.187723
C62   C     C_R   0.771647 0.483318 0.646916 -0.190058
C63   C     C_R   0.528267 0.356530 0.221793 -0.173504
C64   C     C_R   0.466452 0.659674 0.780111 -0.180621
C65   C     C_R   0.370058 0.225568 0.520720 -0.196269
C66   C     C_R   0.641174 0.773940 0.474568 -0.172569
H25   H     H_    0.227572 0.476620 0.434494 0.155426
H26   H     H_    0.763548 0.524809 0.582054 0.143180
H27   H     H_    0.494564 0.423297 0.224593 0.158011
H28   H     H_    0.505515 0.596926 0.767895 0.140954
H29   H     H_    0.438494 0.223843 0.486828 0.154613
H30   H     H_    0.575527 0.767968 0.511809 0.145886
C67   C     C_R   0.149590 0.544169 0.346916 0.003211
C68   C     C_R   0.854696 0.450623 0.657103 0.102141
C69   C     C_R   0.552187 0.341309 0.143236 -0.001490
C70   C     C_R   0.441501 0.664149 0.864552 0.101613
C71   C     C_R   0.348780 0.151093 0.545903 0.004108
C72   C     C_R   0.653559 0.853420 0.450209 0.092118
C73   C     C_R   0.149271 0.594882 0.257431 0.505635
C74   C     C_R   0.864643 0.394805 0.742604 0.541493
C75   C     C_R   0.599997 0.253488 0.139380 0.510367
C76   C     C_R   0.388516 0.746999 0.879896 0.538694
C77   C     C_R   0.258928 0.152948 0.594558 0.520675
C78   C     C_R   0.740072 0.860799 0.398595 0.520024
C79   C     C_R   0.228134 0.608955 0.190001 -0.059201
C80   C     C_R   0.790402 0.375437 0.815347 -0.068494
C81   C     C_R   0.618363 0.183581 0.215784 -0.066064
C82   C     C_R   0.364409 0.822804 0.809424 -0.075102
C83   C     C_R   0.193128 0.230728 0.612386 -0.070591
C84   C     C_R   0.811539 0.787265 0.376426 -0.081904
H31   H     H_    0.229357 0.646142 0.121350 0.193963
H32   H     H_    0.796634 0.333941 0.881071 0.173705
H33   H     H_    0.653214 0.116205 0.214397 0.176965
H34   H     H_    0.325083 0.886503 0.819772 0.170736
H35   H     H_    0.124324 0.233514 0.648062 0.185703
H36   H     H_    0.877933 0.791509 0.338489 0.161932
C85   C     C_R   0.305542 0.575643 0.210349 -0.206617
C86   C     C_R   0.708009 0.409149 0.804147 -0.193200
C87   C     C_R   0.592504 0.199808 0.294004 -0.213040
C88   C     C_R   0.390591 0.817281 0.725561 -0.200198
C89   C     C_R   0.215366 0.304692 0.585609 -0.239957
C90   C     C_R   0.798120 0.708413 0.402093 -0.222526
C91   C     C_R   0.014196 0.578885 0.476352 0.388835
C92   C     C_R   0.980920 0.424509 0.521328 0.387944
C93   C     C_R   0.582202 0.473730 0.011127 0.409345
C94   C     C_R   0.420486 0.525431 0.986038 0.385426
C95   C     C_R   0.478126 0.015512 0.579054 0.398380
C96   C     C_R   0.515551 0.977759 0.428858 0.399585
C97   C     C_R   0.945178 0.553906 0.553736 -0.191775
C98   C     C_R   0.052751 0.447052 0.445252 -0.210931
C99   C     C_R   0.553210 0.554548 0.946457 -0.185041
C100  C     C_R   0.447595 0.445065 0.052905 -0.217904
C101  C     C_R   0.554424 0.946037 0.553335 -0.185399
C102  C     C_R   0.443239 0.052411 0.449170 -0.210402
C103  C     C_R   0.929519 0.476028 0.577246 -0.161956
C104  C     C_R   0.069516 0.524434 0.422253 -0.180824
C105  C     C_R   0.471585 0.581142 0.935148 -0.169387
C106  C     C_R   0.528432 0.419294 0.065996 -0.192083
C107  C     C_R   0.574528 0.928223 0.477102 -0.161934
C108  C     C_R   0.422997 0.070829 0.525396 -0.185551
O27   O     O_3   0.028070 0.654429 0.458599 -0.727626
H37   H     H_    0.067892 0.672998 0.396591 0.343080
O28   O     O_3   0.958221 0.353329 0.542549 -0.722863
H38   H     H_    0.972190 0.345279 0.486507 0.343367
O29   O     O_3   0.661405 0.452268 0.021528 -0.715966
H39   H     H_    0.683340 0.388343 0.054647 0.343515
O30   O     O_3   0.344580 0.551429 0.967886 -0.712838
H40   H     H_    0.338787 0.497873 0.974091 0.383762
O31   O     O_3   0.462016 0.029381 0.654836 -0.759231
H41   H     H_    0.399617 0.067132 0.675715 0.336362
O32   O     O_3   0.529166 0.949748 0.363914 -0.770529
H42   H     H_    0.470942 0.966848 0.358715 0.344263
N1    N     N_R   0.969956 0.205270 0.299623 0.226803
O33   O     O_R   0.942933 0.242995 0.357378 -0.399216
O34   O     O_R   0.972831 0.254892 0.217453 -0.338448
N2    N     N_R   0.839890 0.998496 0.728886 0.236518
O35   O     O_R   0.784692 0.045879 0.683685 -0.374765
O36   O     O_R   0.808257 0.981458 0.815115 -0.307880
N3    N     N_R   0.253640 0.362700 0.956783 0.172605
O37   O     O_R   0.266887 0.421536 0.964463 -0.443308
O38   O     O_R   0.316712 0.286684 0.956264 -0.437042
N4    N     N_R   0.882399 0.743296 0.962584 0.234729
O39   O     O_R   0.955685 0.751233 0.896591 -0.365013
O40   O     O_R   0.814309 0.814553 0.972278 -0.346685
N5    N     N_R   0.254040 0.100809 0.052677 0.233266
O41   O     O_R   0.254755 0.026892 0.119628 -0.369273
O42   O     O_R   0.178057 0.163316 0.048486 -0.359562
N6    N     N_R   0.618168 0.746162 0.048250 0.169856
O43   O     O_R   0.552798 0.742513 0.041069 -0.390177
O44   O     O_R   0.690989 0.677953 0.048297 -0.430154
O45   O     O_3   0.984302 0.853172 0.433165 -0.697886
H43   H     H_    0.981034 0.839923 0.388367 0.348676
O46   O     O_3   0.193775 0.980635 0.526899 -0.758448
H44   H     H_    0.226723 0.962997 0.566253 0.336672
O47   O     O_3   0.025039 0.546184 0.759229 -0.773410
H45   H     H_    0.056435 0.530403 0.703749 0.331377
O48   O     O_3   0.956527 0.428343 0.238040 -0.736987
H46   H     H_    0.920466 0.439295 0.296154 0.335666
O49   O     O_3   0.559160 0.045081 0.762693 -0.748750
H47   H     H_    0.544724 0.082176 0.706371 0.357469
O50   O     O_3   0.543307 0.003639 0.178386 -0.714264
H48   H     H_    0.592308 0.980350 0.201736 0.374504
O51   O     O_3   0.074931 0.630643 0.232744 -0.751061
H49   H     H_    0.023705 0.617319 0.286153 0.327780
O52   O     O_3   0.944045 0.359155 0.758565 -0.754316
H50   H     H_    0.990949 0.377735 0.702496 0.327178
O53   O     O_3   0.628784 0.232778 0.063949 -0.738379
H51   H     H_    0.612351 0.287463 0.014904 0.332760
O54   O     O_3   0.360223 0.757464 0.960987 -0.741727
H52   H     H_    0.382116 0.699817 0.004637 0.336550
O55   O     O_3   0.232417 0.081456 0.625786 -0.771088
H53   H     H_    0.284805 0.030468 0.610748 0.320651
O56   O     O_3   0.758151 0.937143 0.369219 -0.776910
H54   H     H_    0.702532 0.984487 0.387369 0.329685

loop_
_geom_bond_atom_site_label_1
_geom_bond_atom_site_label_2
_geom_bond_distance
_ccdc_geom_bond_type
C95   C101  1.406403 A    
C21   H9    1.082623 S    
N2    O36   1.301324 A    
N5    O41   1.302080 A    
C7    C98   1.457135 S    
C96   C102  1.410468 A    
C42   C54   1.440805 A    
H3    C28   1.083178 S    
C58   H22   1.081004 S    
C34   O48   1.382725 S    
Zn2   O10   1.941475 S    
C92   C98   1.412870 A    
C56   C62   1.394856 A    
C28   C34   1.401780 A    
C94   C100  1.415719 A    
O52   H50   0.988870 S    
O26   C8    1.278343 A    
C31   C37   1.424207 A    
O48   H46   0.991927 S    
C83   C89   1.396150 A    
C14   C44   1.423931 A    
C13   C19   1.401513 A    
C92   C103  1.392678 A    
C100  C106  1.417856 A    
O47   H45   0.992144 S    
C38   C50   1.420967 A    
Zn7   O3    1.940888 S    
N5    O42   1.301833 A    
C4    C49   1.470995 S    
C37   C49   1.433000 A    
C95   O31   1.386389 S    
C19   H7    1.082554 S    
C3    C50   1.457767 S    
C14   N2    1.441230 S    
O53   H51   0.988538 S    
C63   H27   1.081326 S    
C46   C51   1.429146 A    
O10   C8    1.284364 A    
C70   C76   1.423292 A    
Zn4   O16   1.926385 S    
C62   H26   1.080895 S    
C15   C45   1.431358 A    
C32   O46   1.381864 S    
C59   H23   1.082005 S    
C35   O49   1.382533 S    
C36   O50   1.372744 S    
C68   C74   1.422880 A    
Zn6   O14   1.930499 S    
C47   C54   1.436384 A    
C73   O51   1.381578 S    
Zn1   O23   1.934993 S    
C41   C53   1.408122 A    
C12   C101  1.452034 S    
C94   C105  1.392774 A    
Zn2   O24   1.934995 S    
C84   C90   1.396278 A    
C56   H20   1.081230 S    
N3    O38   1.299596 A    
Zn3   O15   1.926387 S    
C59   C89   1.394948 A    
C10   C99   1.463178 S    
C64   C70   1.403391 A    
C72   C78   1.424277 A    
H6    C29   1.083133 S    
C78   O56   1.381596 S    
C22   H10   1.081593 S    
C42   C48   1.414494 A    
C79   C85   1.397053 A    
C2    C53   1.440082 S    
C9    C100  1.467109 S    
C26   C32   1.407207 A    
C23   C29   1.387942 A    
N4    O39   1.302178 A    
C31   O45   1.381069 S    
C79   H31   1.082933 S    
C32   C38   1.421271 A    
Zn3   O11   1.945031 S    
C27   C33   1.402281 A    
H5    C30   1.083599 S    
C24   C30   1.383023 A    
H2    C25   1.083009 S    
C91   O27   1.386092 S    
H4    C27   1.083491 S    
H1    C26   1.083026 S    
C39   C51   1.427275 A    
C58   C88   1.393938 A    
C97   C103  1.412167 A    
O24   C12   1.277439 A    
Zn7   O7    1.939037 S    
N2    O35   1.301953 A    
C73   C79   1.402412 A    
C20   C26   1.392717 A    
Zn8   O8    1.939039 S    
C34   C40   1.427915 A    
C55   C85   1.394582 A    
C65   H29   1.080985 S    
C95   C108  1.406831 A    
O22   C10   1.282586 A    
O32   H42   0.990394 S    
C84   H36   1.083054 S    
O13   C11   1.286116 A    
C93   C99   1.408128 A    
C93   C106  1.409776 A    
C55   C61   1.394083 A    
O12   C10   1.284830 A    
C45   C52   1.428739 A    
O11   C9    1.286728 A    
C57   C87   1.394538 A    
C17   C23   1.401748 A    
Zn5   O21   1.948935 S    
C18   C24   1.392788 A    
Zn4   O26   1.933064 S    
C70   C105  1.487356 S    
C66   C72   1.403903 A    
C71   C77   1.424151 A    
C59   C65   1.394788 A    
N1    O33   1.301618 A    
C78   C84   1.402190 A    
Zn1   O1    1.945021 S    
C71   C108  1.489397 S    
C92   O28   1.383432 S    
C94   O30   1.380138 S    
C36   C42   1.429477 A    
O50   H48   0.991466 S    
C77   C83   1.401939 A    
N6    O43   1.301303 A    
C35   C41   1.423933 A    
C14   C20   1.403569 A    
O49   H47   0.991676 S    
O28   H38   0.990006 S    
C80   H32   1.082926 S    
C93   O29   1.386176 S    
C72   C107  1.489033 S    
C37   C43   1.400813 A    
C17   C47   1.428794 A    
C65   C71   1.402675 A    
C80   C86   1.396779 A    
C40   C52   1.410048 A    
C98   C104  1.417526 A    
O29   H39   0.988673 S    
N1    O34   1.301581 A    
O46   H44   0.991543 S    
Zn5   O1    1.953917 S    
O51   H49   0.988937 S    
C67   C73   1.423295 A    
O6    C4    1.279735 A    
C81   C87   1.396794 A    
C21   C27   1.380510 A    
C16   C46   1.429856 A    
O54   H52   0.988364 S    
C56   C86   1.394180 A    
O20   C4    1.272711 A    
Zn8   O4    1.940889 S    
H17   C89   1.082715 S    
C17   N5    1.437430 S    
O45   H43   0.991939 S    
C33   C39   1.433756 A    
C66   H30   1.081381 S    
C96   C107  1.391112 A    
C81   H33   1.083027 S    
Zn3   O1    1.961669 S    
C13   N1    1.440312 S    
O7    C5    1.272880 A    
C91   C97   1.404509 A    
O8    C6    1.264168 A    
C82   H34   1.082909 S    
C20   H8    1.082501 S    
O18   C2    1.268786 A    
O14   C12   1.280196 A    
Zn3   O25   1.933066 S    
O17   C1    1.289685 A    
C69   C75   1.423760 A    
C30   C36   1.405325 A    
Zn5   O17   1.932188 S    
O4    C2    1.273594 A    
C44   C49   1.428103 A    
C76   C82   1.402158 A    
C18   N6    1.436230 S    
Zn2   O2    1.945018 S    
C11   C102  1.454783 S    
H14   C86   1.081836 S    
C5    C52   1.449831 S    
C39   C45   1.425245 A    
C8    C97   1.456824 S    
C61   H25   1.080403 S    
C58   C64   1.395164 A    
C61   C67   1.401806 A    
C1    C54   1.479602 S    
C102  C108  1.416036 A    
Zn7   O1    1.936133 S    
C43   C50   1.420448 A    
C48   C53   1.413205 A    
C75   C81   1.402408 A    
C76   O54   1.381346 S    
Zn8   O6    1.947549 S    
C60   C90   1.394384 A    
Zn6   O22   1.948934 S    
C62   C68   1.402709 A    
O5    C3    1.274351 A    
H15   C87   1.082144 S    
Zn4   O2    1.961672 S    
H16   C88   1.081559 S    
C18   C48   1.427399 A    
Zn6   O2    1.953919 S    
Zn2   O20   1.943358 S    
C60   C66   1.395395 A    
Zn6   O18   1.932186 S    
C82   C88   1.396433 A    
C99   C105  1.411383 A    
C23   H11   1.082450 S    
C67   C104  1.488086 S    
Zn1   O9    1.941476 S    
O55   H53   0.988134 S    
C22   C28   1.384612 A    
C13   C43   1.424277 A    
C96   O32   1.379626 S    
O25   C7    1.276611 A    
O3    C1    1.276357 A    
C75   O53   1.381216 S    
C24   H12   1.082257 S    
O31   H41   0.988580 S    
C25   C31   1.407629 A    
C19   C25   1.390540 A    
C60   H24   1.081650 S    
C91   C104  1.406993 A    
C41   C47   1.401695 A    
C57   C63   1.394265 A    
O30   H40   0.986923 S    
C15   N3    1.434324 S    
C74   O52   1.381782 S    
O19   C3    1.270157 A    
H18   C90   1.082553 S    
C15   C21   1.393928 A    
O16   C6    1.301629 A    
C29   C35   1.403560 A    
C16   C22   1.399651 A    
C68   C103  1.485761 S    
C6    C51   1.471298 S    
C64   H28   1.081403 S    
N3    O37   1.299156 A    
C83   H35   1.082944 S    
C69   C106  1.488614 S    
O9    C7    1.285844 A    
C57   H21   1.081328 S    
O27   H37   0.988224 S    
Zn4   O12   1.945029 S    
C38   C44   1.398383 A    
C40   C46   1.401025 A    
Zn7   O5    1.947547 S    
Zn5   O13   1.930496 S    
Zn8   O2    1.936131 S    
O23   C11   1.272405 A    
O56   H54   0.988393 S    
Zn1   O19   1.943357 S    
H13   C85   1.082137 S    
C55   H19   1.081535 S    
C101  C107  1.410481 A    
C74   C80   1.402332 A    
C33   O47   1.381998 S    
C63   C69   1.402426 A    
N6    O44   1.301014 A    
C77   O55   1.381022 S    
O15   C5    1.280688 A    
N4    O40   1.301332 A    
O21   C9    1.282401 A    
C16   N4    1.436191 S    
