data_mof_unit_3257.cif
_audit_creation_date              2012-12-11T20:00:41-0500
_audit_creation_method            fapswitch 2.2
_symmetry_space_group_name_H-M    P1
_symmetry_Int_Tables_number       1
_space_group_crystal_system       triclinic
_cell_length_a                    8.275735
_cell_length_b                    15.909
_cell_length_c                    26.982674
_cell_angle_alpha                 72.782199
_cell_angle_beta                  96.736192
_cell_angle_gamma                 96.161528
_cell_volume                      3359.99076899

loop_
_atom_site_label
_atom_site_type_symbol
_atom_type_description
_atom_site_fract_x
_atom_site_fract_y
_atom_site_fract_z
_atom_type_partial_charge
Ba1   Ba    Ba6+2 0.337820 0.939830 0.518500 1.703536
Ba2   Ba    Ba6+2 0.851970 0.060110 0.481480 1.702229
Br1   Br    Br    0.134840 0.117958 0.250184 -0.567176
Br2   Br    Br    0.381174 0.529693 0.453197 -0.658313
Br3   Br    Br    0.725682 0.842158 0.337162 -0.650257
C1    C     C_3   0.092675 0.517884 0.617741 0.312867
C2    C     C_R   0.512291 0.409164 0.196684 0.583647
C3    C     C_2   0.314692 0.296271 0.284561 -0.033770
C4    C     C_3   0.611578 0.592738 0.616932 0.288319
C5    C     C_3   0.290440 0.258665 0.342108 -0.113794
C6    C     C_1   0.486175 0.150257 0.344854 0.064430
C7    C     C_2   0.530350 0.195299 0.297714 -0.044265
C8    C     C_2   0.437678 0.271346 0.264169 0.247701
C9    C     C_R   0.548758 0.410859 0.107727 -0.079349
C10   C     C_R   0.519475 0.318237 0.122994 -0.047858
C11   C     C_R   0.523561 0.272980 0.085916 -0.039834
C12   C     C_3   0.090045 0.617600 0.605647 0.476120
C13   C     C_R   0.546071 0.456290 0.145103 -0.024381
C14   C     C_2   0.375363 0.175316 0.367995 -0.240181
C15   C     C_2   0.837478 0.836411 0.637847 -0.252538
C16   C     C_3   0.579472 0.518541 0.666015 -0.293248
C17   C     C_R   0.608932 0.458577 0.964893 0.020382
C18   C     C_R   0.647357 0.598407 0.988366 0.020155
C19   C     C_R   0.643714 0.551810 0.950620 0.050888
C20   C     C_R   0.602276 0.415955 0.925378 -0.097526
C21   C     C_R   0.631826 0.462509 0.874362 -0.057423
C22   C     C_R   0.669538 0.553942 0.859988 -0.030338
C23   C     C_3   0.076614 0.010072 0.647411 0.308746
C24   C     C_R   0.675212 0.598967 0.897971 -0.080025
C25   C     C_R   0.712201 0.691129 0.883253 -0.032114
C26   C     C_R   0.745071 0.736634 0.831198 0.590001
C27   C     C_R   0.701088 0.601072 0.808227 0.594921
C28   C     C_3   0.571970 0.881978 0.372323 0.515898
C29   C     C_2   0.895585 0.712206 0.719005 -0.086956
C30   C     C_3   0.910119 0.749016 0.661046 -0.047074
C31   C     C_1   0.719991 0.857957 0.659990 -0.026390
C32   C     C_2   0.682077 0.813798 0.708055 -0.106344
C33   C     C_2   0.777994 0.738388 0.740931 0.235395
C34   C     C_3   0.114213 0.962844 0.704962 -0.332744
C35   C     C_R   0.581025 0.411250 0.017675 0.019678
C36   C     C_R   0.581134 0.458037 0.055156 0.053346
C37   C     C_R   0.613135 0.551457 0.040686 0.019400
C38   C     C_R   0.553534 0.318066 0.034659 -0.093564
C39   C     C_R   0.576729 0.548224 0.130228 -0.055051
C40   C     C_3   0.417316 0.822910 0.367024 -0.252491
C41   C     C_R   0.685567 0.690949 0.972160 -0.097295
C42   C     C_R   0.717086 0.735890 0.921002 -0.058296
C43   C     C_R   0.609275 0.594685 0.079446 -0.098276
C44   C     C_2   0.397260 0.253049 0.514263 -0.239339
C45   C     C_3   0.586579 0.393372 0.382323 0.300791
C46   C     C_R   0.798575 0.756920 0.488176 -0.362629
C47   C     C_2   0.270413 0.307237 0.575560 -0.135877
C48   C     C_2   0.273984 0.245874 0.550885 0.060289
C49   C     C_2   0.526280 0.312377 0.510895 0.030357
C50   C     C_3   0.547947 0.372071 0.546462 -0.064293
C51   C     C_3   0.389667 0.386778 0.566364 0.075345
C52   C     C_3   0.588546 0.038435 0.688100 0.703191
C53   C     C_2   0.647703 0.457793 0.527182 -0.073326
C54   C     C_2   0.590974 0.530626 0.492225 0.279760
C55   C     C_R   0.833003 0.613327 0.452425 -0.051033
C56   C     C_3   0.595067 0.482663 0.341430 -0.306415
C57   C     C_R   0.699645 0.612092 0.479983 -0.091683
C58   C     C_R   0.946151 0.687275 0.440392 0.396884
C59   C     C_R   0.929380 0.758386 0.459637 0.076813
C60   C     C_R   0.679706 0.686059 0.496950 -0.024355
C61   C     C_3   0.743673 0.033429 0.725580 -0.387058
C62   C     C_3   0.090510 0.992968 0.351468 0.275615
C63   C     C_3   0.010917 0.022486 0.295422 0.085340
C64   C     C_3   0.564428 0.190991 0.670473 0.228725
C65   C     C_3   0.983308 0.383901 0.666600 0.154529
C66   C     C_3   0.032692 0.650827 0.371395 0.226619
C67   C     C_3   0.079007 0.401593 0.368162 0.312956
C68   C     C_3   0.132449 0.480736 0.324070 -0.429632
C69   C     C_R   0.485947 0.272614 0.174962 0.641100
H1    H     H_    0.148327 0.649715 0.569019 0.020740
H2    H     H_    0.047028 0.031248 0.374860 0.072230
H3    H     H_    0.045887 0.499570 0.581592 -0.044418
H4    H     H_    0.001025 0.967348 0.277521 0.151223
H5    H     H_    0.885783 0.041817 0.295159 0.132230
H6    H     H_    0.960292 0.633564 0.599067 -0.172769
H7    H     H_    0.943144 0.013032 0.638717 -0.015274
H8    H     H_    0.123260 0.971255 0.624752 0.063420
H9    H     H_    0.089150 0.004354 0.729349 0.132689
H10   H     H_    0.038996 0.899289 0.716026 0.062422
H11   H     H_    0.244195 0.948677 0.713009 0.133233
H12   H     H_    0.400526 0.808555 0.328782 0.134036
H13   H     H_    0.220553 0.499354 0.628854 0.059650
H14   H     H_    0.695823 0.503536 0.690668 0.155432
H15   H     H_    0.590953 0.340930 0.363116 0.043583
H16   H     H_    0.470034 0.385299 0.400472 -0.015244
H17   H     H_    0.705802 0.490839 0.320335 0.139070
H18   H     H_    0.485548 0.487776 0.313214 0.124902
H19   H     H_    0.599834 0.536373 0.360239 0.141006
H20   H     H_    0.187995 0.373801 0.393457 -0.020186
H21   H     H_    0.008676 0.424965 0.393273 0.115027
H22   H     H_    0.220133 0.526126 0.339975 0.119795
H23   H     H_    0.420511 0.759502 0.398387 0.138997
H24   H     H_    0.024877 0.516510 0.303310 0.121387
H25   H     H_    0.666561 0.651710 0.628339 0.015328
H26   H     H_    0.192864 0.459076 0.295968 0.124932
H27   H     H_    0.633521 0.176930 0.282851 0.122400
H28   H     H_    0.502950 0.201723 0.096380 0.133377
H29   H     H_    0.966513 0.657601 0.741326 0.106728
H30   H     H_    0.625118 0.425988 0.845965 0.119890
H31   H     H_    0.572690 0.346179 0.932218 0.070949
H32   H     H_    0.555687 0.277082 0.009424 0.072393
H33   H     H_    0.242158 0.349047 0.260835 0.090873
H34   H     H_    0.310568 0.857070 0.367726 0.148602
H35   H     H_    0.575165 0.585234 0.158019 0.125247
H36   H     H_    0.693758 0.731373 0.998161 0.072851
H37   H     H_    0.697268 0.570130 0.595742 0.002159
H38   H     H_    0.745802 0.806640 0.911124 0.122015
H39   H     H_    0.577591 0.829638 0.723391 0.087834
H40   H     H_    0.629529 0.665086 0.071955 0.074598
H41   H     H_    0.361308 0.144709 0.409054 0.071444
H42   H     H_    0.867673 0.874705 0.599111 0.065579
H43   H     H_    0.180603 0.299889 0.603084 0.048753
H44   H     H_    0.387251 0.205456 0.492149 0.042754
H45   H     H_    0.514838 0.975272 0.702620 -0.006789
H46   H     H_    0.784670 0.813635 0.501221 0.086376
H47   H     H_    0.771069 0.461273 0.545623 0.050607
H48   H     H_    0.493184 0.538339 0.688343 0.164033
H49   H     H_    0.526376 0.458154 0.655671 0.076310
H50   H     H_    0.614959 0.873716 0.413907 -0.038801
H51   H     H_    0.590460 0.204201 0.629291 0.033450
H52   H     H_    0.676577 0.203771 0.694879 -0.001934
H53   H     H_    0.477791 0.239021 0.671266 0.042978
H54   H     H_    0.105778 0.357500 0.677506 0.034864
H55   H     H_    0.922973 0.366103 0.631603 0.022771
H56   H     H_    0.795403 0.969239 0.732381 0.082577
H57   H     H_    0.907179 0.351798 0.699292 0.070791
H58   H     H_    0.919724 0.675966 0.347360 0.061760
H59   H     H_    0.017715 0.578072 0.387954 0.055708
H60   H     H_    0.132526 0.666646 0.345279 0.075426
H61   H     H_    0.714715 0.038620 0.763676 0.127260
H62   H     H_    0.837025 0.086932 0.709242 0.090922
H63   H     H_    0.224901 0.004068 0.351685 -0.007009
N1    N     N_R   0.479502 0.318204 0.211155 -0.427621
N2    N     N_R   0.740545 0.691487 0.794268 -0.423748
O1    O     O_2   0.431310 0.922990 0.623550 -0.463201
O2    O     O_2   0.857318 0.305843 0.506064 -0.466156
O3    O     O_3   0.721560 0.391286 0.418954 -0.588105
O4    O     O_3   0.663280 0.983100 0.563360 -0.456301
O5    O     O_3   0.016420 0.932050 0.462720 -0.499201
O6    O     O_2   0.959730 0.164640 0.549160 -0.443362
O7    O     O_3   0.150157 0.096246 0.636638 -0.615425
O8    O     O_2   0.964327 0.189584 0.327439 -0.461467
O9    O     O_3   0.976466 0.341202 0.347361 -0.568309
O10   O     O_2   0.460646 0.192351 0.187677 -0.532942
O11   O     O_2   0.692181 0.561445 0.775419 -0.616199
O12   O     O_3   0.048298 0.902336 0.370001 -0.607480
O13   O     O_2   0.513611 0.449354 0.228904 -0.625738
O14   O     O_2   0.779757 0.816272 0.819018 -0.610878
O15   O     O_3   0.126250 0.812630 0.574830 -0.493667
O16   O     O_2   0.251918 0.793300 0.673311 -0.486900
O17   O     O_3   0.627688 0.052420 0.636401 -0.644829
O18   O     O_3   0.176147 0.646586 0.646617 -0.579588
O19   O     O_2   0.229950 0.835370 0.450810 -0.452605
O20   O     O_3   0.517580 0.797570 0.545130 -0.475903
O21   O     O_2   0.343903 0.693204 0.494227 -0.413991
O22   O     O_3   0.490959 0.104907 0.690826 -0.638783
O23   O     O_3   0.463797 0.611465 0.586338 -0.599039
O24   O     O_3   0.993828 0.475904 0.658674 -0.643286
O25   O     O_3   0.076440 0.691702 0.411315 -0.601151
O26   O     O_2   0.758370 0.077020 0.376420 -0.467589
O27   O     O_3   0.526390 0.016840 0.436620 -0.504753
O28   O     O_3   0.063420 0.187310 0.425160 -0.466509
O29   O     O_3   0.543106 0.969515 0.344308 -0.603444
O30   O     O_3   0.173250 0.067890 0.537260 -0.477888
O31   O     O_3   0.672100 0.202370 0.454860 -0.476972
P1    P     P_3+3 0.610630 0.953360 0.619150 0.989675
P2    P     P_3+3 0.057260 0.861390 0.437850 1.054172
P3    P     P_3+3 0.502682 0.696692 0.529980 0.996143
P4    P     P_3+3 0.579040 0.046590 0.380840 1.009315
P5    P     P_3+3 0.692248 0.301003 0.473481 0.993191
P6    P     P_3+3 0.118756 0.752184 0.640340 0.975647
P7    P     P_3+3 0.141718 0.144501 0.569124 0.992499
P8    P     P_3+3 0.073679 0.243927 0.359065 0.995739

loop_
_geom_bond_atom_site_label_1
_geom_bond_atom_site_label_2
_ccdc_geom_bond_type
O16   P6    D    
C4    H37   S    
C68   H26   S    
C39   C43   A    
C50   C51   S    
C59   P2    S    
C3    C8    D    
C22   C24   A    
C28   C40   S    
C36   C37   A    
C9    C13   A    
Br1   C63   S    
C52   C61   S    
O19   P2    D    
C65   O24   S    
C66   H60   S    
C20   H31   S    
O23   P3    S    
Ba2   O6    S    
O29   P4    S    
C69   N1    Am   
C6    C14   D    
C21   C22   A    
C32   C33   S    
C18   C37   A    
C55   C58   A    
C30   P6    S    
Ba1   O19   S    
C64   O22   S    
C34   H10   S    
C29   C30   S    
C25   C26   A    
C56   H19   S    
C32   H39   S    
C44   C49   D    
Ba2   O5    S    
C55   C57   A    
Ba1   Ba2   S    
C46   C60   A    
C16   H48   S    
C19   C24   A    
C21   H30   S    
C66   H58   S    
C49   C50   S    
C67   H21   S    
C45   H16   S    
C35   C38   A    
C54   C57   S    
C17   C20   A    
Br3   C28   S    
C28   H50   S    
C33   N2    S    
C69   O10   D    
C12   O18   S    
Ba2   O27   S    
C56   H18   S    
C52   H45   S    
C67   H20   S    
C39   H35   S    
C63   H5    S    
C22   C27   A    
C16   H14   S    
C64   H51   S    
C4    H25   S    
C18   C41   A    
Ba2   O4    S    
C15   C30   S    
C4    O23   S    
O30   P7    S    
C26   O14   D    
O31   P5    S    
C63   H4    S    
C58   O25   S    
C52   O17   S    
O27   P4    S    
C66   O25   S    
C58   C59   A    
C23   H8    S    
C62   C63   S    
C5    P8    S    
C25   C42   A    
Ba1   O20   S    
C27   N2    Am   
O28   P8    S    
C15   H42   S    
C1    H3    S    
O18   P6    S    
C23   C34   S    
O26   P4    D    
C67   O9    S    
C62   O12   S    
Ba1   P1    S    
C65   H55   S    
O12   P2    S    
C2    O13   D    
O7    P7    S    
C38   H32   S    
C49   P5    S    
C16   H49   S    
C24   C25   A    
Ba1   O4    S    
C13   C39   A    
C45   H15   S    
C44   H44   S    
Ba2   O26   S    
C14   H41   S    
C5    C14   S    
C18   C19   A    
C2    C13   A    
C17   C35   A    
C53   H47   S    
C46   H46   S    
C27   O11   D    
C37   C43   A    
C7    C8    S    
C11   C38   A    
Ba1   O1    S    
C56   H17   S    
Ba2   O31   S    
C9    C36   A    
C61   H62   S    
C11   H28   S    
C35   C36   A    
C64   H52   S    
O1    P1    D    
C41   H36   S    
C17   C19   A    
C53   C54   D    
C28   O29   S    
C34   H11   S    
C26   N2    Am   
C3    H33   S    
C47   C48   D    
C43   H40   S    
C65   H54   S    
C1    C12   S    
C41   C42   A    
C31   C32   D    
C6    P4    S    
O9    P8    S    
O17   P1    S    
C57   C60   A    
C60   P3    S    
C23   H7    S    
C29   C33   D    
C46   C59   A    
C67   C68   S    
C48   P7    S    
C66   H59   S    
C2    N1    Am   
C6    C7    D    
C40   H34   S    
O3    P5    S    
C42   H38   S    
O5    P2    S    
Ba1   P2    S    
C23   O7    S    
C29   H29   S    
O15   P6    S    
C8    N1    S    
C40   H12   S    
C20   C21   A    
O4    P1    S    
C7    H27   S    
Ba1   O5    S    
C40   H23   S    
Ba2   P4    S    
C31   P1    S    
O8    P8    D    
C4    C16   S    
Ba1   O27   S    
C44   C48   S    
C10   C11   A    
Br2   C54   S    
Ba1   O30   S    
C65   H57   S    
C12   H6    S    
Ba1   O15   S    
C62   H63   S    
C68   H24   S    
C1    H13   S    
Ba2   O30   S    
C34   H9    S    
C61   H61   S    
C15   C31   D    
C47   C51   S    
C10   C69   A    
C52   O22   S    
C1    O24   S    
C64   H53   S    
C3    C5    S    
O20   P3    S    
C50   C53   S    
O6    P7    D    
O2    P5    D    
C45   C56   S    
C47   H43   S    
C9    C10   A    
C62   H2    S    
C68   H22   S    
Ba2   O28   S    
O21   P3    D    
C45   O3    S    
C12   H1    S    
C61   H56   S    
