data_mof_unit_3250.cif
_audit_creation_date              2012-12-10T17:51:33-0500
_audit_creation_method            fapswitch 2.2
_symmetry_space_group_name_H-M    P1
_symmetry_Int_Tables_number       1
_space_group_crystal_system       triclinic
_cell_length_a                    9.893817
_cell_length_b                    10.690639
_cell_length_c                    16.707796
_cell_angle_alpha                 92.11958
_cell_angle_beta                  85.147835
_cell_angle_gamma                 91.321458
_cell_volume                      1759.3134743

loop_
_atom_site_label
_atom_site_type_symbol
_atom_type_description
_atom_site_fract_x
_atom_site_fract_y
_atom_site_fract_z
_atom_type_partial_charge
C1    C     C_R   0.502728 0.739815 0.491586 0.876167
C2    C     C_R   0.530615 0.552297 0.265643 -0.031620
C3    C     C_R   0.273971 0.882643 0.440236 -0.192159
C4    C     C_R   0.481066 0.501707 0.653369 0.870955
C5    C     C_R   0.146169 0.936014 0.450416 0.145017
C6    C     C_R   0.126289 0.041446 0.501270 -0.188128
C7    C     C_R   0.237314 0.102015 0.534200 0.100142
C8    C     C_R   0.370694 0.057859 0.512985 0.069254
C9    C     C_R   0.383919 0.937354 0.478248 0.017726
C10   C     C_R   0.506623 0.874782 0.483009 -0.205914
C11   C     C_R   0.625207 0.943087 0.498981 0.086376
C12   C     C_R   0.348650 0.562341 0.780363 -0.245387
C13   C     C_R   0.616431 0.066334 0.524799 0.096724
C14   C     C_R   0.491694 0.127667 0.524289 -0.213871
C15   C     C_R   0.848404 0.657674 0.609918 -0.191475
C16   C     C_R   0.496836 0.261301 0.510892 0.923162
C17   C     C_R   0.912931 0.735686 0.663917 -0.200301
C18   C     C_R   0.052894 0.737182 0.663024 -0.203076
C19   C     C_R   0.128928 0.660171 0.608441 -0.153354
C20   C     C_R   0.066734 0.578371 0.553787 0.159679
C21   C     C_R   0.922026 0.577709 0.554146 0.162083
C22   C     C_R   0.933933 0.425290 0.448330 -0.141900
C23   C     C_R   0.433050 0.667926 0.164025 -0.170744
C24   C     C_R   0.077147 0.425200 0.448416 -0.152269
C25   C     C_R   0.518957 0.507645 0.347196 0.859324
C26   C     C_R   0.469398 0.518500 0.740386 -0.077417
C27   C     C_R   0.582439 0.500394 0.782968 -0.273081
C28   C     C_R   0.577181 0.529031 0.864977 0.108327
C29   C     C_R   0.458080 0.580566 0.904321 0.165483
C30   C     C_R   0.342181 0.594296 0.862300 0.091250
C31   C     C_R   0.421884 0.617243 0.239307 -0.213483
C32   C     C_R   0.653558 0.545033 0.217495 -0.208330
C33   C     C_R   0.663995 0.594543 0.141261 -0.151873
C34   C     C_R   0.551885 0.651663 0.113423 0.193654
C35   C     C_2   0.448413 0.608996 0.990735 -0.189939
C36   C     C_2   0.549079 0.666451 0.027352 -0.237815
H1    H     H_    0.755967 0.580945 0.102171 0.135272
H2    H     H_    0.359440 0.572300 0.025612 0.168481
H3    H     H_    0.675274 0.463796 0.752738 0.165313
H4    H     H_    0.762511 0.837046 0.429907 0.211059
H5    H     H_    0.782655 0.844351 0.531425 0.219063
H6    H     H_    0.060544 0.878090 0.350026 0.174800
H7    H     H_    0.023929 0.787155 0.429796 0.187588
H8    H     H_    0.024961 0.076522 0.515328 0.159638
H9    H     H_    0.157067 0.155936 0.644728 0.169269
H10   H     H_    0.151325 0.264673 0.574970 0.205665
H11   H     H_    0.709184 0.188000 0.601886 0.192014
H12   H     H_    0.286772 0.798924 0.402058 0.152937
H13   H     H_    0.790880 0.171410 0.506935 0.214234
H14   H     H_    0.884522 0.364186 0.406224 0.148518
H15   H     H_    0.853914 0.796998 0.705679 0.150864
H16   H     H_    0.739853 0.498617 0.237948 0.149143
H17   H     H_    0.639467 0.701125 0.993012 0.167456
H18   H     H_    0.237583 0.736491 0.918490 0.181026
H19   H     H_    0.141369 0.640448 0.864346 0.179822
H20   H     H_    0.709354 0.405500 0.900905 0.188515
H21   H     H_    0.776046 0.549728 0.882831 0.175674
H22   H     H_    0.741392 0.667050 0.611333 0.207639
H23   H     H_    0.327891 0.629025 0.276781 0.150869
H24   H     H_    0.103122 0.799008 0.704470 0.144182
H25   H     H_    0.235845 0.667963 0.610825 0.204747
H26   H     H_    0.135558 0.363792 0.406513 0.157478
H27   H     H_    0.346267 0.713303 0.143301 0.132240
H28   H     H_    0.260688 0.575645 0.747516 0.158098
N1    N     N_R   0.857140 0.501200 0.500750 -0.120372
N2    N     N_R   0.142740 0.501280 0.500770 -0.128034
N3    N     N_3   0.758242 0.893646 0.482427 -0.424552
N4    N     N_3   0.035104 0.879900 0.412074 -0.457425
N5    N     N_3   0.212698 0.197085 0.596219 -0.432859
N6    N     N_3   0.735899 0.125591 0.553765 -0.448548
N7    N     N_3   0.219225 0.642343 0.903024 -0.477571
N8    N     N_3   0.691063 0.501323 0.908472 -0.470562
O1    O     O_R   0.385310 0.683220 0.500000 -0.635286
O2    O     O_R   0.614640 0.683250 0.500010 -0.647323
O3    O     O_R   0.371780 0.500010 0.615800 -0.633659
O4    O     O_R   0.601110 0.500030 0.615800 -0.640634
O5    O     O_R   0.385360 0.316750 0.499990 -0.593124
O6    O     O_R   0.614690 0.316780 0.500000 -0.629570
O7    O     O_R   0.398890 0.499970 0.384200 -0.620794
O8    O     O_R   0.628220 0.499990 0.384200 -0.613181
Zn1   Zn    Zn3+2 0.346870 0.499980 0.499990 0.924623
Zn2   Zn    Zn3+2 0.653130 0.500020 0.500010 0.914079

loop_
_geom_bond_atom_site_label_1
_geom_bond_atom_site_label_2
_ccdc_geom_bond_type
C25   O8    A    
C35   C36   D    
C17   H15   S    
C30   N7    S    
C7    C8    A    
H5    N3    S    
C26   C27   A    
C1    O2    A    
C20   N2    A    
C28   C29   A    
C18   C19   A    
C5    C6    A    
C12   H28   S    
C13   N6    S    
C3    H12   S    
C2    C32   A    
C16   O5    A    
C31   H23   S    
C32   H16   S    
H10   N5    S    
C36   H17   S    
H18   N7    S    
C19   C20   A    
C27   H3    S    
C8    C9    A    
H20   N8    S    
H4    N3    S    
C8    C14   A    
C14   C16   S    
C9    C10   A    
C34   C36   S    
C24   N2    A    
C22   H14   S    
C21   N1    A    
C23   H27   S    
C6    H8    S    
C13   C14   A    
H6    N4    S    
C28   N8    S    
O2    Zn2   S    
C5    N4    S    
O1    Zn1   S    
C11   N3    S    
C33   C34   A    
H9    N5    S    
C35   H2    S    
O8    Zn2   S    
O4    Zn2   S    
O7    Zn1   S    
O3    Zn1   S    
H11   N6    S    
C33   H1    S    
C12   C26   A    
C2    C31   A    
C23   C31   A    
C22   N1    A    
C29   C30   A    
C3    C9    A    
O6    Zn2   S    
O5    Zn1   S    
C23   C34   A    
C17   C18   A    
C18   H24   S    
H13   N6    S    
C15   H22   S    
C22   C24   A    
C15   C17   A    
C24   H26   S    
C12   C30   A    
C25   O7    A    
C1    C10   S    
C3    C5    A    
C7    N5    S    
C4    C26   S    
C6    C7    A    
C29   C35   S    
C1    O1    A    
C32   C33   A    
N2    Zn1   S    
C11   C13   A    
N1    Zn2   S    
C19   H25   S    
C2    C25   S    
C16   O6    A    
H21   N8    S    
C4    O4    A    
C10   C11   A    
C4    O3    A    
C15   C21   A    
C20   C21   A    
C27   C28   A    
H19   N7    S    
H7    N4    S    
