data_mof_unit_4334.cif
_audit_creation_date              2012-12-10T19:44:32-0500
_audit_creation_method            fapswitch 2.2
_symmetry_space_group_name_H-M    P1
_symmetry_Int_Tables_number       1
_space_group_crystal_system       triclinic
_cell_length_a                    8.372652
_cell_length_b                    15.012834
_cell_length_c                    14.147693
_cell_angle_alpha                 90.003667
_cell_angle_beta                  98.860375
_cell_angle_gamma                 89.998621
_cell_volume                      1757.10445309

loop_
_atom_site_label
_atom_site_type_symbol
_atom_type_description
_atom_site_fract_x
_atom_site_fract_y
_atom_site_fract_z
_atom_type_partial_charge
C1    C     C_R   0.500013 0.327706 0.500000 0.835290
C2    C     C_R   0.499986 0.672269 0.499999 0.886566
C3    C     C_R   0.454250 0.423861 0.100765 -0.275047
C4    C     C_R   0.453396 0.575939 0.890850 -0.281715
C5    C     C_R   0.454778 0.425349 0.200166 0.007496
C6    C     C_R   0.453705 0.574451 0.791490 0.017674
C7    C     C_R   0.546279 0.574418 0.208528 0.017707
C8    C     C_R   0.545233 0.425384 0.799815 0.007541
C9    C     C_R   0.546579 0.575921 0.109170 -0.281739
C10   C     C_R   0.545753 0.423881 0.899214 -0.275077
C11   C     C_R   0.500136 0.499930 0.053276 0.139035
C12   C     C_R   0.499847 0.499939 0.946723 0.139034
C13   C     C_R   0.202931 0.483269 0.475384 0.941535
C14   C     C_R   0.797068 0.483276 0.524616 0.941523
C15   C     C_2   0.040290 0.447317 0.462170 -0.099956
C16   C     C_2   0.959711 0.447323 0.537832 -0.099953
C17   C     C_R   0.555424 0.094124 0.584726 -0.179618
C18   C     C_R   0.557758 0.905921 0.426161 -0.178803
C19   C     C_R   0.554454 0.186067 0.584881 -0.204349
C20   C     C_R   0.556850 0.813960 0.425840 -0.197226
C21   C     C_R   0.500010 0.231998 0.500000 -0.004144
C22   C     C_R   0.499983 0.768025 0.499999 -0.028339
C23   C     C_R   0.445558 0.186060 0.415119 -0.204358
C24   C     C_R   0.443116 0.813971 0.574157 -0.197228
C25   C     C_R   0.444570 0.094118 0.415274 -0.179624
C26   C     C_R   0.442213 0.905932 0.573836 -0.178803
C27   C     C_R   0.499993 0.048126 0.500000 0.117092
C28   C     C_R   0.499987 0.951924 0.499999 0.115961
H1    H     H_    0.600638 0.058954 0.650265 0.129449
H2    H     H_    0.604804 0.941099 0.369507 0.129498
H3    H     H_    0.598090 0.221071 0.650765 0.144295
H4    H     H_    0.602500 0.778905 0.368609 0.142121
H5    H     H_    0.401926 0.221059 0.349235 0.144306
H6    H     H_    0.397467 0.778924 0.631388 0.142123
H7    H     H_    0.399349 0.058943 0.349735 0.129450
H8    H     H_    0.395170 0.941119 0.630491 0.129497
H9    H     H_    0.415747 0.363864 0.061292 0.131948
H10   H     H_    0.414536 0.635833 0.923336 0.133926
H11   H     H_    0.418690 0.366430 0.235284 0.116439
H12   H     H_    0.416160 0.633093 0.749565 0.123742
H13   H     H_    0.583816 0.633057 0.250468 0.123765
H14   H     H_    0.581333 0.366471 0.764683 0.116461
H15   H     H_    0.585428 0.635822 0.076699 0.133927
H16   H     H_    0.584265 0.363879 0.938669 0.131950
N1    N     N_R   0.500000 0.499980 0.252470 -0.091107
N2    N     N_R   0.500000 0.500020 0.747530 -0.091103
O1    O     O_R   0.500010 0.369070 0.579480 -0.650969
O2    O     O_R   0.499990 0.630930 0.420520 -0.623423
O3    O     O_R   0.500010 0.369060 0.420520 -0.650944
O4    O     O_R   0.499990 0.630940 0.579480 -0.623407
O5    O     O_R   0.271750 0.500000 0.560890 -0.637762
O6    O     O_R   0.728250 0.500000 0.439110 -0.637763
O7    O     O_R   0.271750 0.499990 0.401930 -0.602518
O8    O     O_R   0.728250 0.500010 0.598070 -0.602522
Zn1   Zn    Zn3+2 0.500000 0.500010 0.606140 0.921016
Zn2   Zn    Zn3+2 0.500000 0.499990 0.393860 0.921012
C29   C     C_3   0.967273 0.410257 0.364466 -0.352139
C30   C     C_3   0.065998 0.332053 0.335280 -0.903510
H17   H     H_    0.186504 0.354219 0.321697 0.273346
H18   H     H_    0.081285 0.280382 0.392204 0.261465
H19   H     H_    0.002053 0.301806 0.268349 0.245746
H20   H     H_    0.844023 0.383203 0.364964 0.239591
H21   H     H_    0.959960 0.463694 0.309621 0.218568
C31   C     C_3   0.032725 0.410275 0.635537 -0.352141
C32   C     C_3   0.934018 0.332064 0.664711 -0.903544
H22   H     H_    0.813470 0.354210 0.678244 0.273344
H23   H     H_    0.918824 0.280372 0.607803 0.261470
H24   H     H_    0.997927 0.301851 0.731666 0.245755
H25   H     H_    0.155986 0.383229 0.635048 0.239599
H26   H     H_    0.040009 0.463715 0.690383 0.218569

loop_
_geom_bond_atom_site_label_1
_geom_bond_atom_site_label_2
_ccdc_geom_bond_type
N2    Zn1   S    
C2    C22   S    
C23   H5    S    
C11   C12   S    
C14   O6    A    
C1    C21   S    
C19   C21   A    
C18   H2    S    
C31   H26   S    
C25   C27   A    
O3    Zn2   S    
C17   H1    S    
C16   C31   S    
C26   C28   A    
O4    Zn1   S    
N1    Zn2   S    
C13   C15   S    
C8    H14   S    
C32   H24   S    
C19   H3    S    
C31   C32   S    
C30   H19   S    
C23   C25   A    
C18   C28   A    
C29   H20   S    
O5    Zn1   S    
C31   H25   S    
C9    C11   A    
C29   C30   S    
C10   C12   A    
C25   H7    S    
C15   C29   S    
C7    N1    A    
C22   C24   A    
C4    C6    A    
C14   O8    A    
C24   C26   A    
C1    O1    A    
C29   H21   S    
C30   H18   S    
C13   O7    A    
C5    H11   S    
C21   C23   A    
C6    N2    A    
C14   C16   S    
C9    H15   S    
C4    C12   A    
C10   H16   S    
C15   C16   D    
C17   C27   A    
C7    C9    A    
C6    H12   S    
C3    C11   A    
C3    H9    S    
C18   C20   A    
O1    Zn1   S    
C32   H22   S    
C20   H4    S    
O7    Zn2   S    
C26   H8    S    
C27   C28   S    
O2    Zn2   S    
O8    Zn1   S    
C17   C19   A    
C4    H10   S    
C32   H23   S    
C2    O4    A    
C8    N2    A    
C2    O2    A    
C30   H17   S    
C13   O5    A    
C5    N1    A    
C8    C10   A    
C24   H6    S    
O6    Zn2   S    
C7    H13   S    
C20   C22   A    
C3    C5    A    
C1    O3    A    
