data_mof_unit_1846.cif
_audit_creation_date              2012-12-11T16:52:32-0500
_audit_creation_method            fapswitch 2.2
_symmetry_space_group_name_H-M    P1
_symmetry_Int_Tables_number       1
_space_group_crystal_system       triclinic
_cell_length_a                    7.338378
_cell_length_b                    25.88742
_cell_length_c                    28.71915
_cell_angle_alpha                 90.010883
_cell_angle_beta                  89.796215
_cell_angle_gamma                 90.141765
_cell_volume                      5455.77368586

loop_
_atom_site_label
_atom_site_type_symbol
_atom_type_description
_atom_site_fract_x
_atom_site_fract_y
_atom_site_fract_z
_atom_type_partial_charge
O1    O     O_R   0.601030 0.796770 0.202460 -0.510436
O2    O     O_R   0.398970 0.203230 0.797540 -0.520233
O3    O     O_R   0.398970 0.203230 0.702460 -0.510986
O4    O     O_R   0.601030 0.796770 0.297540 -0.519459
O5    O     O_R   0.101030 0.703230 0.297540 -0.511022
O6    O     O_R   0.898970 0.296770 0.702460 -0.519333
O7    O     O_R   0.898970 0.296770 0.797540 -0.511053
O8    O     O_R   0.101030 0.703230 0.202460 -0.519729
O9    O     O_R   0.271290 0.802910 0.297210 -0.539784
O10   O     O_R   0.728710 0.197090 0.702790 -0.550781
O11   O     O_R   0.728710 0.197090 0.797210 -0.539219
O12   O     O_R   0.271290 0.802910 0.202790 -0.549707
O13   O     O_R   0.771290 0.697090 0.202790 -0.539850
O14   O     O_R   0.228710 0.302910 0.797210 -0.550603
O15   O     O_R   0.228710 0.302910 0.702790 -0.539721
O16   O     O_R   0.771290 0.697090 0.297210 -0.550887
C1    C     C_R   0.439672 0.815341 0.311990 0.759812
C2    C     C_R   0.560484 0.185574 0.687206 0.768589
C3    C     C_R   0.559860 0.184709 0.811986 0.760821
C4    C     C_R   0.440049 0.814388 0.187169 0.771292
C5    C     C_R   0.939798 0.684669 0.188004 0.761755
C6    C     C_R   0.060315 0.314440 0.812784 0.768630
C7    C     C_R   0.060574 0.315357 0.688001 0.759846
C8    C     C_R   0.939285 0.685562 0.312806 0.767991
O17   O     O_3   0.434520 0.717290 0.250000 -0.379923
O18   O     O_3   0.565480 0.282710 0.750000 -0.379267
O19   O     O_3   0.934520 0.782710 0.250000 -0.378783
O20   O     O_3   0.065480 0.217290 0.750000 -0.379499
V1    V     V_3+5 0.159680 0.756060 0.250000 1.541641
V2    V     V_3+5 0.840320 0.243940 0.750000 1.539872
V3    V     V_3+5 0.659680 0.743940 0.250000 1.540628
V4    V     V_3+5 0.340320 0.256060 0.750000 1.539851
C9    C     C_R   0.942882 0.400218 0.658451 0.263162
C10   C     C_R   0.053730 0.662439 0.392445 0.248142
C11   C     C_R   0.057443 0.599763 0.158378 0.262024
C12   C     C_R   0.944231 0.337676 0.892438 0.248095
C13   C     C_R   0.441972 0.099732 0.841733 0.263621
C14   C     C_R   0.565602 0.839520 0.108769 0.250041
C15   C     C_R   0.558365 0.900235 0.341571 0.262990
C16   C     C_R   0.446122 0.162429 0.607536 0.247885
C17   C     C_R   0.942462 0.440199 0.624329 0.366328
C18   C     C_R   0.052609 0.629468 0.432162 0.432748
C19   C     C_R   0.057804 0.559753 0.124278 0.365994
C20   C     C_R   0.945255 0.370607 0.932183 0.432166
C21   C     C_R   0.440685 0.059980 0.876075 0.364132
C22   C     C_R   0.568505 0.873096 0.069469 0.414031
C23   C     C_R   0.558852 0.940252 0.375668 0.366001
C24   C     C_R   0.447287 0.129489 0.567793 0.432400
C25   C     C_R   0.032758 0.432015 0.581057 -0.027078
C26   C     C_R   0.963414 0.580750 0.429537 -0.015318
C27   C     C_R   0.968355 0.568032 0.081078 -0.027139
C28   C     C_R   0.035112 0.419227 0.929501 -0.015483
C29   C     C_R   0.527860 0.068911 0.919499 -0.026570
C30   C     C_R   0.473585 0.920832 0.071756 0.053882
C31   C     C_R   0.468129 0.932037 0.418890 -0.027075
C32   C     C_R   0.535908 0.080819 0.570451 -0.015402
C33   C     C_R   0.136459 0.386977 0.574880 -0.154829
C34   C     C_R   0.862342 0.568550 0.389545 -0.182301
C35   C     C_R   0.865718 0.613224 0.074910 -0.155181
C36   C     C_R   0.136662 0.431402 0.889410 -0.182382
C37   C     C_R   0.628376 0.114628 0.925784 -0.150824
C38   C     C_R   0.363143 0.931246 0.110678 -0.108987
C39   C     C_R   0.364120 0.886920 0.425064 -0.154883
C40   C     C_R   0.636278 0.068609 0.610511 -0.182491
H1    H     H_    0.207743 0.380302 0.542341 0.179977
H2    H     H_    0.791923 0.531822 0.387130 0.172772
H3    H     H_    0.795126 0.619959 0.042412 0.179938
H4    H     H_    0.207553 0.468064 0.886963 0.172947
H5    H     H_    0.697176 0.121899 0.958460 0.184573
H6    H     H_    0.287781 0.967114 0.112747 0.170592
H7    H     H_    0.292531 0.880230 0.457572 0.180102
H8    H     H_    0.706234 0.031910 0.612942 0.172823
C41   C     C_R   0.150273 0.350271 0.610299 -0.202024
C42   C     C_R   0.850178 0.603270 0.352452 -0.194236
C43   C     C_R   0.851889 0.649972 0.110308 -0.200821
C44   C     C_R   0.148923 0.396705 0.852290 -0.194674
C45   C     C_R   0.643533 0.151063 0.890197 -0.205870
C46   C     C_R   0.348190 0.895948 0.147243 -0.212055
C47   C     C_R   0.350261 0.850175 0.389666 -0.202349
C48   C     C_R   0.648449 0.103300 0.647634 -0.194381
H9    H     H_    0.233100 0.316251 0.604635 0.188739
H10   H     H_    0.769285 0.592961 0.322355 0.165454
H11   H     H_    0.769731 0.684103 0.104686 0.189258
H12   H     H_    0.230376 0.406952 0.822129 0.165538
H13   H     H_    0.724501 0.185516 0.895892 0.189759
H14   H     H_    0.260690 0.905023 0.176568 0.166263
H15   H     H_    0.267078 0.816106 0.395305 0.189024
H16   H     H_    0.728904 0.093009 0.677779 0.165556
C49   C     C_R   0.051753 0.356031 0.651785 -0.123915
C50   C     C_R   0.947668 0.649818 0.353141 -0.120390
C51   C     C_R   0.949384 0.644071 0.151748 -0.124482
C52   C     C_R   0.051034 0.350230 0.853064 -0.120395
C53   C     C_R   0.549115 0.144371 0.848406 -0.123705
C54   C     C_R   0.450960 0.850482 0.147099 -0.124315
C55   C     C_R   0.449050 0.855986 0.348219 -0.123734
C56   C     C_R   0.551629 0.149817 0.646894 -0.120444
C57   C     C_R   0.171980 0.491823 0.519896 0.224181
C58   C     C_R   0.823473 0.520559 0.490350 0.268210
C59   C     C_R   0.828139 0.508343 0.020296 0.223166
C60   C     C_R   0.176052 0.479007 0.990172 0.267530
C61   C     C_R   0.673851 0.011417 0.980629 0.196886
C62   C     C_R   0.331337 0.977830 0.010983 0.244922
C63   C     C_R   0.328308 0.991791 0.479809 0.223605
C64   C     C_R   0.676450 0.020886 0.509717 0.267793
C65   C     C_R   0.150618 0.522099 0.479376 0.415959
C66   C     C_R   0.844894 0.479787 0.522566 0.437019
C67   C     C_R   0.848921 0.478074 0.979716 0.416343
C68   C     C_R   0.155452 0.519846 0.022388 0.437363
C69   C     C_R   0.657321 0.981765 0.021824 0.354821
C70   C     C_R   0.345715 0.018273 0.977811 0.330945
C71   C     C_R   0.349149 0.022063 0.520368 0.416165
C72   C     C_R   0.655368 0.980071 0.477500 0.437231
C73   C     C_R   0.978363 0.541250 0.467421 -0.107553
C74   C     C_R   0.017162 0.469095 0.541237 -0.135507
C75   C     C_R   0.020781 0.458637 0.967474 -0.107392
C76   C     C_R   0.983385 0.530838 0.041333 -0.135218
C77   C     C_R   0.487601 0.960719 0.034281 -0.014577
C78   C     C_R   0.516126 0.031446 0.959108 -0.062991
C79   C     C_R   0.521294 0.041383 0.532504 -0.107456
C80   C     C_R   0.483354 0.969198 0.458657 -0.135437
O21   O     O_3   0.843469 0.403761 0.699240 -0.619684
H17   H     H_    0.732518 0.424289 0.693138 0.349622
O22   O     O_3   0.151517 0.708078 0.391516 -0.630709
H18   H     H_    0.262352 0.703760 0.410642 0.339842
O23   O     O_3   0.155984 0.596127 0.199117 -0.619937
H19   H     H_    0.266708 0.575443 0.192963 0.349595
O24   O     O_3   0.845940 0.292129 0.891556 -0.630789
H20   H     H_    0.734932 0.296530 0.910803 0.339581
O25   O     O_3   0.345287 0.095535 0.800740 -0.619801
H21   H     H_    0.234442 0.074693 0.806749 0.350314
O26   O     O_3   0.667588 0.794779 0.110091 -0.627861
H22   H     H_    0.781463 0.800459 0.092232 0.342680
O27   O     O_3   0.658061 0.903808 0.300821 -0.619654
H23   H     H_    0.769124 0.924433 0.306956 0.349652
O28   O     O_3   0.348931 0.208035 0.608436 -0.630533
H24   H     H_    0.238272 0.203697 0.589218 0.339895
S1    S     S_3+6 0.845999 0.501499 0.638143 0.093124
O29   O     O_2   0.645577 0.500227 0.627719 -0.269229
O30   O     O_2   0.871072 0.513217 0.689006 -0.293196
O31   O     O_3   0.943416 0.549302 0.607179 -0.446803
H25   H     H_    0.072884 0.549350 0.616837 0.353339
S2    S     S_3+6 0.146666 0.651801 0.485699 0.070826
O32   O     O_2   0.347458 0.640527 0.486063 -0.295357
O33   O     O_2   0.118779 0.709108 0.490229 -0.298304
O34   O     O_3   0.046996 0.622867 0.531615 -0.463674
H26   H     H_    0.119746 0.633890 0.558864 0.401317
S3    S     S_3+6 0.152971 0.498328 0.138044 0.093349
O35   O     O_2   0.353549 0.499308 0.127434 -0.268808
O36   O     O_2   0.126996 0.486705 0.188937 -0.293326
O37   O     O_3   0.055163 0.450621 0.107199 -0.446547
H27   H     H_    0.925595 0.450733 0.117004 0.353387
S4    S     S_3+6 0.850378 0.348318 0.985805 0.071488
O38   O     O_2   0.649744 0.359812 0.986415 -0.294875
O39   O     O_2   0.877431 0.290975 0.990235 -0.297827
O40   O     O_3   0.949974 0.377092 0.031645 -0.463605
H28   H     H_    0.876418 0.366267 0.058946 0.401448
S5    S     S_3+6 0.347878 0.998108 0.862330 0.082775
O41   O     O_2   0.147246 0.998234 0.872907 -0.278554
O42   O     O_2   0.374430 0.986477 0.811460 -0.291642
O43   O     O_3   0.447339 0.950868 0.893240 -0.450662
H29   H     H_    0.577053 0.951661 0.883583 0.350923
S6    S     S_3+6 0.674150 0.852322 0.016682 0.078744
O44   O     O_2   0.873973 0.864952 0.018673 -0.287919
O45   O     O_2   0.651332 0.794909 0.011192 -0.292845
O46   O     O_3   0.581514 0.881191 0.970009 -0.466349
H30   H     H_    0.665116 0.873149 0.943860 0.394787
S7    S     S_3+6 0.655878 0.001617 0.361872 0.093468
O47   O     O_2   0.856194 0.000516 0.372412 -0.268931
O48   O     O_2   0.631341 0.013256 0.310987 -0.293069
O49   O     O_3   0.558561 0.049382 0.392751 -0.446636
H31   H     H_    0.429201 0.049337 0.383001 0.353392
S8    S     S_3+6 0.354115 0.151807 0.514202 0.071071
O50   O     O_2   0.153211 0.140425 0.513676 -0.295073
O51   O     O_2   0.382669 0.209131 0.509739 -0.298211
O52   O     O_3   0.454001 0.122954 0.468333 -0.463668
H32   H     H_    0.381422 0.133855 0.441051 0.401367
O53   O     O_3   0.344318 0.487210 0.538150 -0.583843
H33   H     H_    0.336402 0.475289 0.570821 0.349788
O54   O     O_3   0.651038 0.539976 0.483826 -0.580358
H34   H     H_    0.658599 0.574242 0.468693 0.360519
O55   O     O_3   0.655925 0.513218 0.038885 -0.583767
H35   H     H_    0.664091 0.525162 0.071534 0.349568
O56   O     O_3   0.348026 0.459238 0.983384 -0.580128
H36   H     H_    0.339698 0.424989 0.968252 0.360529
O57   O     O_3   0.844523 0.018409 0.961797 -0.626939
H37   H     H_    0.834168 0.027636 0.928473 0.347814
O58   O     O_3   0.168328 0.953344 0.019837 -0.588679
H38   H     H_    0.089345 0.958075 0.992286 0.392628
O59   O     O_3   0.156281 0.987021 0.461346 -0.583753
H39   H     H_    0.164709 0.975088 0.428686 0.349731
O60   O     O_3   0.848832 0.040517 0.516407 -0.580237
H40   H     H_    0.841147 0.074770 0.531551 0.360494
O61   O     O_3   0.296780 0.533981 0.451228 -0.591991
H41   H     H_    0.379378 0.503772 0.451865 0.338104
O62   O     O_3   0.698892 0.450191 0.536642 -0.588198
H42   H     H_    0.615948 0.447305 0.509614 0.336754
O63   O     O_3   0.702650 0.466541 0.951756 -0.591193
H43   H     H_    0.620488 0.496843 0.952697 0.337880
O64   O     O_3   0.301974 0.549260 0.036146 -0.587518
H44   H     H_    0.385126 0.551868 0.008986 0.336301
O65   O     O_3   0.805153 0.971820 0.049772 -0.597276
H45   H     H_    0.892250 0.000820 0.045915 0.330554
O66   O     O_3   0.196759 0.046756 0.964856 -0.594894
H46   H     H_    0.120911 0.050788 0.993246 0.321294
O67   O     O_3   0.202643 0.033736 0.548400 -0.591524
H47   H     H_    0.119823 0.003464 0.547584 0.337939
O68   O     O_3   0.801405 0.950579 0.463620 -0.587727
H48   H     H_    0.883979 0.947873 0.490728 0.336545

loop_
_geom_bond_atom_site_label_1
_geom_bond_atom_site_label_2
_ccdc_geom_bond_type
O17   V3    S    
O66   H46   S    
O18   V4    S    
S5    O41   D    
O12   V1    S    
O19   V1    S    
C2    C56   S    
O65   H45   S    
C63   C80   A    
C10   C18   A    
C24   C32   A    
C43   H11   S    
C46   H14   S    
C70   C78   A    
C47   H15   S    
O34   H26   S    
C69   C77   A    
O22   H18   S    
S7    O48   D    
S4    O39   D    
C39   C47   A    
O55   H35   S    
O16   V3    S    
C65   O61   S    
S1    O30   D    
O11   C3    A    
O46   H30   S    
O12   C4    A    
C66   C74   A    
C61   C78   A    
C65   C73   A    
S3    O36   D    
C42   H10   S    
S6    O44   D    
C15   O27   S    
O49   H31   S    
C61   C69   A    
O1    V3    S    
C25   C33   A    
C38   H6    S    
O3    C2    A    
O2    V4    S    
C41   H9    S    
C11   O23   S    
C60   O56   S    
O13   V3    S    
C28   C36   A    
C35   H3    S    
C24   S8    S    
C29   C37   A    
C34   H2    S    
S3    O35   D    
O11   V2    S    
C37   C45   A    
C31   C39   A    
C18   S2    S    
C32   C40   A    
C19   S3    S    
C63   O59   S    
C48   C56   A    
C11   C19   A    
C71   O67   S    
C17   S1    S    
C3    C53   S    
S8    O52   S    
C43   C51   A    
C64   C79   A    
C57   C65   A    
C12   C52   A    
O15   C7    A    
C25   C74   S    
C23   C31   A    
C45   H13   S    
O64   H44   S    
S5    O42   D    
O7    V2    S    
C9    O21   S    
C40   C48   A    
S2    O34   S    
C14   C54   A    
O3    V4    S    
C60   C75   A    
C42   C50   A    
C16   C56   A    
C61   O57   S    
C17   C25   A    
S1    O31   S    
S8    O51   D    
S7    O49   S    
S6    O45   D    
C31   C80   S    
C16   O28   S    
C44   H12   S    
C60   C68   A    
C59   O55   S    
C45   C53   A    
C13   C53   A    
O68   H48   S    
C26   C34   A    
O28   H24   S    
S3    O37   S    
C21   S5    S    
O31   H25   S    
C33   H1    S    
C59   C76   A    
C72   C80   A    
C29   C78   S    
C58   C73   A    
C30   C38   A    
O67   H47   S    
C15   C23   A    
C36   C44   A    
O60   H40   S    
C8    C50   S    
C70   O66   S    
C64   C72   A    
O56   H36   S    
C10   C50   A    
C47   C55   A    
C9    C49   A    
S6    O46   S    
C23   S7    S    
O10   V2    S    
C57   O53   S    
O52   H32   S    
S4    O40   S    
C67   C75   A    
C22   C30   A    
C7    C49   S    
O8    C5    A    
O13   C5    A    
C20   S4    S    
O14   C6    A    
C15   C55   A    
O21   H17   S    
C39   H7    S    
C62   C77   A    
C18   C26   A    
C1    C55   S    
O4    C1    A    
C71   C79   A    
O9    C1    A    
O6    V2    S    
C44   C52   A    
O53   H33   S    
S5    O43   S    
O27   H23   S    
C32   C79   S    
S2    O33   D    
C12   C20   A    
C12   O24   S    
C27   C35   A    
O8    V1    S    
C13   C21   A    
O26   H22   S    
O5    V1    S    
C35   C43   A    
S7    O47   D    
S8    O50   D    
C34   C42   A    
C67   O63   S    
O25   H21   S    
C5    C51   S    
C28   C75   S    
C37   H5    S    
O59   H39   S    
C16   C24   A    
C4    C54   S    
O1    C4    A    
O2    C3    A    
O37   H27   S    
C33   C41   A    
C38   C46   A    
C27   C76   S    
C72   O68   S    
O14   V4    S    
O15   V4    S    
C20   C28   A    
C66   O62   S    
C46   C54   A    
C63   C71   A    
O9    V1    S    
O54   H34   S    
O7    C6    A    
C59   C67   A    
S1    O29   D    
C62   O58   S    
C58   C66   A    
C26   C73   S    
C9    C17   A    
O43   H29   S    
C68   C76   A    
C68   O64   S    
O20   V2    S    
C58   O54   S    
C41   C49   A    
O58   H38   S    
C48   H16   S    
C14   O26   S    
C64   O60   S    
C19   C27   A    
O57   H37   S    
O23   H19   S    
O5    C8    A    
O10   C2    A    
O6    C7    A    
C69   O65   S    
C13   O25   S    
C40   H8    S    
O63   H43   S    
C14   C22   A    
O4    V3    S    
C62   C70   A    
C21   C29   A    
O62   H42   S    
S4    O38   D    
C36   H4    S    
O16   C8    A    
O61   H41   S    
C22   S6    S    
C30   C77   S    
O40   H28   S    
C10   O22   S    
C6    C52   S    
S2    O32   D    
C57   C74   A    
O24   H20   S    
C11   C51   A    
