data_mof_unit_580.cif
_audit_creation_date              2012-12-11T14:38:19-0500
_audit_creation_method            fapswitch 2.2
_symmetry_space_group_name_H-M    P1
_symmetry_Int_Tables_number       1
_space_group_crystal_system       monoclinic
_cell_length_a                    19.61331
_cell_length_b                    11.053143
_cell_length_c                    19.707082
_cell_angle_alpha                 90.0
_cell_angle_beta                  96.812615
_cell_angle_gamma                 90.0
_cell_volume                      4242.10833559

loop_
_atom_site_label
_atom_site_type_symbol
_atom_type_description
_atom_site_fract_x
_atom_site_fract_y
_atom_site_fract_z
_atom_type_partial_charge
C1    C     C_R   0.707994 0.996302 0.366195 0.557754
C2    C     C_3   0.165318 0.518707 0.480083 -0.255569
C3    C     C_3   0.934131 0.975805 0.535956 -0.333889
C4    C     C_3   0.334682 0.018707 0.519917 -0.255568
C5    C     C_3   0.665318 0.018707 0.480083 -0.255569
C6    C     C_3   0.780397 0.327176 0.551620 -0.246057
C7    C     C_3   0.219603 0.327176 0.448380 -0.246057
C8    C     C_3   0.280397 0.827176 0.551620 -0.246057
C9    C     C_3   0.719603 0.827176 0.448380 -0.246057
C10   C     C_3   0.777589 0.464336 0.560901 0.028751
C11   C     C_3   0.222411 0.464336 0.439099 0.028751
C12   C     C_3   0.277589 0.964336 0.560901 0.028751
C13   C     C_R   0.292006 0.996302 0.633805 0.557754
C14   C     C_3   0.722411 0.964336 0.439099 0.028751
C15   C     C_3   0.752541 0.416299 0.430314 0.078746
C16   C     C_3   0.247459 0.416299 0.569686 0.078746
C17   C     C_3   0.252541 0.916300 0.430314 0.078746
C18   C     C_3   0.747459 0.916299 0.569686 0.078746
C19   C     C_3   0.817601 0.496729 0.442012 -0.277027
C20   C     C_3   0.182399 0.496729 0.557988 -0.277027
C21   C     C_3   0.317601 0.996729 0.442012 -0.277027
C22   C     C_3   0.682399 0.996729 0.557988 -0.277027
C23   C     C_3   0.769375 0.302179 0.475769 -0.221382
C24   C     C_R   0.207994 0.496302 0.366195 0.557754
C25   C     C_3   0.230624 0.302179 0.524231 -0.221383
C26   C     C_3   0.269375 0.802179 0.475769 -0.221383
C27   C     C_3   0.730625 0.802179 0.524231 -0.221383
C28   C     C_3   0.554958 0.235849 0.953183 -0.249785
C29   C     C_3   0.571650 0.237239 0.031039 -0.217418
C30   C     C_3   0.054958 0.735852 0.953183 -0.249785
C31   C     C_3   0.071650 0.737243 0.031039 -0.217417
C32   C     C_3   0.428351 0.237247 0.968961 -0.217418
C33   C     C_3   0.508843 0.039415 0.039097 -0.235065
C34   C     C_3   0.928350 0.737243 0.968961 -0.217418
C35   C     C_R   0.792006 0.496302 0.633805 0.557754
C36   C     C_3   0.008845 0.539415 0.039096 -0.235064
C37   C     C_3   0.491152 0.039415 0.960904 -0.235063
C38   C     C_3   0.445043 0.235856 0.046817 -0.249784
C39   C     C_3   0.991154 0.539415 0.960904 -0.235064
C40   C     C_3   0.945042 0.735853 0.046817 -0.249785
C41   C     C_R   0.535992 0.180203 0.338667 0.544483
C42   C     C_R   0.464008 0.180203 0.661333 0.544484
C43   C     C_R   0.035992 0.680203 0.338667 0.544483
C44   C     C_R   0.964008 0.680203 0.661333 0.544484
C45   C     C_3   0.485617 0.171840 0.934009 0.053486
C46   C     C_3   0.692142 0.493821 0.454188 0.022130
C47   C     C_3   0.514382 0.171840 0.065991 0.053487
C48   C     C_3   0.985618 0.671840 0.934009 0.053486
C49   C     C_3   0.014382 0.671840 0.065991 0.053486
C50   C     C_1   0.762854 0.427716 0.904796 -0.016583
C51   C     C_1   0.237146 0.427716 0.095204 -0.016583
C52   C     C_1   0.262854 0.927716 0.904796 -0.016583
C53   C     C_1   0.737146 0.927716 0.095204 -0.016583
C54   C     C_1   0.747907 0.406556 0.034532 -0.053252
C55   C     C_1   0.252093 0.406556 0.965468 -0.053252
C56   C     C_1   0.247907 0.906556 0.034532 -0.053252
C57   C     C_3   0.307858 0.493821 0.545812 0.022130
C58   C     C_1   0.752093 0.906556 0.965468 -0.053252
C59   C     C_1   0.754494 0.416307 0.964115 -0.052018
C60   C     C_1   0.245506 0.416307 0.035885 -0.052018
C61   C     C_1   0.254493 0.916307 0.964115 -0.052019
C62   C     C_1   0.745506 0.916307 0.035885 -0.052018
C63   C     C_1   0.742959 0.392109 0.094414 -0.016598
C64   C     C_1   0.257041 0.392109 0.905585 -0.016598
C65   C     C_1   0.242959 0.892109 0.094414 -0.016598
C66   C     C_1   0.757041 0.892109 0.905586 -0.016598
C67   C     C_R   0.740405 0.367435 0.359689 0.543868
C68   C     C_3   0.192142 0.993821 0.454188 0.022130
C69   C     C_R   0.259595 0.367435 0.640311 0.543867
C70   C     C_R   0.240405 0.867435 0.359689 0.543867
C71   C     C_R   0.759595 0.867435 0.640311 0.543867
C72   C     C_R   0.721801 0.954547 0.162992 0.548118
C73   C     C_R   0.278199 0.954547 0.837008 0.548118
C74   C     C_R   0.221801 0.454547 0.162992 0.548118
C75   C     C_R   0.778199 0.454547 0.837008 0.548118
C76   C     C_R   0.534165 0.178950 0.139928 0.542090
C77   C     C_R   0.465834 0.178950 0.860072 0.542091
C78   C     C_R   0.034165 0.678950 0.139928 0.542091
C79   C     C_3   0.807858 0.993821 0.545812 0.022131
C80   C     C_R   0.965834 0.678950 0.860072 0.542091
C81   C     C_R   0.735739 0.358020 0.163441 0.541724
C82   C     C_R   0.264261 0.358020 0.836558 0.541724
C83   C     C_R   0.235739 0.858020 0.163442 0.541724
C84   C     C_R   0.764261 0.858020 0.836558 0.541725
C85   C     C_1   0.485604 0.172394 0.594326 -0.020397
C86   C     C_1   0.514396 0.172394 0.405674 -0.020397
C87   C     C_1   0.985604 0.672394 0.594326 -0.020397
C88   C     C_1   0.014396 0.672394 0.405674 -0.020397
C89   C     C_1   0.504161 0.168825 0.464842 -0.074571
C90   C     C_3   0.834682 0.518707 0.519917 -0.255568
C91   C     C_1   0.495839 0.168825 0.535158 -0.074571
C92   C     C_1   0.004161 0.668825 0.464842 -0.074571
C93   C     C_1   0.995839 0.668825 0.535158 -0.074571
C94   C     C_3   0.702657 0.498789 0.532465 -0.186535
C95   C     C_3   0.297343 0.498789 0.467535 -0.186535
C96   C     C_3   0.202657 0.998789 0.532465 -0.186535
C97   C     C_3   0.797343 0.998789 0.467535 -0.186536
C98   C     C_3   0.565868 0.475805 0.464044 -0.333888
C99   C     C_3   0.434132 0.475805 0.535956 -0.333888
C100  C     C_3   0.065868 0.975805 0.464044 -0.333889
Cr1   Cr    Cr6+3 0.765780 0.160710 0.267420 1.009470
Cr2   Cr    Cr6+3 0.383970 0.323720 0.751490 1.005918
Cr3   Cr    Cr6+3 0.116030 0.823720 0.248510 1.005918
Cr4   Cr    Cr6+3 0.883970 0.823720 0.751490 1.005918
Cr5   Cr    Cr6+3 0.234220 0.160710 0.732580 1.009470
Cr6   Cr    Cr6+3 0.265780 0.660710 0.267420 1.009470
Cr7   Cr    Cr6+3 0.734220 0.660710 0.732580 1.009470
Cr8   Cr    Cr6+3 0.612200 0.009560 0.248850 1.007412
Cr9   Cr    Cr6+3 0.387800 0.009560 0.751150 1.007412
Cr10  Cr    Cr6+3 0.112200 0.509560 0.248850 1.007412
Cr11  Cr    Cr6+3 0.887800 0.509560 0.751150 1.007412
Cr12  Cr    Cr6+3 0.616030 0.323720 0.248510 1.005918
H1    H     H_    0.686799 0.586128 0.550586 0.110787
H2    H     H_    0.115938 0.472045 0.462961 0.136790
H3    H     H_    0.384062 0.972045 0.537039 0.136790
H4    H     H_    0.615938 0.972045 0.462961 0.136790
H5    H     H_    0.862040 0.452129 0.422001 0.136555
H6    H     H_    0.137960 0.452129 0.577999 0.136555
H7    H     H_    0.362040 0.952129 0.422001 0.136555
H8    H     H_    0.637960 0.952129 0.577999 0.136555
H9    H     H_    0.553010 0.330510 0.933725 0.140936
H10   H     H_    0.622094 0.192220 0.045565 0.119745
H11   H     H_    0.053008 0.830513 0.933725 0.140937
H12   H     H_    0.313201 0.586128 0.449414 0.110787
H13   H     H_    0.122094 0.692225 0.045565 0.119745
H14   H     H_    0.596271 0.187875 0.929762 0.117008
H15   H     H_    0.577176 0.333106 0.048174 0.149302
H16   H     H_    0.096272 0.687881 0.929762 0.117008
H17   H     H_    0.077174 0.833109 0.048174 0.149302
H18   H     H_    0.422828 0.333113 0.951826 0.149303
H19   H     H_    0.558388 0.990953 0.052467 0.148999
H20   H     H_    0.922826 0.833110 0.951826 0.149302
H21   H     H_    0.058392 0.490955 0.052466 0.148999
H22   H     H_    0.446994 0.330517 0.066275 0.140938
H23   H     H_    0.186799 0.086128 0.550586 0.110787
H24   H     H_    0.531412 0.989618 0.936887 0.127390
H25   H     H_    0.946992 0.830514 0.066275 0.140937
H26   H     H_    0.031415 0.489620 0.936887 0.127389
H27   H     H_    0.441604 0.990958 0.947534 0.148998
H28   H     H_    0.403728 0.187887 0.070238 0.117007
H29   H     H_    0.941607 0.490956 0.947534 0.148999
H30   H     H_    0.903728 0.687882 0.070238 0.117008
H31   H     H_    0.468580 0.989623 0.063114 0.127388
H32   H     H_    0.377905 0.192232 0.954435 0.119745
H33   H     H_    0.968584 0.489620 0.063113 0.127389
H34   H     H_    0.813201 0.086128 0.449414 0.110787
H35   H     H_    0.877906 0.692227 0.954435 0.119745
H36   H     H_    0.667892 0.434596 0.554682 0.142921
H37   H     H_    0.332108 0.434596 0.445318 0.142921
H38   H     H_    0.167892 0.934596 0.554682 0.142921
H39   H     H_    0.832108 0.934596 0.445318 0.142921
H40   H     H_    0.698358 0.587676 0.436276 0.101972
H41   H     H_    0.301642 0.587676 0.563724 0.101972
H42   H     H_    0.198358 0.087676 0.436276 0.101973
H43   H     H_    0.801642 0.087676 0.563724 0.101973
H44   H     H_    0.347041 0.114195 0.530866 0.111447
H45   H     H_    0.819596 0.267580 0.463642 0.127411
H46   H     H_    0.652959 0.114195 0.469134 0.111447
H47   H     H_    0.847041 0.614195 0.530866 0.111447
H48   H     H_    0.152959 0.614195 0.469134 0.111447
H49   H     H_    0.309600 0.084145 0.414413 0.102788
H50   H     H_    0.690400 0.084145 0.585587 0.102788
H51   H     H_    0.809600 0.584145 0.414413 0.102788
H52   H     H_    0.190400 0.584145 0.585587 0.102788
H53   H     H_    0.831255 0.289850 0.573002 0.136685
H54   H     H_    0.168745 0.289850 0.426997 0.136685
H55   H     H_    0.331255 0.789850 0.573002 0.136685
H56   H     H_    0.180404 0.267580 0.536358 0.127411
H57   H     H_    0.668745 0.789850 0.426997 0.136685
H58   H     H_    0.740900 0.280289 0.578158 0.117077
H59   H     H_    0.259100 0.280289 0.421842 0.117077
H60   H     H_    0.240900 0.780289 0.578158 0.117077
H61   H     H_    0.759100 0.780289 0.421842 0.117077
H62   H     H_    0.729872 0.233900 0.464155 0.124954
H63   H     H_    0.270128 0.233900 0.535845 0.124954
H64   H     H_    0.229872 0.733900 0.464155 0.124954
H65   H     H_    0.770128 0.733900 0.535845 0.124954
H66   H     H_    0.609916 0.495832 0.378171 0.276883
H67   H     H_    0.319596 0.767580 0.463642 0.127411
H68   H     H_    0.517190 0.468097 0.429196 0.144249
H69   H     H_    0.568090 0.567505 0.487363 0.121095
H70   H     H_    0.565295 0.404240 0.503279 0.159787
H71   H     H_    0.390084 0.495832 0.621829 0.276883
H72   H     H_    0.482810 0.468097 0.570804 0.144249
H73   H     H_    0.431910 0.567505 0.512637 0.121095
H74   H     H_    0.434705 0.404241 0.496720 0.159787
H75   H     H_    0.109916 0.995832 0.378171 0.276883
H76   H     H_    0.017190 0.968098 0.429196 0.144249
H77   H     H_    0.068090 0.067506 0.487362 0.121096
H78   H     H_    0.680404 0.767580 0.536358 0.127411
H79   H     H_    0.065295 0.904241 0.503280 0.159788
H80   H     H_    0.890083 0.995832 0.621829 0.276883
H81   H     H_    0.982810 0.968098 0.570804 0.144249
H82   H     H_    0.931910 0.067506 0.512637 0.121096
H83   H     H_    0.934705 0.904241 0.496720 0.159788
H84   H     H_    0.884062 0.472045 0.537039 0.136790
N1    N     N_2   0.622938 0.456617 0.425469 -0.473428
N2    N     N_2   0.377062 0.456617 0.574530 -0.473428
N3    N     N_2   0.122938 0.956617 0.425469 -0.473428
N4    N     N_2   0.877062 0.956617 0.574531 -0.473428
O1    O     O_R   0.783100 0.287550 0.345460 -0.544853
O2    O     O_R   0.454350 0.284910 0.836260 -0.525880
O3    O     O_R   0.045650 0.784910 0.163740 -0.525880
O4    O     O_R   0.954350 0.784910 0.836260 -0.525880
O5    O     O_R   0.677950 0.374280 0.185410 -0.502822
O6    O     O_R   0.322050 0.374280 0.814590 -0.502822
O7    O     O_R   0.177950 0.874280 0.185410 -0.502822
O8    O     O_R   0.822050 0.874280 0.814590 -0.502822
O9    O     O_3   0.664670 0.164660 0.254930 -0.268728
O10   O     O_3   0.335330 0.164660 0.745070 -0.268728
O11   O     O_3   0.164670 0.664660 0.254930 -0.268728
O12   O     O_R   0.216900 0.287550 0.654540 -0.544853
O13   O     O_3   0.835330 0.664660 0.745070 -0.268728
O14   O     O_R   0.760020 0.037400 0.337700 -0.514019
O15   O     O_R   0.239980 0.037400 0.662300 -0.514019
O16   O     O_R   0.260020 0.537400 0.337700 -0.514019
O17   O     O_R   0.739980 0.537400 0.662300 -0.514019
O18   O     O_R   0.666600 0.921990 0.332020 -0.523657
O19   O     O_R   0.333400 0.921990 0.667980 -0.523657
O20   O     O_R   0.166600 0.421990 0.332020 -0.523657
O21   O     O_R   0.833400 0.421990 0.667980 -0.523657
O22   O     O_R   0.557260 0.082670 0.312540 -0.514646
O23   O     O_R   0.283100 0.787550 0.345460 -0.544853
O24   O     O_R   0.442740 0.082670 0.687460 -0.514646
O25   O     O_R   0.057260 0.582670 0.312540 -0.514646
O26   O     O_R   0.942740 0.582670 0.687460 -0.514647
O27   O     O_R   0.548410 0.285740 0.316480 -0.501483
O28   O     O_R   0.451590 0.285740 0.683520 -0.501482
O29   O     O_R   0.048410 0.785740 0.316480 -0.501482
O30   O     O_R   0.951590 0.785740 0.683520 -0.501482
O31   O     O_R   0.680500 0.375040 0.327000 -0.494888
O32   O     O_R   0.319500 0.375040 0.673000 -0.494888
O33   O     O_R   0.180500 0.875040 0.327000 -0.494888
O34   O     O_R   0.716900 0.787550 0.654540 -0.544853
O35   O     O_R   0.819500 0.875040 0.673000 -0.494888
O36   O     O_R   0.780350 0.286720 0.192720 -0.508079
O37   O     O_R   0.219650 0.286720 0.807280 -0.508079
O38   O     O_R   0.280350 0.786720 0.192720 -0.508079
O39   O     O_R   0.719650 0.786720 0.807280 -0.508079
O40   O     O_R   0.757470 0.036630 0.196110 -0.490282
O41   O     O_R   0.242530 0.036630 0.803890 -0.490283
O42   O     O_R   0.257470 0.536630 0.196110 -0.490282
O43   O     O_R   0.742530 0.536630 0.803890 -0.490283
O44   O     O_R   0.663840 0.921160 0.179280 -0.511533
O45   O     O_R   0.554710 0.081900 0.170950 -0.508289
O46   O     O_R   0.336160 0.921160 0.820720 -0.511534
O47   O     O_R   0.163840 0.421160 0.179280 -0.511534
O48   O     O_R   0.836160 0.421160 0.820720 -0.511534
O49   O     O_R   0.445290 0.081900 0.829050 -0.508289
O50   O     O_R   0.054710 0.581900 0.170950 -0.508289
O51   O     O_R   0.945290 0.581900 0.829050 -0.508289
O52   O     O_R   0.545650 0.284910 0.163740 -0.525880

loop_
_geom_bond_atom_site_label_1
_geom_bond_atom_site_label_2
_ccdc_geom_bond_type
C95   H12   S    
C58   C62   S    
C46   H40   S    
C41   O27   A    
Cr3   O29   S    
C43   O29   A    
Cr5   O15   S    
C7    H59   S    
C57   N2    S    
C17   C21   S    
C8    C26   S    
C32   C45   S    
C72   O44   A    
C4    H3    S    
C9    H57   S    
Cr10  O11   S    
C51   C74   S    
C82   O6    A    
C36   H21   S    
C32   H18   S    
Cr8   O9    S    
C85   C91   T    
C23   H62   S    
C26   H67   S    
C33   H31   S    
C22   H8    S    
C41   C86   S    
Cr9   O49   S    
C77   O49   A    
C3    H81   S    
Cr5   O12   S    
C63   C81   S    
C68   N3    S    
Cr9   O19   S    
C17   C26   S    
Cr4   O4    S    
C30   C48   S    
C28   C29   S    
C100  H76   S    
C31   C49   S    
C47   C76   S    
C68   H42   S    
C52   C61   T    
C35   O21   A    
Cr6   O38   S    
C30   C31   S    
C22   H50   S    
C65   C83   S    
C100  H77   S    
C54   C63   T    
C10   C94   S    
Cr11  O51   S    
C40   C49   S    
C20   H52   S    
C82   O37   A    
C87   C93   T    
C11   C24   S    
C18   C71   S    
C49   C78   S    
Cr2   O10   S    
C44   O26   A    
Cr11  O21   S    
C71   O34   A    
C90   H47   S    
C44   O30   A    
C83   O7    A    
Cr7   O17   S    
Cr4   O30   S    
C58   C66   T    
Cr4   O35   S    
C5    C22   S    
C39   H29   S    
Cr11  O48   S    
C80   O51   A    
C46   C94   S    
C40   H30   S    
H80   N4    S    
C24   O16   A    
C72   O40   A    
C9    H61   S    
C10   C35   S    
C95   H37   S    
C27   H78   S    
C71   O35   A    
C66   C84   S    
C89   C91   S    
C44   C87   S    
Cr10  O20   S    
C6    C23   S    
C41   O22   A    
C8    C12   S    
Cr8   O18   S    
C33   H19   S    
C15   C23   S    
C6    H53   S    
C67   O31   A    
C17   C70   S    
Cr3   O33   S    
Cr12  O27   S    
C55   C60   S    
C77   O2    A    
Cr1   O40   S    
Cr2   O32   S    
Cr7   O43   S    
Cr6   O42   S    
C42   O24   A    
C2    C11   S    
C35   O17   A    
Cr5   O41   S    
C94   H1    S    
C28   H14   S    
Cr12  O52   S    
C96   H23   S    
C25   H63   S    
C54   C59   S    
C25   H56   S    
C94   H36   S    
C30   H16   S    
C28   C45   S    
C81   O36   A    
C3    H82   S    
C21   H49   S    
C16   C69   S    
C2    C20   S    
H71   N2    S    
C88   C92   T    
C78   O3    A    
C52   C73   S    
C5    C14   S    
C69   O32   A    
Cr3   O11   S    
C69   O12   A    
C28   H9    S    
C18   C79   S    
C46   N1    S    
C73   O46   A    
Cr1   O9    S    
C57   H41   S    
Cr8   O45   S    
Cr10  O25   S    
C3    H83   S    
Cr5   O10   S    
H75   N3    S    
C70   O33   A    
C74   O42   A    
C98   H70   S    
C15   C19   S    
C9    C14   S    
C100  N3    S    
C6    C10   S    
C15   C67   S    
C67   O1    A    
C8    H55   S    
C34   H35   S    
Cr8   O22   S    
C53   C62   T    
C84   O8    A    
C7    C11   S    
Cr6   O23   S    
Cr7   O13   S    
C26   H64   S    
Cr1   O14   S    
C16   C20   S    
C96   H38   S    
C29   H10   S    
Cr8   O44   S    
Cr1   O36   S    
Cr2   O28   S    
C3    N4    S    
C97   H39   S    
C37   H24   S    
C73   O41   A    
C43   C88   S    
C42   C85   S    
C19   H51   S    
C13   O19   A    
C4    C21   S    
Cr2   O6    S    
C64   C82   S    
C38   C47   S    
C1    O18   A    
Cr9   O24   S    
C40   H25   S    
C24   O20   A    
C2    H48   S    
C4    H44   S    
C7    H54   S    
C29   C47   S    
Cr9   O46   S    
C5    H46   S    
C32   C38   S    
C29   H15   S    
C5    H4    S    
C57   C95   S    
C33   C47   S    
C34   C40   S    
C100  H79   S    
C4    C12   S    
C50   C59   T    
C56   C65   T    
C98   H68   S    
Cr9   O10   S    
C76   O52   A    
Cr12  O5    S    
C99   H73   S    
C19   H5    S    
Cr6   O16   S    
C9    C27   S    
C14   C97   S    
C81   O5    A    
C6    H58   S    
C11   C95   S    
C16   C25   S    
C20   H6    S    
C17   C68   S    
Cr5   O37   S    
C79   N4    S    
C98   N1    S    
C18   C22   S    
Cr11  O26   S    
Cr12  O31   S    
H66   N1    S    
C36   C39   S    
Cr10  O50   S    
C18   C27   S    
Cr11  O13   S    
Cr3   O7    S    
C86   C89   T    
Cr3   O3    S    
Cr4   O13   S    
C27   H65   S    
C79   C97   S    
C51   C60   T    
C55   C64   T    
C42   O28   A    
C38   H28   S    
C79   H43   S    
C70   O23   A    
C68   C96   S    
C34   C48   S    
C7    C25   S    
C39   H26   S    
C32   H32   S    
Cr12  O9    S    
C48   C80   S    
C98   H69   S    
Cr2   O2    S    
C21   H7    S    
C19   C90   S    
Cr1   O1    S    
C50   C75   S    
C74   O47   A    
C2    H2    S    
C13   O15   A    
C80   O4    A    
Cr7   O39   S    
C78   O50   A    
Cr6   O11   S    
C23   H45   S    
C99   N2    S    
C92   C93   S    
C76   O45   A    
C16   C57   S    
C38   H22   S    
C33   C37   S    
C83   O38   A    
C75   O43   A    
C36   C49   S    
C34   H20   S    
C84   O39   A    
C97   H34   S    
C8    H60   S    
C36   H33   S    
C99   H72   S    
C90   H84   S    
C30   H11   S    
C10   C90   S    
Cr4   O8    S    
C31   H17   S    
Cr7   O34   S    
C37   H27   S    
C1    O14   A    
C31   H13   S    
C56   C61   S    
C12   C96   S    
C45   C77   S    
C1    C14   S    
C15   C46   S    
C12   C13   S    
C53   C72   S    
C37   C45   S    
C99   H74   S    
C75   O48   A    
C43   O25   A    
C39   C48   S    
Cr10  O47   S    
