data_mof_unit_3020.cif
_audit_creation_date              2012-12-11T14:56:49-0500
_audit_creation_method            fapswitch 2.2
_symmetry_space_group_name_H-M    P1
_symmetry_Int_Tables_number       1
_space_group_crystal_system       triclinic
_cell_length_a                    10.514906
_cell_length_b                    10.621328
_cell_length_c                    17.037822
_cell_angle_alpha                 80.357324
_cell_angle_beta                  89.781353
_cell_angle_gamma                 119.037777
_cell_volume                      1632.11589616

loop_
_atom_site_label
_atom_site_type_symbol
_atom_type_description
_atom_site_fract_x
_atom_site_fract_y
_atom_site_fract_z
_atom_type_partial_charge
Br1   Br    Br    0.161877 0.535979 0.865374 -0.448262
Br2   Br    Br    0.424217 0.508011 0.716410 -0.468763
C1    C     C_R   0.279131 0.888911 0.132850 0.529813
C2    C     C_1   0.685119 0.402666 0.709945 0.000550
C3    C     C_R   0.611496 0.706964 0.807165 -0.091094
C4    C     C_R   0.637986 0.282393 0.085815 0.526294
C5    C     C_R   0.584926 0.694887 0.729316 0.148150
C6    C     C_R   0.667589 0.818682 0.667705 0.034285
C7    C     C_R   0.767821 0.953783 0.687005 -0.162322
C8    C     C_R   0.779628 0.967963 0.766323 -0.150368
C9    C     C_R   0.695237 0.845204 0.826324 -0.015338
C10   C     C_R   0.101039 0.901753 0.786943 -0.157697
C11   C     C_R   0.093732 0.902885 0.706774 -0.131244
C12   C     C_R   0.826561 0.465522 0.251185 -0.133798
C13   C     C_R   0.116232 0.803215 0.672481 -0.008987
C14   C     C_R   0.133327 0.693638 0.720998 -0.100363
C15   C     C_R   0.143785 0.693534 0.802273 0.155356
C16   C     C_R   0.601219 0.882000 0.131006 0.535052
C17   C     C_R   0.140096 0.807168 0.833744 0.023559
C18   C     C_R   0.683236 0.813401 0.358650 0.545702
C19   C     C_R   0.727285 0.460159 0.383069 0.562344
C20   C     C_R   0.108733 0.812542 0.360025 0.550313
C21   C     C_R   0.677789 0.798077 0.586818 0.549407
C22   C     C_R   0.717540 0.446782 0.625955 0.566399
C23   C     C_R   0.806148 0.429213 0.176151 -0.113362
C24   C     C_R   0.090495 0.798793 0.589633 0.550604
C25   C     C_R   0.212955 0.855940 0.903625 0.574206
C26   C     C_R   0.640302 0.291004 0.861962 0.555900
C27   C     C_R   0.649252 0.865073 0.900885 0.557526
C28   C     C_R   0.547253 0.348058 0.197809 -0.128962
C29   C     C_R   0.568140 0.386420 0.272568 -0.117091
C30   C     C_R   0.706483 0.437122 0.301271 0.020596
C31   C     C_R   0.664797 0.361731 0.151257 0.025240
C32   C     C_1   0.634848 0.871812 0.211297 -0.034350
C33   C     C_1   0.661528 0.856015 0.279073 -0.030307
C34   C     C_1   0.228042 0.854087 0.215596 -0.049080
C35   C     C_1   0.179392 0.834427 0.283245 -0.046014
C36   C     C_1   0.662131 0.358451 0.780542 -0.002307
Cr1   Cr    Cr6+3 0.402240 0.783890 0.019450 1.070621
Cr2   Cr    Cr6+3 0.382360 0.097900 0.991800 1.054612
Cr3   Cr    Cr6+3 0.715380 0.118170 0.988700 1.066796
Cr4   Cr    Cr6+3 0.936650 0.882420 0.465510 1.027519
Cr5   Cr    Cr6+3 0.605770 0.565620 0.493360 1.067638
Cr6   Cr    Cr6+3 0.921340 0.550490 0.496380 1.030704
H1    H     H_    0.437731 0.297902 0.179280 0.141537
H2    H     H_    0.089461 0.984832 0.810405 0.162105
H3    H     H_    0.069908 0.982727 0.671889 0.163046
H4    H     H_    0.138622 0.608846 0.695926 0.181263
H5    H     H_    0.474324 0.367984 0.309435 0.147884
H6    H     H_    0.934889 0.510082 0.271402 0.133527
H7    H     H_    0.899377 0.444314 0.140119 0.154332
H8    H     H_    0.547785 0.611082 0.853658 0.179760
H9    H     H_    0.834681 0.048679 0.640688 0.147552
H10   H     H_    0.846080 0.075888 0.780261 0.164051
O1    O     O_R   0.521780 0.757110 0.108900 -0.504527
O2    O     O_R   0.805020 0.410040 0.421340 -0.500086
O3    O     O_R   0.049240 0.685450 0.403290 -0.514818
O4    O     O_R   0.275160 0.783810 0.101120 -0.504739
O5    O     O_R   0.077520 0.903010 0.551800 -0.513454
O6    O     O_R   0.802980 0.872780 0.546830 -0.517600
O7    O     O_R   0.578090 0.681300 0.569920 -0.466962
O8    O     O_R   0.608530 0.436370 0.586530 -0.448832
O9    O     O_R   0.798770 0.401880 0.597100 -0.505033
O10   O     O_R   0.043450 0.677890 0.566230 -0.516665
O11   O     O_3   0.821250 0.666180 0.485090 -0.307840
O12   O     O_R   0.513330 0.228330 0.898660 -0.478136
O13   O     O_R   0.237900 0.972600 0.090980 -0.493831
O14   O     O_R   0.511190 0.220540 0.061620 -0.522762
O15   O     O_R   0.736920 0.257720 0.063840 -0.514617
O16   O     O_R   0.710450 0.984050 0.081720 -0.483359
O17   O     O_R   0.524090 0.765520 0.933110 -0.486010
O18   O     O_R   0.277300 0.791600 0.938160 -0.447441
O19   O     O_R   0.240210 0.981010 0.915190 -0.510414
O20   O     O_R   0.739230 0.266130 0.888050 -0.486219
O21   O     O_R   0.712580 0.991850 0.918770 -0.491600
O22   O     O_3   0.499990 0.999980 0.999980 -0.301285
O23   O     O_R   0.083770 0.911170 0.376030 -0.495543
O24   O     O_R   0.808770 0.880340 0.383890 -0.489429
O25   O     O_R   0.584340 0.689460 0.394160 -0.517394
O26   O     O_R   0.614320 0.443940 0.423590 -0.495939

loop_
_geom_bond_atom_site_label_1
_geom_bond_atom_site_label_2
_ccdc_geom_bond_type
C16   O16   A    
C4    O15   A    
C28   H1    S    
Br2   C5    S    
C26   O20   A    
C14   H4    S    
C20   O3    A    
C5    C6    A    
Cr6   O10   S    
C34   C35   T    
C3    C9    A    
C28   C29   A    
C2    C22   S    
Cr5   O25   S    
C13   C14   A    
C6    C21   S    
Cr2   O19   S    
C10   C17   A    
C32   C33   T    
C24   O10   A    
Cr3   O20   S    
C18   C33   S    
C11   H3    S    
Cr1   O1    S    
C14   C15   A    
Cr2   O13   S    
Cr4   O11   S    
Cr1   O18   S    
C3    H8    S    
C17   C25   S    
C7    C8    A    
C18   O25   A    
C4    O14   A    
Cr2   O12   S    
Cr6   O11   S    
C29   H5    S    
Cr6   O9    S    
C21   O6    A    
C19   C30   S    
C10   H2    S    
Cr4   O6    S    
C3    C5    A    
C6    C7    A    
C13   C24   S    
Cr5   O26   S    
C20   C35   S    
Cr2   O22   S    
C26   O12   A    
C23   H7    S    
Cr3   O21   S    
Cr6   O2    S    
C29   C30   A    
C26   C36   S    
Cr6   O3    S    
Cr5   O11   S    
Cr1   O22   S    
C16   C32   S    
C16   O1    A    
C2    C36   T    
Cr4   O24   S    
C22   O9    A    
C11   C13   A    
C7    H9    S    
Cr5   O7    S    
Cr3   O15   S    
C24   O5    A    
C22   O8    A    
C28   C31   A    
C1    O13   A    
C20   O23   A    
C12   C30   A    
Cr4   O5    S    
C19   O2    A    
C27   O21   A    
Br1   C15   S    
C4    C31   S    
C18   O24   A    
Cr3   O22   S    
Cr1   O4    S    
C12   H6    S    
C1    C34   S    
C19   O26   A    
C15   C17   A    
C12   C23   A    
C8    H10   S    
C8    C9    A    
C1    O4    A    
C21   O7    A    
C10   C11   A    
C9    C27   S    
Cr4   O23   S    
Cr2   O14   S    
Cr1   O17   S    
C25   O19   A    
C25   O18   A    
Cr5   O8    S    
C23   C31   A    
Cr3   O16   S    
C27   O17   A    
