data_mof_unit_3852.cif
_audit_creation_date              2012-12-11T15:14:41-0500
_audit_creation_method            fapswitch 2.2
_symmetry_space_group_name_H-M    P1
_symmetry_Int_Tables_number       1
_space_group_crystal_system       triclinic
_cell_length_a                    22.288051
_cell_length_b                    7.230655
_cell_length_c                    19.301627
_cell_angle_alpha                 89.996438
_cell_angle_beta                  98.992303
_cell_angle_gamma                 89.998431
_cell_volume                      3072.36503704

loop_
_atom_site_label
_atom_site_type_symbol
_atom_type_description
_atom_site_fract_x
_atom_site_fract_y
_atom_site_fract_z
_atom_type_partial_charge
O1    O     O_R   0.448470 0.506130 0.415700 -0.530734
O2    O     O_R   0.551530 0.006130 0.584300 -0.530658
O3    O     O_R   0.436320 0.174490 0.555800 -0.534716
O4    O     O_R   0.563680 0.674490 0.444200 -0.534742
C1    C     C_R   0.421638 0.344237 0.575729 0.753377
C2    C     C_R   0.578366 0.844241 0.424276 0.753266
O5    O     O_R   0.441350 0.176340 0.414480 -0.539259
O6    O     O_R   0.558650 0.676340 0.585520 -0.539285
O7    O     O_R   0.556600 0.007100 0.441970 -0.522364
O8    O     O_R   0.443400 0.507100 0.558030 -0.522374
C3    C     C_R   0.426892 0.344860 0.389369 0.853960
C4    C     C_R   0.573111 0.844846 0.610630 0.853883
O9    O     O_3   0.537810 0.339550 0.509190 -0.382278
O10   O     O_3   0.462190 0.839550 0.490810 -0.382302
V1    V     V_3+5 0.492990 0.064280 0.498300 1.541243
V2    V     V_3+5 0.507010 0.564280 0.501700 1.541195
C5    C     C_R   0.869943 0.976771 0.694176 -0.130158
C6    C     C_R   0.130022 0.476063 0.305842 -0.130146
H1    H     H_    0.789800 0.975272 0.580078 0.118644
H2    H     H_    0.210145 0.474185 0.419957 0.118635
H3    H     H_    0.888144 0.002687 0.646152 0.140263
H4    H     H_    0.111803 0.501649 0.353878 0.140262
C7    C     C_R   0.886994 0.942434 0.820519 -0.131850
C8    C     C_R   0.113005 0.442351 0.179478 -0.131825
C9    C     C_R   0.591542 0.818460 0.739157 0.325528
C10   C     C_R   0.408488 0.318956 0.260827 0.325482
C11   C     C_R   0.629454 0.817666 0.804125 -0.192064
C12   C     C_R   0.370585 0.318350 0.195853 -0.192048
C13   C     C_R   0.691495 0.848050 0.809021 -0.182758
C14   C     C_R   0.308534 0.348544 0.190961 -0.182751
C15   C     C_R   0.718776 0.881512 0.748911 0.041307
C16   C     C_R   0.281231 0.381603 0.251084 0.041303
C17   C     C_R   0.680342 0.884701 0.681616 -0.032590
C18   C     C_R   0.319651 0.384556 0.318388 -0.032591
C19   C     C_R   0.783098 0.911576 0.753933 0.087243
C20   C     C_R   0.216901 0.411496 0.246065 0.087245
C21   C     C_R   0.807526 0.945510 0.691789 0.015247
C22   C     C_R   0.192449 0.445000 0.308224 0.015232
C23   C     C_R   0.769924 0.948915 0.626957 -0.243918
C24   C     C_R   0.230038 0.448160 0.373066 -0.243877
C25   C     C_R   0.707172 0.919227 0.620769 0.326640
C26   C     C_R   0.292799 0.418641 0.379249 0.326678
C27   C     C_R   0.824361 0.909967 0.818362 -0.242965
C28   C     C_R   0.175649 0.410111 0.181627 -0.242958
C29   C     C_R   0.909911 0.975955 0.757370 0.352429
C30   C     C_R   0.090064 0.475443 0.242640 0.352413
C31   C     C_R   0.616227 0.851881 0.677626 -0.123706
C32   C     C_R   0.383779 0.351958 0.322372 -0.123701
H5    H     H_    0.809488 0.886007 0.868071 0.109479
H6    H     H_    0.190538 0.386468 0.131908 0.109454
C33   C     C_3   0.777146 0.831021 0.312631 -0.228165
C34   C     C_3   0.222861 0.331021 0.687379 -0.228165
C35   C     C_3   0.794525 0.014514 0.278220 -0.179228
C36   C     C_3   0.205479 0.514518 0.721780 -0.179237
C37   C     C_1   0.875193 0.940357 0.120933 -0.177990
C38   C     C_1   0.124808 0.440365 0.879068 -0.177991
C39   C     C_1   0.624308 0.853754 0.378688 -0.138562
C40   C     C_1   0.375698 0.353744 0.621320 -0.138598
C41   C     C_3   0.774791 0.729324 0.241018 -0.172639
C42   C     C_3   0.225216 0.229325 0.758997 -0.172649
C43   C     C_3   0.791088 0.913009 0.207038 0.060888
C44   C     C_3   0.208916 0.413013 0.792967 0.060889
C45   C     C_3   0.707175 0.782603 0.222628 0.362911
C46   C     C_3   0.292831 0.282595 0.777386 0.362900
C47   C     C_3   0.708982 0.880534 0.293282 0.116134
C48   C     C_3   0.291024 0.380524 0.706726 0.116140
C49   C     C_3   0.722949 0.963223 0.186875 -0.266751
C50   C     C_3   0.277055 0.463217 0.813129 -0.266728
C51   C     C_3   0.726338 0.059387 0.258753 0.352793
C52   C     C_3   0.273666 0.559381 0.741246 0.352805
C53   C     C_1   0.837168 0.929214 0.159568 -0.007750
C54   C     C_1   0.162835 0.429223 0.840435 -0.007755
C55   C     C_1   0.662524 0.864722 0.340313 0.057025
C56   C     C_1   0.337482 0.364710 0.659696 0.057012
H7    H     H_    0.794372 0.591352 0.232838 0.122209
H8    H     H_    0.205635 0.091358 0.767185 0.122196
O11   O     O_R   0.056650 0.288730 0.942060 -0.533178
O12   O     O_R   0.943350 0.788730 0.057940 -0.533182
O13   O     O_R   0.058660 0.616870 0.085540 -0.534024
O14   O     O_R   0.941340 0.116870 0.914460 -0.534029
C57   C     C_R   0.072602 0.448731 0.111000 0.672339
C58   C     C_R   0.927398 0.948746 0.888998 0.672338
O15   O     O_R   0.063700 0.618520 0.944220 -0.536073
O16   O     O_R   0.936300 0.118520 0.055780 -0.536068
O17   O     O_R   0.948460 0.787610 0.915680 -0.531737
O18   O     O_R   0.051540 0.287610 0.084320 -0.531748
C59   C     C_R   0.078882 0.450034 0.924694 0.718118
C60   C     C_R   0.921118 0.950031 0.075306 0.718114
O19   O     O_3   0.962230 0.453430 0.990860 -0.374612
O20   O     O_3   0.037770 0.953430 0.009140 -0.374612
V3    V     V_3+5 0.007010 0.728750 0.001700 1.435135
V4    V     V_3+5 0.992990 0.228750 0.998300 1.435155
O21   O     O_3   0.970585 0.008614 0.754329 -0.644021
H9    H     H_    0.995026 0.996480 0.801466 0.280666
O22   O     O_3   0.029377 0.507856 0.245687 -0.644024
H10   H     H_    0.004949 0.495924 0.198536 0.280655
H11   H     H_    0.799276 0.776749 0.364133 0.145609
H12   H     H_    0.200732 0.276753 0.635879 0.145592
O23   O     O_3   0.700709 0.231691 0.269052 -0.618910
H13   H     H_    0.720297 0.319369 0.240074 0.299641
O24   O     O_3   0.299294 0.731680 0.730938 -0.618906
H14   H     H_    0.279696 0.819366 0.759902 0.299635
H15   H     H_    0.700161 0.017618 0.135680 0.134426
H16   H     H_    0.299842 0.517610 0.864321 0.134426
O25   O     O_3   0.661124 0.660582 0.194433 -0.624610
H17   H     H_    0.672759 0.616587 0.149742 0.284684
O26   O     O_3   0.338882 0.160567 0.805588 -0.624610
H18   H     H_    0.327242 0.116548 0.850274 0.284693
O27   O     O_3   0.529815 0.786902 0.734352 -0.644411
H19   H     H_    0.519756 0.765717 0.781993 0.301989
O28   O     O_3   0.470226 0.287622 0.265627 -0.644413
H20   H     H_    0.480302 0.266740 0.217977 0.302018
H21   H     H_    0.716857 0.844232 0.861232 0.124612
H22   H     H_    0.283182 0.344904 0.138743 0.124611
H23   H     H_    0.610790 0.792472 0.851821 0.122077
H24   H     H_    0.389266 0.293469 0.148147 0.122081
O29   O     O_3   0.671873 0.924420 0.555297 -0.667041
H25   H     H_    0.697634 0.951485 0.519033 0.276226
O30   O     O_3   0.328083 0.423554 0.444732 -0.667090
H26   H     H_    0.302301 0.450242 0.481010 0.276171
H27   H     H_    0.830276 0.113685 0.300940 0.136408
H28   H     H_    0.169728 0.613694 0.699054 0.136397

loop_
_geom_bond_atom_site_label_1
_geom_bond_atom_site_label_2
_ccdc_geom_bond_type
C33   H11   S    
O15   C59   A    
C45   C47   S    
O11   V4    S    
O4    V2    S    
O24   H14   S    
C7    C29   A    
C7    C58   S    
C41   H7    S    
C11   C13   A    
O28   H20   S    
O1    C3    A    
C29   O21   S    
C2    O7    A    
O17   V3    S    
C52   O24   S    
C47   C55   S    
C23   C25   A    
O5    C3    A    
O21   H9    S    
C1    C40   S    
C16   C20   A    
C19   C21   A    
C5    C29   A    
H2    C24   S    
C47   C51   S    
C26   O30   S    
O12   C60   A    
C48   C56   S    
C7    C27   A    
C42   C44   S    
C33   C47   S    
C39   C55   T    
C37   C60   S    
C12   H24   S    
C35   C43   S    
C30   O22   S    
O22   H10   S    
C38   C54   T    
C18   C26   A    
O26   H18   S    
C15   C17   A    
C45   O25   S    
C19   C27   A    
C9    C31   A    
O13   V3    S    
C57   O18   A    
C10   C32   A    
C43   C53   S    
C24   C26   A    
C36   H28   S    
O2    C4    A    
O6    V2    S    
C22   C24   A    
C13   C15   A    
C2    C39   S    
C3    C32   S    
C4    C31   S    
C6    C30   A    
C34   C36   S    
C35   H27   S    
C45   C49   S    
C41   C43   S    
C49   H15   S    
C50   H16   S    
O14   C58   A    
O13   C57   A    
C27   H5    S    
C38   C59   S    
O5    V1    S    
C36   C44   S    
C35   C51   S    
C42   H8    S    
C5    H3    S    
C49   C51   S    
C46   C48   S    
O14   V4    S    
C8    C57   S    
C43   C49   S    
O23   H13   S    
C36   C52   S    
O6    C4    A    
C44   C54   S    
O1    V2    S    
C5    C21   A    
O19   V4    S    
O2    V1    S    
H1    C23   S    
C51   O23   S    
O4    C2    A    
C8    C28   A    
C15   C19   A    
C20   C28   A    
C33   C41   S    
C20   C22   A    
C46   C50   S    
C34   C48   S    
C40   C56   T    
C46   O26   S    
C14   H22   S    
C28   H6    S    
C13   H21   S    
C6    H4    S    
C10   C12   A    
O16   C60   A    
O3    C1    A    
O30   H26   S    
C9    O27   S    
O12   V3    S    
C9    C11   A    
C58   O17   A    
O15   V3    S    
O25   H17   S    
C41   C45   S    
C44   C50   S    
C42   C46   S    
C8    C30   A    
C12   C14   A    
C6    C22   A    
C17   C25   A    
C1    O8    A    
C21   C23   A    
O18   V4    S    
O29   H25   S    
C14   C16   A    
O20   V3    S    
C48   C52   S    
C17   C31   A    
C34   H12   S    
O7    V1    S    
C18   C32   A    
O11   C59   A    
C34   C42   S    
O9    V2    S    
C50   C52   S    
C25   O29   S    
O10   V1    S    
O3    V1    S    
O8    V2    S    
O16   V4    S    
C33   C35   S    
O27   H19   S    
C10   O28   S    
C37   C53   T    
C16   C18   A    
C11   H23   S    
