data_mof_unit_209.cif
_audit_creation_date              2012-12-11T15:41:28-0500
_audit_creation_method            fapswitch 2.2
_symmetry_space_group_name_H-M    P1
_symmetry_Int_Tables_number       1
_space_group_crystal_system       triclinic
_cell_length_a                    19.243427
_cell_length_b                    11.211683
_cell_length_c                    18.799797
_cell_angle_alpha                 89.993951
_cell_angle_beta                  90.052266
_cell_angle_gamma                 89.554223
_cell_volume                      4055.95435025

loop_
_atom_site_label
_atom_site_type_symbol
_atom_type_description
_atom_site_fract_x
_atom_site_fract_y
_atom_site_fract_z
_atom_type_partial_charge
C1    C     C_R   0.726974 0.955227 0.853510 0.569437
C2    C     C_R   0.272886 0.955367 0.146561 0.576404
C3    C     C_R   0.226975 0.455228 0.853511 0.569624
C4    C     C_R   0.772885 0.455365 0.146562 0.571511
C5    C     C_R   0.692330 0.432536 0.039275 -0.074901
C6    C     C_R   0.308843 0.418741 0.959127 -0.067655
C7    C     C_R   0.192334 0.932540 0.039273 -0.073588
C8    C     C_R   0.808842 0.918718 0.959119 -0.067588
C9    C     C_R   0.691027 0.435415 0.965761 -0.008320
C10   C     C_R   0.312529 0.419826 0.033009 0.006283
C11   C     C_R   0.191030 0.935415 0.965758 -0.008759
C12   C     C_R   0.812534 0.919793 0.033000 0.005063
C13   C     C_R   0.808020 0.366197 0.960807 -0.126206
C14   C     C_R   0.191318 0.383390 0.041927 -0.107202
C15   C     C_R   0.308026 0.866214 0.960803 -0.126230
C16   C     C_R   0.691320 0.883379 0.041925 -0.106338
C17   C     C_R   0.810569 0.360474 0.035212 0.247675
C18   C     C_R   0.186790 0.374680 0.968322 0.240504
C19   C     C_R   0.310576 0.860491 0.035208 0.246656
C20   C     C_R   0.686788 0.874675 0.968320 0.240008
C21   C     C_3   0.633378 0.520359 0.042941 0.182833
C22   C     C_3   0.370282 0.499439 0.953251 0.176946
C23   C     C_3   0.133386 0.020369 0.042938 0.183583
C24   C     C_3   0.870286 0.999400 0.953234 0.177191
C25   C     C_3   0.642525 0.538922 0.963115 0.193752
C26   C     C_3   0.364377 0.517052 0.033286 0.182934
C27   C     C_3   0.142531 0.038927 0.963113 0.193153
C28   C     C_3   0.864397 0.016996 0.033271 0.182727
C29   C     C_R   0.748632 0.407052 0.924756 -0.062159
C30   C     C_R   0.253849 0.407402 0.075488 -0.059624
C31   C     C_R   0.248634 0.907058 0.924754 -0.062113
C32   C     C_R   0.753854 0.907387 0.075483 -0.059182
C33   C     C_R   0.491547 0.163941 0.425809 0.030695
C34   C     C_R   0.521063 0.167153 0.569470 -0.010793
C35   C     C_R   0.991755 0.665678 0.425822 0.030826
C36   C     C_R   0.021033 0.665825 0.569522 -0.010683
C37   C     C_R   0.440389 0.145477 0.476341 -0.043549
C38   C     C_R   0.454729 0.144609 0.546866 -0.030085
C39   C     C_R   0.940407 0.647025 0.476134 -0.042345
C40   C     C_R   0.954593 0.644657 0.546684 -0.030991
C41   C     C_R   0.577117 0.170881 0.519677 -0.073803
C42   C     C_R   0.561533 0.170754 0.445698 -0.008190
C43   C     C_R   0.077336 0.666777 0.519939 -0.070484
C44   C     C_R   0.061903 0.667629 0.445858 -0.005734
C45   C     C_R   0.529068 0.180148 0.849262 0.546363
C46   C     C_R   0.467663 0.177712 0.148670 0.572839
C47   C     C_R   0.029068 0.680148 0.849262 0.546388
C48   C     C_R   0.967661 0.677713 0.148669 0.570463
C49   C     C_3   0.371349 0.203085 0.486563 -0.258770
C50   C     C_3   0.387194 0.202305 0.565777 -0.274189
C51   C     C_3   0.871561 0.704978 0.486517 -0.258481
C52   C     C_3   0.887195 0.702600 0.565793 -0.274364
C53   C     C_R   0.754433 0.416313 0.424566 -0.115063
C54   C     C_R   0.246392 0.421878 0.573880 -0.091479
C55   C     C_R   0.254354 0.915834 0.424508 -0.084314
C56   C     C_R   0.746552 0.920693 0.574022 -0.088103
C57   C     C_R   0.805107 0.355668 0.464593 0.071824
C58   C     C_R   0.197771 0.353729 0.536846 0.073768
C59   C     C_R   0.305555 0.857341 0.464979 0.068035
C60   C     C_R   0.697460 0.853293 0.536840 0.075592
C61   C     C_R   0.801382 0.352045 0.536873 0.020227
C62   C     C_R   0.199496 0.345851 0.464210 -0.039014
C63   C     C_R   0.301960 0.854316 0.537163 0.020404
C64   C     C_R   0.698982 0.846164 0.464035 -0.031104
C65   C     C_R   0.693627 0.463213 0.535976 0.264806
C66   C     C_R   0.295929 0.483112 0.458222 0.307587
C67   C     C_R   0.193263 0.962432 0.535835 0.266916
C68   C     C_R   0.795601 0.982499 0.458425 0.317840
C69   C     C_R   0.694116 0.459469 0.459986 -0.003389
C70   C     C_R   0.300923 0.477486 0.534123 0.040570
C71   C     C_R   0.193632 0.957648 0.459754 0.018891
C72   C     C_R   0.801102 0.976173 0.534191 0.040393
C73   C     C_3   0.883400 0.362233 0.466687 0.173594
C74   C     C_3   0.119590 0.359631 0.537606 0.208699
C75   C     C_3   0.383830 0.862990 0.466765 0.168191
C76   C     C_3   0.619262 0.861491 0.537489 0.203660
C77   C     C_3   0.877533 0.359722 0.547080 -0.208306
C78   C     C_3   0.122547 0.351208 0.457638 -0.194827
C79   C     C_3   0.378128 0.861240 0.547290 -0.209050
C80   C     C_3   0.622198 0.855790 0.457486 -0.198116
C81   C     C_R   0.748857 0.408231 0.574593 -0.003943
C82   C     C_R   0.247135 0.408847 0.423919 -0.064001
C83   C     C_R   0.248972 0.909242 0.574768 0.000742
C84   C     C_R   0.747008 0.908436 0.423974 -0.035723
C85   C     C_R   0.738472 0.364122 0.852304 0.555376
C86   C     C_R   0.262023 0.363399 0.147650 0.551338
C87   C     C_R   0.238473 0.864124 0.852303 0.555185
C88   C     C_R   0.762025 0.863395 0.147648 0.555986
C89   C     C_R   0.727650 0.957521 0.646702 0.522263
C90   C     C_R   0.272839 0.956841 0.353049 0.511902
C91   C     C_R   0.227620 0.457712 0.646684 0.518797
C92   C     C_R   0.772906 0.457052 0.353106 0.501272
C93   C     C_R   0.533229 0.176818 0.643885 0.519436
C94   C     C_R   0.468507 0.176134 0.354660 0.610076
C95   C     C_R   0.033068 0.676620 0.643952 0.518903
C96   C     C_R   0.968865 0.676256 0.354494 0.607561
C97   C     C_R   0.739712 0.364428 0.647284 0.545251
C98   C     C_R   0.260320 0.360620 0.353385 0.526624
C99   C     C_R   0.239711 0.864532 0.647302 0.548717
C100  C     C_R   0.760038 0.861609 0.353040 0.537660
C101  C     C_2   0.499939 0.187584 0.920472 -0.122849
C102  C     C_2   0.489161 0.167168 0.074903 -0.085129
C103  C     C_2   0.999936 0.687584 0.920471 -0.122885
C104  C     C_2   0.989159 0.667170 0.074902 -0.086359
C105  C     C_2   0.444019 0.119421 0.027800 -0.150210
C106  C     C_2   0.459007 0.108626 0.951015 -0.217665
C107  C     C_2   0.944019 0.619419 0.027799 -0.150091
C108  C     C_2   0.959008 0.608620 0.951015 -0.217769
C109  C     C_R   0.755040 0.409162 0.075571 0.023807
C110  C     C_R   0.243825 0.408830 0.925030 0.016711
C111  C     C_R   0.255045 0.909170 0.075568 0.024115
C112  C     C_R   0.743822 0.908822 0.925026 0.016847
Cr1   Cr    Cr6+3 0.769260 0.163750 0.750730 1.003632
Cr2   Cr    Cr6+3 0.230740 0.163750 0.249270 1.025958
Cr3   Cr    Cr6+3 0.269260 0.663750 0.750730 1.003861
Cr4   Cr    Cr6+3 0.730740 0.663750 0.249270 1.030369
Cr5   Cr    Cr6+3 0.612640 0.009910 0.748780 0.977463
Cr6   Cr    Cr6+3 0.387360 0.009910 0.251220 0.999284
Cr7   Cr    Cr6+3 0.112640 0.509910 0.748780 0.977234
Cr8   Cr    Cr6+3 0.887360 0.509910 0.251220 0.986102
Cr9   Cr    Cr6+3 0.614190 0.322400 0.747710 0.987545
Cr10  Cr    Cr6+3 0.385810 0.322400 0.252290 1.019337
Cr11  Cr    Cr6+3 0.114190 0.822400 0.747710 0.987780
Cr12  Cr    Cr6+3 0.885810 0.822400 0.252290 1.031017
H1    H     H_    0.394933 0.083834 0.046494 0.154944
H2    H     H_    0.436665 0.037089 0.919825 0.113718
H3    H     H_    0.894933 0.583830 0.046493 0.155703
H4    H     H_    0.936672 0.537075 0.919826 0.113733
H5    H     H_    0.827787 0.646531 0.470737 0.134055
H6    H     H_    0.894625 0.791602 0.590037 0.138462
H7    H     H_    0.327691 0.143991 0.471340 0.130876
H8    H     H_    0.394413 0.291824 0.589383 0.138452
H9    H     H_    0.370909 0.292838 0.462560 0.180081
H10   H     H_    0.352660 0.142419 0.596542 0.136353
H11   H     H_    0.871664 0.795025 0.462971 0.176739
H12   H     H_    0.852414 0.642395 0.596040 0.136780
H13   H     H_    0.902674 0.446842 0.444884 0.120859
H14   H     H_    0.099008 0.446560 0.556365 0.111503
H15   H     H_    0.403214 0.946947 0.444401 0.121549
H16   H     H_    0.599158 0.948276 0.557105 0.117678
H17   H     H_    0.898273 0.277799 0.572420 0.203633
H18   H     H_    0.101787 0.267772 0.435469 0.221596
H19   H     H_    0.398575 0.779304 0.572825 0.205138
H20   H     H_    0.599947 0.774539 0.434085 0.218211
H21   H     H_    0.892852 0.443116 0.573904 0.072324
H22   H     H_    0.103917 0.432683 0.430178 0.054963
H23   H     H_    0.393713 0.944509 0.573969 0.073199
H24   H     H_    0.605317 0.939423 0.431035 0.121071
H25   H     H_    0.538595 0.204594 0.058994 0.086701
H26   H     H_    0.513791 0.267346 0.950115 0.160501
H27   H     H_    0.038592 0.704600 0.058992 0.087163
H28   H     H_    0.013782 0.767350 0.950113 0.160597
H29   H     H_    0.851432 0.331876 0.930878 0.164547
H30   H     H_    0.146019 0.364504 0.073328 0.151036
H31   H     H_    0.351439 0.831898 0.930872 0.164663
H32   H     H_    0.646022 0.864492 0.073328 0.152449
H33   H     H_    0.584275 0.472220 0.056493 0.146956
H34   H     H_    0.417584 0.447023 0.937396 0.146599
H35   H     H_    0.084282 0.972237 0.056494 0.147735
H36   H     H_    0.917579 0.946975 0.937364 0.146607
H37   H     H_    0.670306 0.623131 0.950362 0.166863
H38   H     H_    0.338683 0.602540 0.047362 0.178499
H39   H     H_    0.170313 0.123131 0.950356 0.166904
H40   H     H_    0.838721 0.102494 0.047359 0.178578
O1    O     O_R   0.784290 0.290360 0.830540 -0.508966
O2    O     O_R   0.215710 0.290360 0.169460 -0.499261
O3    O     O_R   0.284290 0.790360 0.830540 -0.509127
O4    O     O_R   0.715710 0.790360 0.169460 -0.495737
O5    O     O_R   0.554690 0.080440 0.673480 -0.533942
O6    O     O_R   0.445310 0.080440 0.326520 -0.515183
O7    O     O_R   0.054690 0.580440 0.673480 -0.535373
O8    O     O_R   0.945310 0.580440 0.326520 -0.537041
O9    O     O_R   0.543980 0.282110 0.666770 -0.563552
O10   O     O_R   0.456020 0.282110 0.333230 -0.502819
O11   O     O_R   0.043980 0.782110 0.666770 -0.563544
O12   O     O_R   0.956020 0.782110 0.333230 -0.471838
O13   O     O_R   0.679070 0.374030 0.674430 -0.507854
O14   O     O_R   0.320930 0.374030 0.325570 -0.492128
O15   O     O_R   0.179070 0.874030 0.674430 -0.507205
O16   O     O_R   0.820930 0.874030 0.325570 -0.500523
O17   O     O_3   0.665360 0.165350 0.749070 -0.269977
O18   O     O_3   0.334640 0.165350 0.250930 -0.271587
O19   O     O_3   0.165360 0.665350 0.749070 -0.270463
O20   O     O_3   0.834640 0.665350 0.250930 -0.271178
O21   O     O_R   0.762610 0.041070 0.825230 -0.451383
O22   O     O_R   0.237390 0.041070 0.174770 -0.454387
O23   O     O_R   0.262610 0.541070 0.825230 -0.451220
O24   O     O_R   0.737390 0.541070 0.174770 -0.457891
O25   O     O_R   0.667390 0.924160 0.829970 -0.483014
O26   O     O_R   0.332610 0.924160 0.170030 -0.476679
O27   O     O_R   0.167390 0.424160 0.829970 -0.482754
O28   O     O_R   0.832610 0.424160 0.170030 -0.475955
O29   O     O_R   0.553980 0.081420 0.821780 -0.508159
O30   O     O_R   0.446020 0.081420 0.178220 -0.503963
O31   O     O_R   0.053980 0.581420 0.821780 -0.508116
O32   O     O_R   0.946020 0.581420 0.178220 -0.509773
O33   O     O_R   0.543210 0.283170 0.826740 -0.497334
O34   O     O_R   0.456790 0.283170 0.173260 -0.490227
O35   O     O_R   0.043210 0.783170 0.826740 -0.497421
O36   O     O_R   0.956790 0.783170 0.173260 -0.484598
O37   O     O_R   0.678350 0.375000 0.822720 -0.484364
O38   O     O_R   0.321650 0.375000 0.177280 -0.503775
O39   O     O_R   0.178350 0.875000 0.822720 -0.484596
O40   O     O_R   0.821650 0.875000 0.177280 -0.505485
O41   O     O_R   0.785060 0.289300 0.670580 -0.532657
O42   O     O_R   0.214940 0.289300 0.329420 -0.523740
O43   O     O_R   0.285060 0.789300 0.670580 -0.532207
O44   O     O_R   0.714940 0.789300 0.329420 -0.511986
O45   O     O_R   0.763330 0.040090 0.676940 -0.527049
O46   O     O_R   0.236670 0.040090 0.323060 -0.510971
O47   O     O_R   0.263330 0.540090 0.676940 -0.527729
O48   O     O_R   0.736670 0.540090 0.323060 -0.506746
O49   O     O_R   0.668160 0.923110 0.670000 -0.524440
O50   O     O_R   0.331840 0.923110 0.330000 -0.552495
O51   O     O_R   0.168160 0.423110 0.670000 -0.523058
O52   O     O_R   0.831840 0.423110 0.330000 -0.551096
O53   O     O_3   0.648435 0.538842 0.571872 -0.508155
C113  C     C_3   0.582151 0.487716 0.580207 0.027225
H41   H     H_    0.569017 0.487646 0.637525 0.136368
H42   H     H_    0.576880 0.397414 0.557113 0.116433
H43   H     H_    0.542432 0.545117 0.554960 0.239164
O54   O     O_3   0.345462 0.546598 0.419724 -0.458235
C114  C     C_3   0.317483 0.609031 0.360010 0.010634
H44   H     H_    0.264624 0.584398 0.342709 0.062028
H45   H     H_    0.353094 0.597022 0.314121 0.108225
H46   H     H_    0.314534 0.704451 0.370534 0.176367
O55   O     O_3   0.147966 0.038283 0.571357 -0.511808
C115  C     C_3   0.081955 0.986635 0.580540 0.030367
H47   H     H_    0.069483 0.986676 0.638005 0.136077
H48   H     H_    0.076608 0.896312 0.557361 0.127079
H49   H     H_    0.041848 0.043957 0.555891 0.237952
O56   O     O_3   0.841615 0.053065 0.419749 -0.455671
C116  C     C_3   0.808775 0.113346 0.361839 -0.020324
H50   H     H_    0.751299 0.107017 0.360096 0.116339
H51   H     H_    0.831347 0.083161 0.310651 0.111639
H52   H     H_    0.820122 0.208390 0.363738 0.171514
C117  C     C_2   0.632299 0.493694 0.416706 0.252889
H53   H     H_    0.625510 0.455695 0.364097 0.107030
O57   O     O_2   0.588362 0.563301 0.438036 -0.504080
C118  C     C_2   0.364603 0.521595 0.570584 0.253525
H54   H     H_    0.372391 0.508361 0.627032 0.088712
O58   O     O_2   0.412348 0.565279 0.537292 -0.459294
C119  C     C_2   0.131762 0.990899 0.416187 0.277320
H55   H     H_    0.126450 0.955932 0.362731 0.161809
O59   O     O_2   0.086005 0.056368 0.438165 -0.513824
C120  C     C_2   0.864710 0.021291 0.570198 0.250564
H56   H     H_    0.872444 0.010140 0.626805 0.088904
O60   O     O_2   0.912554 0.063319 0.536275 -0.458208
O61   O     O_3   0.916568 0.256848 0.442314 -0.466961
C121  C     C_3   0.960996 0.280424 0.384386 -0.052713
H57   H     H_    0.993632 0.360357 0.392997 0.083555
H58   H     H_    0.931173 0.289861 0.334335 0.121006
H59   H     H_    0.996100 0.202706 0.377041 0.177925
O62   O     O_3   0.090179 0.256109 0.567593 -0.490090
C122  C     C_3   0.040779 0.285078 0.620518 -0.065913
H60   H     H_    0.008723 0.364905 0.607287 0.097034
H61   H     H_    0.066525 0.296946 0.672702 0.147898
H62   H     H_    0.004751 0.209194 0.626645 0.106925
O63   O     O_3   0.416516 0.757066 0.442597 -0.471085
C123  C     C_3   0.460273 0.779515 0.383965 -0.053809
H63   H     H_    0.493203 0.859412 0.391665 0.094401
H64   H     H_    0.429798 0.788261 0.334295 0.119128
H65   H     H_    0.495114 0.701464 0.376572 0.177434
O64   O     O_3   0.588791 0.757575 0.565870 -0.489741
C124  C     C_3   0.541105 0.785368 0.620602 -0.066034
H66   H     H_    0.509500 0.866662 0.609563 0.098073
H67   H     H_    0.568289 0.793692 0.672268 0.147935
H68   H     H_    0.504486 0.710247 0.626377 0.108101
O65   O     O_3   0.863626 0.299976 0.070587 -0.572903
C125  C     C_3   0.930067 0.319785 0.042201 -0.131605
H69   H     H_    0.965707 0.340283 0.086852 0.130162
H70   H     H_    0.932929 0.394481 0.004801 0.086092
H71   H     H_    0.948462 0.238157 0.014873 0.148412
O66   O     O_3   0.126543 0.330207 0.938789 -0.573966
C126  C     C_3   0.071451 0.409578 0.952291 -0.092475
H72   H     H_    0.028009 0.387295 0.916004 0.127969
H73   H     H_    0.086980 0.503469 0.943010 0.156387
H74   H     H_    0.053374 0.400886 0.007704 0.080872
O67   O     O_3   0.363635 0.799998 0.070584 -0.573132
C127  C     C_3   0.430075 0.819790 0.042194 -0.131835
H75   H     H_    0.465718 0.840292 0.086842 0.131048
H76   H     H_    0.432939 0.894479 0.004789 0.086024
H77   H     H_    0.448464 0.738152 0.014873 0.148448
O68   O     O_3   0.626538 0.830214 0.938790 -0.574133
C128  C     C_3   0.571453 0.909600 0.952292 -0.092407
H78   H     H_    0.528008 0.887324 0.916008 0.127872
H79   H     H_    0.586990 0.003487 0.943006 0.156538
H80   H     H_    0.553380 0.900921 0.007706 0.081485
O69   O     O_3   0.148709 0.123378 0.082809 -0.536053
C129  C     C_3   0.088137 0.158397 0.119470 -0.091082
H81   H     H_    0.097204 0.238848 0.151886 0.135870
H82   H     H_    0.071645 0.087853 0.157287 0.094888
H83   H     H_    0.047108 0.181256 0.080463 0.107863
O70   O     O_3   0.856052 0.105273 0.915210 -0.551593
C130  C     C_3   0.913494 0.131690 0.871727 -0.112492
H84   H     H_    0.923299 0.059190 0.832474 0.102720
H85   H     H_    0.959686 0.148024 0.905261 0.122517
H86   H     H_    0.903475 0.214257 0.841122 0.134434
O71   O     O_3   0.648694 0.623367 0.082815 -0.536643
C131  C     C_3   0.588120 0.658376 0.119476 -0.091116
H87   H     H_    0.597186 0.738831 0.151890 0.139589
H88   H     H_    0.571626 0.587828 0.157291 0.091112
H89   H     H_    0.547086 0.681223 0.080471 0.108229
O72   O     O_3   0.356048 0.605300 0.915215 -0.551601
C132  C     C_3   0.413488 0.631697 0.871723 -0.112436
H90   H     H_    0.423288 0.559181 0.832479 0.102846
H91   H     H_    0.459682 0.648041 0.905251 0.122489
H92   H     H_    0.403469 0.714253 0.841108 0.134428
O73   O     O_3   0.582306 0.514148 0.922954 -0.572875
C133  C     C_3   0.585013 0.577160 0.857722 -0.086453
H93   H     H_    0.637648 0.578597 0.833351 0.130400
H94   H     H_    0.567895 0.670798 0.865269 0.136938
H95   H     H_    0.549570 0.534212 0.819098 0.122310
O74   O     O_3   0.425102 0.486281 0.071656 -0.566106
C134  C     C_3   0.426045 0.549599 0.136988 -0.071353
H96   H     H_    0.374213 0.561062 0.162104 0.127355
H97   H     H_    0.446702 0.639630 0.129609 0.101156
H98   H     H_    0.460383 0.502933 0.175313 0.144292
O75   O     O_3   0.082309 0.014154 0.922955 -0.572920
C135  C     C_3   0.085015 0.077160 0.857720 -0.086190
H99   H     H_    0.137651 0.078599 0.833349 0.130525
H100  H     H_    0.067895 0.170797 0.865263 0.137009
H101  H     H_    0.049575 0.034206 0.819097 0.122247
O76   O     O_3   0.925126 0.986185 0.071621 -0.566782
C136  C     C_3   0.926105 0.049520 0.136944 -0.070380
H102  H     H_    0.874290 0.060963 0.162096 0.127627
H103  H     H_    0.946734 0.139562 0.129539 0.100733
H104  H     H_    0.960481 0.002885 0.175246 0.147323
C137  C     C_2   0.649764 0.172406 0.546588 0.166056
H105  H     H_    0.660118 0.176467 0.602942 0.168457
O77   O     O_2   0.699369 0.164780 0.506913 -0.575907
C138  C     C_2   0.615477 0.183263 0.389592 0.219754
H106  H     H_    0.659292 0.241197 0.397222 0.137657
O78   O     O_2   0.611121 0.128798 0.333527 -0.547661
C139  C     C_2   0.149863 0.671226 0.547306 0.169586
H107  H     H_    0.159981 0.669392 0.603765 0.168182
O79   O     O_2   0.199721 0.675902 0.507885 -0.576157
C140  C     C_2   0.116610 0.668378 0.390004 0.222045
H108  H     H_    0.162385 0.613447 0.395822 0.146682
O80   O     O_2   0.110191 0.727843 0.335977 -0.544746

loop_
_geom_bond_atom_site_label_1
_geom_bond_atom_site_label_2
_ccdc_geom_bond_type
C122  H61   S    
C55   C59   A    
C129  H83   S    
C114  H44   S    
C66   O54   S    
C53   C69   A    
C100  O44   A    
C114  H46   S    
C49   H7    S    
Cr8   O32   S    
C27   O75   S    
C47   O31   A    
O68   C128  S    
C46   O34   A    
C121  H58   S    
O66   C126  S    
C72   C120  S    
C95   O11   A    
C64   C84   A    
C91   O51   A    
Cr9   O9    S    
O76   C136  S    
C88   O4    A    
C86   O38   A    
C121  H59   S    
C82   C98   S    
C115  H47   S    
C120  O60   D    
Cr6   O18   S    
C133  H94   S    
C2    C111  S    
C31   C87   S    
C41   C137  S    
C51   C52   S    
C84   C100  S    
C135  H101  S    
C17   O65   S    
C50   H10   S    
C139  O79   D    
O74   C134  S    
C60   C76   S    
C99   O43   A    
Cr1   O41   S    
C22   O72   S    
C43   C44   A    
C37   C38   A    
C66   C82   A    
C26   O74   S    
C10   C30   A    
C24   O70   S    
O55   C115  S    
C54   C70   A    
C11   C27   S    
C68   C72   A    
C127  H75   S    
Cr5   O49   S    
C74   O62   S    
C103  H28   S    
Cr11  O15   S    
C48   O36   A    
C19   C111  A    
C125  H70   S    
C43   C139  S    
C90   O50   A    
C131  H87   S    
C49   H9    S    
C2    O26   A    
C17   C109  A    
C89   O45   A    
C57   C61   A    
C1    O21   A    
C59   C63   A    
C105  H1    S    
C60   C64   A    
C85   O1    A    
C4    O24   A    
C78   H18   S    
C107  H3    S    
C128  H79   S    
C94   O6    A    
C65   O53   S    
C66   C70   A    
C73   H13   S    
C93   O9    A    
Cr7   O31   S    
C77   H17   S    
Cr5   O29   S    
C78   H22   S    
C102  H25   S    
Cr9   O37   S    
C139  H107  S    
C80   H24   S    
C5    C21   S    
C73   C77   S    
C98   O42   A    
C75   C79   S    
C104  C107  D    
C55   C71   A    
Cr7   O7    S    
C39   C51   S    
C4    C109  S    
C67   C83   A    
C33   C94   S    
C51   H5    S    
C130  H85   S    
C35   C96   S    
O61   C121  S    
C33   C42   A    
Cr11  O35   S    
Cr12  O20   S    
C55   C90   S    
C1    C112  S    
C3    C110  S    
C45   O33   A    
C32   C88   S    
C57   C73   S    
C136  H103  S    
C27   H39   S    
C79   H19   S    
C61   C77   S    
O64   C124  S    
C80   H20   S    
C23   H35   S    
Cr11  O19   S    
C107  C108  S    
C98   O14   A    
C116  H50   S    
C29   C85   S    
C131  H89   S    
C76   O64   S    
C117  H53   S    
C14   H30   S    
C137  O77   D    
C47   O35   A    
C70   C118  S    
C46   O30   A    
C73   O61   S    
C87   O3    A    
C126  H74   S    
C138  H106  S    
C91   O47   A    
C39   C40   A    
Cr9   O13   S    
C56   C72   A    
O53   C113  S    
Cr10  O10   S    
C88   O40   A    
C135  H100  S    
C5    C9    A    
Cr3   O23   S    
C113  H42   S    
C67   O55   S    
C8    C12   A    
Cr1   O21   S    
O69   C129  S    
Cr7   O19   S    
C108  H4    S    
C124  H67   S    
Cr4   O44   S    
Cr5   O25   S    
C56   C89   S    
C25   O73   S    
C140  O80   D    
C74   C78   S    
C52   H12   S    
C92   O48   A    
C100  O16   A    
C58   C74   S    
C113  H43   S    
C101  C106  D    
C21   C25   S    
C120  H56   S    
C134  H98   S    
C21   O71   S    
C62   C78   S    
Cr4   O4    S    
C24   C28   S    
C75   O63   S    
C123  H63   S    
C23   O69   S    
Cr11  O11   S    
C114  H45   S    
C15   C31   A    
Cr12  O12   S    
C16   C32   A    
Cr3   O47   S    
Cr1   O45   S    
C61   C81   A    
C36   C95   S    
C7    C23   S    
Cr4   O20   S    
C118  H54   S    
C8    C24   S    
C115  H49   S    
C116  H52   S    
Cr5   O5    S    
C49   C50   S    
C3    O23   A    
C68   O56   S    
C18   O66   S    
C1    O25   A    
C58   C62   A    
C19   O67   S    
Cr11  O39   S    
C59   C75   S    
C41   C42   A    
C4    O28   A    
C126  H72   S    
C86   O2    A    
C127  H77   S    
C115  H48   S    
C9    C25   S    
C15   C19   A    
C74   H14   S    
C93   O5    A    
C12   C28   S    
C13   C29   A    
C8    C112  A    
Cr1   O1    S    
O70   C130  S    
C119  H55   S    
C6    C22   S    
C101  H26   S    
C102  C105  D    
C129  H81   S    
C20   C112  A    
C16   H32   S    
O67   C127  S    
C85   O37   A    
C62   C82   A    
C122  H62   S    
C134  H96   S    
C83   C99   S    
O65   C125  S    
C64   C80   S    
C125  H71   S    
C34   C41   A    
C21   H33   S    
C123  H65   S    
C87   O39   A    
C131  H88   S    
C45   O29   A    
C47   C103  S    
Cr9   O17   S    
C68   C84   A    
C76   C80   S    
C130  H84   S    
C53   C57   A    
C79   H23   S    
C22   H34   S    
C121  H57   S    
Cr2   O18   S    
C26   H38   S    
C33   C37   A    
C56   C60   A    
C63   C83   A    
C35   C39   A    
O71   C131  S    
C99   O15   A    
C128  H78   S    
C46   C102  S    
C65   C81   A    
Cr6   O50   S    
C13   H29   S    
C50   H8    S    
C28   O76   S    
C89   O49   A    
Cr10  O14   S    
C133  H93   S    
C96   O12   A    
C18   C110  A    
C127  H76   S    
C6    C10   A    
Cr3   O19   S    
C13   C17   A    
C105  C106  S    
Cr12  O36   S    
Cr2   O22   S    
Cr10  O38   S    
C71   C119  S    
C54   C91   S    
Cr4   O48   S    
Cr6   O26   S    
C5    C109  A    
C65   C69   A    
O56   C116  S    
C7    C111  A    
C92   O52   A    
C67   C71   A    
C136  H102  S    
Cr6   O30   S    
O75   C135  S    
C132  H90   S    
C22   C26   S    
Cr8   O20   S    
C125  H69   S    
C36   C43   A    
C75   H15   S    
C20   O68   S    
C97   O41   A    
C95   O7    A    
C133  H95   S    
Cr7   O51   S    
Cr3   O43   S    
C137  H105  S    
C14   C18   A    
C34   C93   S    
C63   C79   S    
O73   C133  S    
C7    C11   A    
Cr4   O24   S    
O62   C122  S    
Cr12  O40   S    
C104  H27   S    
C126  H73   S    
Cr7   O27   S    
C128  H80   S    
Cr8   O28   S    
Cr5   O17   S    
Cr6   O6    S    
C48   C104  S    
C122  H60   S    
C37   C49   S    
C51   H11   S    
C119  O59   D    
C103  C108  D    
C23   C27   S    
C30   C86   S    
C124  H66   S    
C42   C138  S    
C16   C20   A    
C10   C26   S    
C11   C31   A    
C97   O13   A    
C12   C32   A    
C6    C110  A    
C14   C30   A    
Cr2   O2    S    
C130  H86   S    
C76   H16   S    
Cr1   O17   S    
C134  H97   S    
C36   C40   A    
C123  H64   S    
C25   H37   S    
C90   O46   A    
Cr8   O8    S    
C132  H91   S    
C40   C52   S    
Cr2   O42   S    
C136  H104  S    
C2    O22   A    
C3    O27   A    
Cr10  O18   S    
C132  H92   S    
C53   C92   S    
C118  O58   D    
C35   C44   A    
C116  H51   S    
Cr9   O33   S    
C106  H2    S    
C45   C101  S    
C94   O10   A    
O72   C132  S    
C44   C140  S    
C117  O57   D    
Cr3   O3    S    
O63   C123  S    
C77   H21   S    
C28   H40   S    
C54   C58   A    
C34   C38   A    
C15   H31   S    
C24   H36   S    
C38   C50   S    
C9    C29   A    
Cr8   O52   S    
C52   H6    S    
C135  H99   S    
Cr2   O46   S    
Cr10  O34   S    
C113  H41   S    
C81   C97   S    
C129  H82   S    
O54   C114  S    
C124  H68   S    
Cr12  O16   S    
C138  O78   D    
C140  H108  S    
C96   O8    A    
C69   C117  S    
C48   O32   A    
