data_mof_unit_4253.cif
_audit_creation_date              2012-12-10T18:52:13-0500
_audit_creation_method            fapswitch 2.2
_symmetry_space_group_name_H-M    P1
_symmetry_Int_Tables_number       1
_space_group_crystal_system       triclinic
_cell_length_a                    15.71655
_cell_length_b                    10.684029
_cell_length_c                    9.910715
_cell_angle_alpha                 90.796036
_cell_angle_beta                  91.392238
_cell_angle_gamma                 91.394812
_cell_volume                      1663.00946116

loop_
_atom_site_label
_atom_site_type_symbol
_atom_type_description
_atom_site_fract_x
_atom_site_fract_y
_atom_site_fract_z
_atom_type_partial_charge
C1    C     C_R   0.499669 0.260133 0.499367 0.855942
C2    C     C_R   0.500696 0.739864 0.500753 0.855386
C3    C     C_R   0.534471 0.935590 0.391068 -0.194071
C4    C     C_R   0.467332 0.064436 0.610150 -0.193605
C5    C     C_R   0.501597 0.872418 0.501593 -0.007297
C6    C     C_R   0.499742 0.127594 0.499218 -0.002260
C7    C     C_R   0.555147 0.575336 0.076921 -0.124703
C8    C     C_R   0.444474 0.425354 0.922966 -0.115012
C9    C     C_R   0.557047 0.574377 0.933839 0.224022
C10   C     C_R   0.445343 0.421731 0.066058 0.225348
C11   C     C_R   0.338002 0.499719 0.498535 0.903645
C12   C     C_R   0.661988 0.500520 0.501505 0.905536
C13   C     C_3   0.972292 0.414144 0.585355 -0.268067
C14   C     C_3   0.027751 0.593836 0.417558 -0.209363
C15   C     C_3   0.025181 0.390710 0.457673 -0.211733
C16   C     C_3   0.974604 0.616980 0.545358 -0.209414
C17   C     C_1   0.249059 0.500583 0.495696 -0.198938
C18   C     C_1   0.750944 0.502014 0.504690 -0.191700
C19   C     C_3   0.031345 0.526766 0.625353 0.237422
C20   C     C_3   0.968826 0.481166 0.377558 0.235223
C21   C     C_3   0.082977 0.503495 0.499020 0.159972
C22   C     C_3   0.917144 0.504072 0.503840 0.118254
C23   C     C_1   0.173773 0.501800 0.495893 -0.066079
C24   C     C_1   0.826269 0.503267 0.505497 -0.077945
C25   C     C_R   0.533845 0.063891 0.390194 -0.197008
C26   C     C_R   0.468551 0.936174 0.611549 -0.203642
H1    H     H_    0.047437 0.298698 0.421184 0.140842
H2    H     H_    0.951930 0.708756 0.581819 0.139868
H3    H     H_    0.947896 0.341662 0.654742 0.145472
H4    H     H_    0.052165 0.666530 0.348460 0.140676
H5    H     H_    0.561114 0.113074 0.306129 0.151013
H6    H     H_    0.442567 0.887071 0.696817 0.154867
H7    H     H_    0.561267 0.886031 0.306553 0.147682
H8    H     H_    0.440605 0.113964 0.694757 0.148190
H9    H     H_    0.598902 0.635383 0.135711 0.145371
H10   H     H_    0.400175 0.366446 0.863926 0.147814
N1    N     N_R   0.499980 0.499970 0.857200 -0.115990
N2    N     N_R   0.500020 0.500030 0.142800 -0.116485
O1    O     O_R   0.499990 0.316750 0.614620 -0.621117
O2    O     O_R   0.500010 0.683250 0.385380 -0.620246
O3    O     O_R   0.500000 0.316780 0.385290 -0.630109
O4    O     O_R   0.500000 0.683220 0.614710 -0.648882
O5    O     O_R   0.376780 0.499970 0.614640 -0.613461
O6    O     O_R   0.623220 0.500030 0.385360 -0.615610
O7    O     O_R   0.376780 0.500000 0.385310 -0.636435
O8    O     O_R   0.623220 0.500000 0.614690 -0.617067
Zn1   Zn    Zn3+2 0.500000 0.499980 0.653120 0.933032
Zn2   Zn    Zn3+2 0.500000 0.500020 0.346880 0.933121
C27   C     C_3   0.929858 0.455207 0.236899 -0.409096
C28   C     C_3   0.998430 0.436792 0.132683 -0.892941
H11   H     H_    0.038686 0.523163 0.124851 0.261083
H12   H     H_    0.039238 0.357415 0.160955 0.259736
H13   H     H_    0.967841 0.415545 0.032571 0.246657
H14   H     H_    0.888501 0.369537 0.239870 0.208891
H15   H     H_    0.889954 0.535146 0.207084 0.205916
C29   C     C_3   0.066412 0.549653 0.769035 -0.428794
C30   C     C_3   0.117623 0.672535 0.782270 -0.860729
H16   H     H_    0.173427 0.671422 0.715842 0.267139
H17   H     H_    0.077156 0.752635 0.755270 0.252541
H18   H     H_    0.140931 0.685753 0.888290 0.248291
H19   H     H_    0.012219 0.552715 0.838715 0.208032
H20   H     H_    0.107405 0.470752 0.798276 0.209370
C31   C     C_3   0.624556 0.656712 0.872038 -0.389527
C32   C     C_3   0.712965 0.602360 0.892224 -0.871229
H21   H     H_    0.714384 0.505789 0.849521 0.279817
H22   H     H_    0.760705 0.661470 0.840106 0.247511
H23   H     H_    0.730975 0.600165 0.001215 0.244941
H24   H     H_    0.613124 0.671014 0.764279 0.265528
H25   H     H_    0.623904 0.751513 0.919685 0.171513
C33   C     C_3   0.384813 0.327942 0.127638 -0.387319
C34   C     C_3   0.408291 0.193473 0.092654 -0.898821
H26   H     H_    0.476444 0.178450 0.117624 0.268791
H27   H     H_    0.368939 0.127051 0.151468 0.256360
H28   H     H_    0.396389 0.172798 0.983641 0.244885
H29   H     H_    0.383526 0.336090 0.237286 0.270194
H30   H     H_    0.318959 0.344790 0.089881 0.178804

loop_
_geom_bond_atom_site_label_1
_geom_bond_atom_site_label_2
_ccdc_geom_bond_type
C19   C29   S    
C25   H5    S    
C26   H6    S    
C17   C23   T    
C18   C24   T    
C14   C21   S    
C13   H3    S    
C19   C21   S    
C30   H17   S    
C6    C25   A    
C3    H7    S    
C27   H14   S    
C29   C30   S    
O2    Zn2   S    
C8    H10   S    
C31   H24   S    
O3    Zn2   S    
C31   H25   S    
C28   H12   S    
C11   O5    A    
C33   C34   S    
N1    Zn1   S    
N2    Zn2   S    
C16   H2    S    
C29   H20   S    
C14   H4    S    
C15   C20   S    
C4    H8    S    
C28   H13   S    
C13   C19   S    
C1    C6    S    
C32   H23   S    
C14   C20   S    
C3    C25   A    
C4    C6    A    
C34   H27   S    
C30   H18   S    
C27   H15   S    
C31   C32   S    
C12   O8    A    
C32   H22   S    
C20   C27   S    
C15   H1    S    
C9    N1    A    
C28   H11   S    
C10   C33   S    
C1    O3    A    
C20   C22   S    
C13   C15   S    
C33   H30   S    
C14   C16   S    
C11   O7    A    
C2    C5    S    
C8    N1    A    
O1    Zn1   S    
O7    Zn2   S    
C7    C9    A    
O8    Zn1   S    
C11   C17   S    
C16   C22   S    
C9    C31   S    
C7    H9    S    
C3    C5    A    
C34   H28   S    
C4    C26   A    
C10   N2    A    
C32   H21   S    
C21   C23   S    
C34   H26   S    
C12   O6    A    
C30   H16   S    
C2    O4    A    
C16   C19   S    
C7    N2    A    
C13   C22   S    
C22   C24   S    
O4    Zn1   S    
C1    O1    A    
C5    C26   A    
C2    O2    A    
C15   C21   S    
C8    C10   A    
C27   C28   S    
C12   C18   S    
C33   H29   S    
C29   H19   S    
O5    Zn1   S    
O6    Zn2   S    
