data_mof_unit_1907.cif
_audit_creation_date              2012-12-10T17:10:27-0500
_audit_creation_method            fapswitch 2.2
_symmetry_space_group_name_H-M    P1
_symmetry_Int_Tables_number       1
_space_group_crystal_system       triclinic
_cell_length_a                    10.839914
_cell_length_b                    12.985228
_cell_length_c                    11.691672
_cell_angle_alpha                 100.982768
_cell_angle_beta                  93.752522
_cell_angle_gamma                 91.642387
_cell_volume                      1610.67799939

loop_
_atom_site_label
_atom_site_type_symbol
_atom_type_description
_atom_site_fract_x
_atom_site_fract_y
_atom_site_fract_z
_atom_type_partial_charge
C1    C     C_R   0.501599 0.298870 0.477357 0.806586
C2    C     C_R   0.498405 0.701130 0.522643 0.806599
C3    C     C_R   0.491785 0.815113 0.536940 -0.062431
C4    C     C_R   0.508227 0.184888 0.463062 -0.062432
C5    C     C_R   0.572717 0.015294 0.364515 -0.190841
C6    C     C_R   0.427304 0.984709 0.635490 -0.190828
C7    C     C_R   0.564205 0.123214 0.368353 0.162752
C8    C     C_R   0.435823 0.876790 0.631655 0.162744
C9    C     C_R   0.462771 0.137839 0.550979 -0.297613
C10   C     C_R   0.537233 0.862162 0.449021 -0.297612
C11   C     C_R   0.472357 0.030788 0.546883 0.123860
C12   C     C_R   0.527654 0.969214 0.453118 0.123861
C13   C     C_R   0.378395 0.405373 0.017427 -0.330857
C14   C     C_R   0.621612 0.594620 0.982572 -0.330827
C15   C     C_R   0.389707 0.411910 0.139245 0.389668
C16   C     C_R   0.610312 0.588072 0.860750 0.389678
C17   C     C_R   0.553395 0.540798 0.158445 -0.021331
C18   C     C_R   0.446593 0.459214 0.841557 -0.021341
C19   C     C_R   0.544301 0.534106 0.035578 0.025909
C20   C     C_R   0.455689 0.465904 0.964423 0.025918
C21   C     C_R   0.262931 0.512455 0.502577 0.804286
C22   C     C_R   0.737068 0.487540 0.497421 0.804306
C23   C     C_R   0.128416 0.541342 0.723349 -0.136415
C24   C     C_R   0.871580 0.458635 0.276632 -0.136401
C25   C     C_R   0.076220 0.511664 0.818584 -0.171323
C26   C     C_R   0.923775 0.488312 0.181391 -0.171330
C27   C     C_R   0.963135 0.456097 0.802713 -0.162368
C28   C     C_R   0.036861 0.543880 0.197262 -0.162296
C29   C     C_R   0.897520 0.438281 0.693833 -0.124304
C30   C     C_R   0.102477 0.561699 0.306148 -0.124227
C31   C     C_R   0.944921 0.475526 0.598401 0.075806
C32   C     C_R   0.055076 0.524455 0.401585 0.075775
C33   C     C_R   0.068719 0.514262 0.609337 0.082620
C34   C     C_R   0.931278 0.485718 0.390649 0.082604
C35   C     C_R   0.872274 0.474361 0.493005 -0.238206
C36   C     C_R   0.127723 0.525624 0.506986 -0.238198
Cu1   Cu    Cu3+1 0.509250 0.507730 0.615930 0.922211
Cu2   Cu    Cu3+1 0.490750 0.492270 0.384070 0.922207
H1    H     H_    0.075438 0.570748 0.124504 0.131942
H2    H     H_    0.924556 0.429231 0.875468 0.131962
H3    H     H_    0.309290 0.351894 0.963902 0.145563
H4    H     H_    0.690735 0.648080 0.036094 0.145571
H5    H     H_    0.213436 0.588775 0.741547 0.158263
H6    H     H_    0.786559 0.411199 0.258435 0.158252
H7    H     H_    0.124568 0.530573 0.904419 0.133667
H8    H     H_    0.875424 0.469404 0.095553 0.133661
H9    H     H_    0.810588 0.393467 0.684705 0.155899
H10   H     H_    0.189407 0.606521 0.315278 0.155881
H11   H     H_    0.580167 0.814999 0.376659 0.153589
H12   H     H_    0.419832 0.185001 0.623339 0.153589
H13   H     H_    0.615540 0.967109 0.292876 0.133743
H14   H     H_    0.384489 0.032895 0.707132 0.133740
H15   H     H_    0.378291 0.405988 0.787096 0.135601
H16   H     H_    0.621694 0.594027 0.212907 0.135600
N1    N     N_R   0.523180 0.519350 0.790130 -0.181156
N2    N     N_R   0.476820 0.480650 0.209870 -0.181183
O1    O     O_R   0.506570 0.354460 0.582000 -0.587825
O2    O     O_R   0.493430 0.645540 0.418000 -0.587823
O3    O     O_R   0.490940 0.341410 0.386200 -0.589548
O4    O     O_R   0.509060 0.658590 0.613800 -0.589551
O5    O     O_R   0.327470 0.506520 0.597900 -0.589511
O6    O     O_R   0.672530 0.493480 0.402100 -0.589507
O7    O     O_R   0.311840 0.493460 0.402100 -0.587028
O8    O     O_R   0.688160 0.506540 0.597900 -0.586961
C37   C     C_3   0.380526 0.829730 0.726188 -0.843432
H17   H     H_    0.331464 0.888656 0.786590 0.216550
H18   H     H_    0.312326 0.765290 0.686554 0.224463
H19   H     H_    0.454620 0.799207 0.779102 0.250306
C38   C     C_3   0.619532 0.170278 0.273830 -0.843393
H20   H     H_    0.668617 0.111355 0.213436 0.216541
H21   H     H_    0.545447 0.200798 0.220898 0.250272
H22   H     H_    0.687727 0.234723 0.313485 0.224447
C39   C     C_3   0.698837 0.661127 0.817268 -0.801164
H23   H     H_    0.687074 0.742876 0.863592 0.189503
H24   H     H_    0.795281 0.639957 0.837418 0.213961
H25   H     H_    0.688821 0.662947 0.724487 0.278419
C40   C     C_3   0.301252 0.338776 0.182700 -0.800853
H26   H     H_    0.204729 0.359761 0.162328 0.213782
H27   H     H_    0.313286 0.256983 0.136493 0.189515
H28   H     H_    0.311135 0.337108 0.275557 0.278443

loop_
_geom_bond_atom_site_label_1
_geom_bond_atom_site_label_2
_ccdc_geom_bond_type
C27   C29   A    
C39   H23   S    
C19   C20   A    
C13   H3    S    
C21   C36   S    
C40   H26   S    
C22   C35   S    
C29   H9    S    
C32   C36   A    
C30   H10   S    
C24   C26   A    
C1    O3    A    
C2    O4    A    
C33   C36   A    
C23   H5    S    
C18   C20   A    
C34   C35   A    
C38   H21   S    
C18   H15   S    
Cu2   O2    S    
C37   H18   S    
C31   C33   A    
C21   O5    A    
C14   H4    S    
C8    C37   S    
C39   H24   S    
C4    C7    A    
C40   H27   S    
C16   C39   S    
C5    C12   A    
C3    C8    A    
C6    C11   A    
C5    C7    A    
C6    C8    A    
C28   H1    S    
C23   C33   A    
C24   C34   A    
C32   C34   A    
C38   H22   S    
Cu1   Cu2   S    
C1    O1    A    
C22   O6    A    
C27   H2    S    
C37   H19   S    
C9    C11   A    
C17   N2    A    
C10   C12   A    
C18   N1    A    
C13   C15   A    
C24   H6    S    
C39   H25   S    
C14   C16   A    
C25   H7    S    
Cu1   O8    S    
Cu2   O7    S    
C40   H28   S    
C13   C20   A    
C14   C19   A    
C9    H12   S    
C7    C38   S    
Cu1   O5    S    
C11   C12   A    
C2    O2    A    
C25   C27   A    
C26   C28   A    
C1    C4    S    
C15   N2    A    
C28   C30   A    
C2    C3    S    
C16   N1    A    
C29   C31   A    
C3    C10   A    
C30   C32   A    
C15   C40   S    
C17   C19   A    
C31   C35   A    
C23   C25   A    
C38   H20   S    
C21   O7    A    
Cu1   O4    S    
C26   H8    S    
C22   O8    A    
Cu2   O3    S    
Cu1   N1    S    
Cu2   N2    S    
C37   H17   S    
C5    H13   S    
C6    H14   S    
C4    C9    A    
C10   H11   S    
C17   H16   S    
Cu1   O1    S    
Cu2   O6    S    
