data_mof_unit_4786.cif
_audit_creation_date              2012-12-10T17:05:22-0500
_audit_creation_method            fapswitch 2.2
_symmetry_space_group_name_H-M    P1
_symmetry_Int_Tables_number       1
_space_group_crystal_system       triclinic
_cell_length_a                    10.009367
_cell_length_b                    10.744991
_cell_length_c                    15.512925
_cell_angle_alpha                 90.619708
_cell_angle_beta                  69.344375
_cell_angle_gamma                 90.581043
_cell_volume                      1561.04632539

loop_
_atom_site_label
_atom_site_type_symbol
_atom_type_description
_atom_site_fract_x
_atom_site_fract_y
_atom_site_fract_z
_atom_type_partial_charge
C1    C     C_R   0.501250 0.737373 0.499026 0.916583
C2    C     C_R   0.750654 0.481918 0.029835 0.013943
C3    C     C_R   0.606986 0.448271 0.079464 -0.098288
C4    C     C_R   0.412085 0.497999 0.675411 0.871110
C5    C     C_R   0.843201 0.511282 0.077747 0.455769
C6    C     C_R   0.790408 0.508242 0.174250 -0.381923
C7    C     C_R   0.550343 0.471610 0.174967 0.414735
C8    C     C_2   0.599430 0.067881 0.520545 -0.164046
C9    C     C_2   0.488148 0.131574 0.516275 -0.336442
C10   C     C_2   0.595234 0.933639 0.524221 -0.163281
C11   C     C_2   0.505317 0.869090 0.494311 -0.326430
C12   C     C_R   0.448355 0.430122 0.898898 0.067068
C13   C     C_2   0.108631 0.446422 0.436236 -0.292504
C14   C     C_2   0.954023 0.434128 0.441590 0.501105
C15   C     C_R   0.497371 0.262676 0.503661 0.936459
C16   C     C_R   0.588466 0.499377 0.324165 0.926443
C17   C     C_R   0.364585 0.471404 0.773415 -0.075708
C18   C     C_R   0.643742 0.493327 0.223121 -0.226930
C19   C     C_R   0.213723 0.354981 0.904605 -0.111462
C20   C     C_R   0.237344 0.406474 0.818282 -0.215674
C21   C     C_R   0.464718 0.488460 0.816234 -0.263539
C22   C     C_3   0.018300 0.660051 0.041475 0.064415
C23   C     C_R   0.318561 0.366001 0.945131 0.164628
C24   C     C_3   0.177873 0.683014 0.991796 -0.298249
C25   C     C_3   0.218165 0.818618 0.000768 -0.997197
C26   C     C_3   0.976862 0.243690 0.365026 0.071140
C27   C     C_3   0.069678 0.225697 0.264152 -0.346737
C28   C     C_3   0.145927 0.100953 0.247844 -0.994482
C29   C     C_3   0.346299 0.586155 0.198657 0.075606
C30   C     C_3   0.339343 0.689915 0.268448 -0.306505
C31   C     C_3   0.272424 0.807078 0.247676 -1.012446
C32   C     C_R   0.555677 0.438079 0.938427 0.071509
C33   C     C_R   0.518882 0.406104 0.031411 0.094523
C34   C     C_R   0.395021 0.334016 0.073897 -0.193689
C35   C     C_R   0.296193 0.313433 0.030798 -0.266440
C36   C     C_R   0.697947 0.475765 0.889050 -0.248535
C37   C     C_R   0.796096 0.490828 0.933763 -0.185968
H1    H     H_    0.386022 0.088557 0.524441 0.150488
H2    H     H_    0.992111 0.684907 0.115493 0.136225
H3    H     H_    0.957285 0.721202 0.011187 0.139206
H4    H     H_    0.239419 0.622446 0.021742 0.223613
H5    H     H_    0.206925 0.659054 0.917618 0.235871
H6    H     H_    0.162148 0.880693 0.967987 0.268675
H7    H     H_    0.335112 0.831287 0.965891 0.269566
H8    H     H_    0.189199 0.845215 0.074448 0.269375
H9    H     H_    0.696218 0.114139 0.520848 0.162315
H10   H     H_    0.669913 0.887543 0.549757 0.166014
H11   H     H_    0.887046 0.175912 0.381852 0.162383
H12   H     H_    0.433902 0.911420 0.464593 0.145294
H13   H     H_    0.037905 0.221224 0.410693 0.116460
H14   H     H_    0.001882 0.230829 0.220908 0.229366
H15   H     H_    0.149487 0.302181 0.243717 0.235684
H16   H     H_    0.220366 0.097897 0.286547 0.271788
H17   H     H_    0.208388 0.088408 0.173392 0.270050
H18   H     H_    0.067041 0.023658 0.270423 0.273937
H19   H     H_    0.235935 0.564230 0.201793 0.166938
H20   H     H_    0.405140 0.620069 0.127478 0.132521
H21   H     H_    0.274308 0.658277 0.338768 0.256272
H22   H     H_    0.448716 0.712916 0.266739 0.205382
H23   H     H_    0.190648 0.406363 0.376832 0.223471
H24   H     H_    0.338721 0.844442 0.179304 0.276690
H25   H     H_    0.266123 0.878335 0.301237 0.273159
H26   H     H_    0.162853 0.786949 0.248563 0.267307
H27   H     H_    0.115126 0.304589 0.938801 0.150777
H28   H     H_    0.557429 0.545846 0.782617 0.154748
H29   H     H_    0.376015 0.291844 0.140077 0.197583
H30   H     H_    0.737036 0.488893 0.815360 0.143884
H31   H     H_    0.070599 0.527990 0.558763 0.153203
H32   H     H_    0.877161 0.561222 0.541728 0.100637
H33   H     H_    0.863731 0.522871 0.210778 0.207881
H34   H     H_    0.905057 0.516804 0.893588 0.177814
H35   H     H_    0.159680 0.391014 0.785175 0.153377
H36   H     H_    0.200462 0.259791 0.065380 0.159633
N1    N     N_2   0.148330 0.498670 0.499030 -0.215912
N2    N     N_2   0.852680 0.498640 0.499000 -0.214165
O1    O     O_R   0.386950 0.680940 0.500010 -0.621975
O2    O     O_3   0.918918 0.364703 0.376614 -0.604269
O3    O     O_3   0.403642 0.476089 0.221298 -0.654481
O4    O     O_R   0.613110 0.680900 0.499990 -0.618524
O5    O     O_R   0.322330 0.500030 0.632270 -0.619058
O6    O     O_R   0.548480 0.499990 0.632240 -0.621294
O7    O     O_R   0.386890 0.319100 0.500010 -0.615068
O8    O     O_R   0.613050 0.319060 0.499990 -0.586033
O9    O     O_R   0.451520 0.500010 0.367760 -0.572340
O10   O     O_R   0.677670 0.499970 0.367730 -0.575349
O11   O     O_3   0.986862 0.533683 0.030330 -0.651200
Zn1   Zn    Zn3+2 0.349000 0.500030 0.500020 0.935883
Zn2   Zn    Zn3+2 0.651000 0.499970 0.499980 0.967636

loop_
_geom_bond_atom_site_label_1
_geom_bond_atom_site_label_2
_ccdc_geom_bond_type
C24   H5    S    
C31   H24   S    
C19   C20   A    
C1    C11   S    
O9    Zn1   S    
C25   H6    S    
C36   H30   S    
C13   H23   S    
C12   C23   A    
C26   C27   S    
C32   C36   A    
C36   C37   A    
C4    O5    A    
O5    Zn1   S    
C3    C7    A    
C26   H13   S    
C5    C6    A    
C3    C33   A    
H31   N1    S    
O7    Zn1   S    
C16   O9    A    
C17   C20   A    
C34   C35   A    
C14   O2    S    
C29   O3    S    
C8    C9    D    
N1    Zn1   S    
C26   H11   S    
O8    Zn2   S    
C13   C14   S    
C12   C32   A    
C24   H4    S    
C31   H25   S    
C34   H29   S    
C25   H7    S    
O4    Zn2   S    
C28   H18   S    
C27   H14   S    
C15   O7    A    
C6    C18   A    
C26   O2    S    
C4    O6    A    
C31   H26   S    
C24   C25   S    
C28   H17   S    
C15   O8    A    
C12   C21   A    
C17   C21   A    
C19   C23   A    
C29   C30   S    
C11   H12   S    
C19   H27   S    
C7    C18   A    
C22   H3    S    
C30   H22   S    
C33   C34   A    
O1    Zn1   S    
C7    O3    S    
C5    O11   S    
C16   C18   S    
C29   H20   S    
C23   C35   A    
C37   H34   S    
C16   O10   A    
C1    O4    A    
C22   C24   S    
C2    C5    A    
C4    C17   S    
C25   H8    S    
C10   H10   S    
C27   H15   S    
O10   Zn2   S    
C6    H33   S    
C35   H36   S    
C21   H28   S    
C1    O1    A    
C28   H16   S    
C29   H19   S    
C32   C33   A    
C2    C3    A    
C9    C15   S    
C14   N2    D    
C2    C37   A    
C30   C31   S    
C22   H2    S    
C30   H21   S    
C9    H1    S    
H32   N2    S    
C22   O11   S    
C8    H9    S    
O6    Zn2   S    
C10   C11   D    
N2    Zn2   S    
C13   N1    D    
C8    C10   S    
C27   C28   S    
C20   H35   S    
