data_mof_unit_1499.cif
_audit_creation_date              2013-03-05T15:49:41-0500
_audit_creation_method            fapswitch 2.2
_symmetry_space_group_name_H-M    P1
_symmetry_Int_Tables_number       1
_space_group_crystal_system       triclinic
_cell_length_a                    23.536182
_cell_length_b                    12.990484
_cell_length_c                    11.953827
_cell_angle_alpha                 100.178347
_cell_angle_beta                  92.005596
_cell_angle_gamma                 93.938279
_cell_volume                      3584.68978855

loop_
_atom_site_label
_atom_site_type_symbol
_atom_site_description
_atom_site_fract_x
_atom_site_fract_y
_atom_site_fract_z
_atom_type_partial_charge
O1    O     O_R   0.502990 0.354470 0.582000 -0.533901
O2    O     O_R   0.497010 0.645530 0.418000 -0.524789
O3    O     O_R   0.495870 0.341410 0.386200 -0.611653
O4    O     O_R   0.504130 0.658590 0.613800 -0.613058
C1    C     C_R   0.501608 0.299881 0.478648 0.822612
C2    C     C_R   0.499918 0.700088 0.521479 0.831236
O5    O     O_R   0.421440 0.506500 0.597920 -0.598206
O6    O     O_R   0.578560 0.493500 0.402080 -0.600272
O7    O     O_R   0.414320 0.493440 0.402120 -0.577274
O8    O     O_R   0.585680 0.506560 0.597880 -0.557340
C3    C     C_R   0.391600 0.496574 0.500604 0.787758
C4    C     C_R   0.608385 0.502002 0.498155 0.786725
Cu1   Cu    Cu3+1 0.504210 0.507730 0.615930 0.973911
Cu2   Cu    Cu3+1 0.495790 0.492270 0.384070 0.959276
C5    C     C_R   0.884764 0.584378 0.477913 0.531953
C6    C     C_R   0.114057 0.394064 0.467141 0.537489
N1    N     N_R   0.851079 0.494209 0.482315 -0.454352
N2    N     N_R   0.147805 0.486798 0.495268 -0.454379
C7    C     C_R   0.875838 0.401617 0.485807 0.539341
C8    C     C_R   0.122988 0.580620 0.521275 0.537095
C9    C     C_R   0.935066 0.396910 0.479199 -0.012745
C10   C     C_R   0.063715 0.583954 0.509746 -0.012582
C11   C     C_R   0.969485 0.490711 0.486346 -0.018676
C12   C     C_R   0.029324 0.489309 0.489725 -0.019161
C13   C     C_R   0.944260 0.585939 0.489806 -0.008027
C14   C     C_R   0.054576 0.393326 0.472887 -0.009121
C15   C     C_R   0.960712 0.301206 0.467328 -0.160243
C16   C     C_R   0.038105 0.679458 0.518239 -0.157680
C17   C     C_R   0.019781 0.299217 0.460519 -0.159208
C18   C     C_R   0.979010 0.680195 0.504507 -0.161587
O9    O     O_2   0.861144 0.672197 0.460102 -0.560011
O10   O     O_2   0.137414 0.302816 0.430994 -0.557452
O11   O     O_2   0.843749 0.314536 0.497939 -0.545410
O12   O     O_2   0.155239 0.670698 0.559795 -0.538778
H1    H     H_    0.935180 0.227559 0.460496 0.188623
H2    H     H_    0.063669 0.753564 0.532380 0.190328
H3    H     H_    0.038151 0.224079 0.448478 0.188440
H4    H     H_    0.960603 0.754863 0.508681 0.187483
C19   C     C_R   0.242068 0.563263 0.450687 -0.099819
C20   C     C_R   0.752878 0.416466 0.421087 -0.102990
H5    H     H_    0.221769 0.620812 0.411013 0.184193
H6    H     H_    0.769593 0.351477 0.365866 0.175920
C21   C     C_R   0.301278 0.567847 0.457925 -0.220956
C22   C     C_R   0.694001 0.417681 0.428951 -0.235173
H7    H     H_    0.325280 0.630847 0.427823 0.216482
H8    H     H_    0.666687 0.351698 0.383932 0.159787
C23   C     C_R   0.329396 0.490334 0.500143 -0.064228
C24   C     C_R   0.670372 0.504256 0.492056 -0.043781
C25   C     C_R   0.297289 0.403885 0.529446 0.094753
C26   C     C_R   0.706351 0.592884 0.542317 0.105986
C27   C     C_R   0.238158 0.408269 0.537253 -0.118258
C28   C     C_R   0.765247 0.583920 0.548578 -0.112108
H9    H     H_    0.214494 0.347467 0.571417 0.174872
H10   H     H_    0.792168 0.647805 0.598334 0.170616
C29   C     C_R   0.209526 0.486569 0.495557 0.284523
C30   C     C_R   0.789571 0.497456 0.484996 0.288259
C31   C     C_R   0.506194 0.813822 0.532743 -0.185140
C32   C     C_R   0.505875 0.186202 0.466686 -0.168707
C33   C     C_R   0.480293 0.013836 0.355487 0.190334
C34   C     C_R   0.558750 0.977989 0.622261 0.153941
C35   C     C_R   0.483428 0.122262 0.367141 -0.270015
C36   C     C_R   0.546766 0.869463 0.612517 -0.245367
C37   C     C_R   0.532354 0.141522 0.552974 0.297546
C38   C     C_R   0.477306 0.864978 0.456743 0.273397
C39   C     C_R   0.529804 0.030536 0.543575 -0.077569
C40   C     C_R   0.495843 0.968954 0.450902 -0.028257
H11   H     H_    0.568733 0.826253 0.667566 0.165455
H12   H     H_    0.467384 0.157029 0.298041 0.185985
N3    N     N_R   0.510550 0.519360 0.790130 -0.198091
N4    N     N_R   0.489450 0.480640 0.209870 -0.199711
C41   C     C_R   0.439510 0.412194 0.028322 -0.294540
C42   C     C_R   0.550242 0.605345 0.975776 -0.331468
C43   C     C_R   0.446468 0.415357 0.146056 0.340000
C44   C     C_R   0.549646 0.590958 0.856689 0.357918
C45   C     C_R   0.527792 0.536898 0.151624 0.294716
C46   C     C_R   0.471242 0.463688 0.846844 0.338344
C47   C     C_R   0.517998 0.538336 0.032705 -0.019661
C48   C     C_R   0.475919 0.470913 0.968705 0.001449
H13   H     H_    0.404416 0.362067 0.984709 0.173881
H14   H     H_    0.577745 0.669602 0.023402 0.167713
C49   C     C_3   0.421044 0.396056 0.784053 -0.337216
C50   C     C_3   0.365171 0.449908 0.805524 -0.854862
H15   H     H_    0.359487 0.477450 0.897279 0.249130
H16   H     H_    0.328115 0.394484 0.772797 0.237223
H17   H     H_    0.364146 0.519600 0.764087 0.283359
H18   H     H_    0.426746 0.374381 0.693808 0.244584
H19   H     H_    0.417860 0.317752 0.809194 0.184462
C51   C     C_3   0.586576 0.582209 0.202950 -0.329985
C52   C     C_3   0.587111 0.692990 0.272808 -0.766271
H20   H     H_    0.547091 0.730127 0.257564 0.257524
H21   H     H_    0.593760 0.691099 0.364508 0.253990
H22   H     H_    0.623052 0.743415 0.248838 0.211423
H23   H     H_    0.609269 0.526855 0.243304 0.215843
H24   H     H_    0.617581 0.585216 0.135756 0.151930
C53   C     C_3   0.595388 0.657122 0.811103 -0.381825
C54   C     C_3   0.654173 0.617615 0.831469 -0.802008
H25   H     H_    0.660207 0.602891 0.919667 0.243152
H26   H     H_    0.659521 0.543746 0.771426 0.288394
H27   H     H_    0.688276 0.677430 0.820515 0.224351
H28   H     H_    0.588348 0.661565 0.721708 0.233118
H29   H     H_    0.595253 0.739581 0.856382 0.161287
C55   C     C_3   0.404629 0.341836 0.194532 -0.365290
C56   C     C_3   0.403585 0.227703 0.132301 -0.903559
H30   H     H_    0.379145 0.216108 0.049435 0.260610
H31   H     H_    0.447628 0.204585 0.117622 0.263294
H32   H     H_    0.382136 0.174788 0.184029 0.247325
H33   H     H_    0.413543 0.338918 0.283631 0.254888
H34   H     H_    0.361126 0.369263 0.188104 0.196841
C57   C     C_3   0.322972 0.301410 0.537616 -0.440350
C58   C     C_3   0.305440 0.218523 0.432557 -0.759101
H35   H     H_    0.258467 0.200555 0.426218 0.279795
H36   H     H_    0.319120 0.246649 0.354424 0.243526
H37   H     H_    0.326198 0.145259 0.438441 0.257487
H38   H     H_    0.370072 0.310392 0.542883 0.191403
H39   H     H_    0.308553 0.271787 0.614270 0.213600
C59   C     C_3   0.684648 0.700748 0.574397 -0.454807
C60   C     C_3   0.705569 0.772357 0.493232 -0.790341
H40   H     H_    0.751995 0.794108 0.508850 0.279224
H41   H     H_    0.697591 0.732485 0.403431 0.260406
H42   H     H_    0.682754 0.845238 0.506569 0.240287
H43   H     H_    0.637495 0.697401 0.570634 0.183225
H44   H     H_    0.700258 0.736996 0.661746 0.209755
N5    N     N_R   0.421893 0.822557 0.407401 0.092015
O13   O     O_R   0.415020 0.732464 0.339011 -0.378670
O14   O     O_R   0.378589 0.879755 0.422846 -0.365604
N6    N     N_R   0.557722 0.209542 0.652267 0.098702
O15   O     O_R   0.603919 0.268345 0.644200 -0.371240
O16   O     O_R   0.528555 0.228696 0.743180 -0.394501
C61   C     C_3   0.464149 0.949655 0.237974 -0.340550
C62   C     C_3   0.506697 0.973263 0.150282 -0.869475
H45   H     H_    0.506318 0.055797 0.137738 0.256827
H46   H     H_    0.550430 0.958351 0.178238 0.256780
H47   H     H_    0.495165 0.921374 0.067199 0.254364
H48   H     H_    0.464299 0.864433 0.236454 0.240989
H49   H     H_    0.420713 0.966595 0.210416 0.225675
C63   C     C_3   0.604661 0.034330 0.710154 -0.305944
C64   C     C_3   0.642196 0.965650 0.768349 -0.904909
H50   H     H_    0.616764 0.922563 0.824255 0.248639
H51   H     H_    0.663039 0.910140 0.704316 0.261915
H52   H     H_    0.676148 0.016261 0.822696 0.265180
H53   H     H_    0.634240 0.083246 0.667126 0.239113
H54   H     H_    0.584077 0.084548 0.779385 0.258275

loop_
_geom_bond_atom_site_label_1
_geom_bond_atom_site_label_2
_geom_bond_distance
_ccdc_geom_bond_type
C37   C39   1.423132 A    
N6    O15   1.301655 A    
C15   C17   1.397217 A    
C3    C23   1.460478 S    
C53   C54   1.534613 S    
C4    C24   1.461858 S    
C25   C27   1.402474 A    
C41   H13   1.074260 S    
C49   C50   1.539849 S    
N5    O13   1.300318 A    
C23   C25   1.412754 A    
C47   C48   1.387186 A    
O5    C3    1.319286 A    
C64   H51   1.107396 S    
C42   C47   1.396960 A    
C59   H44   1.105708 S    
C1    C32   1.469033 S    
O1    C1    1.309451 A    
C26   C59   1.514425 S    
C7    C9    1.403906 A    
C12   C14   1.403541 A    
C60   H41   1.109903 S    
C33   C40   1.417717 A    
N5    O14   1.301417 A    
C54   H27   1.105814 S    
C13   C18   1.405482 A    
C59   C60   1.529256 S    
C18   H4    1.083133 S    
N3    C46   1.401367 A    
C34   C36   1.402041 A    
O4    Cu1   1.964531 S    
C45   C47   1.435720 A    
C58   H35   1.111277 S    
C63   H54   1.107163 S    
C61   H49   1.111333 S    
C19   C29   1.407032 A    
C22   H8    1.083822 S    
C20   C30   1.407602 A    
C54   H26   1.109655 S    
C26   C28   1.399525 A    
C11   C12   1.409003 A    
C55   H34   1.111516 S    
C52   H21   1.106664 S    
C34   C63   1.532099 S    
N2    C8    1.378362 A    
C49   H18   1.081209 S    
C8    O12   1.349296 S    
C32   C35   1.389756 A    
C24   C26   1.410520 A    
C9    C15   1.406011 A    
C10   C16   1.405475 A    
Cu1   Cu2   2.742409 S    
Cu2   N4    2.060405 S    
C2    C31   1.456420 S    
O2    C2    1.309452 A    
C28   H10   1.082091 S    
C6    C14   1.403478 A    
C64   H52   1.110599 S    
C51   H24   1.107884 S    
C33   C35   1.387219 A    
C59   H43   1.106691 S    
C28   C30   1.408576 A    
C31   C36   1.393382 A    
C42   C44   1.402077 A    
C7    O11   1.348839 S    
C60   H42   1.110231 S    
C41   C43   1.404178 A    
C53   H28   1.087867 S    
C19   C21   1.389759 A    
O6    Cu2   1.951105 S    
C15   H1    1.083072 S    
C27   H9    1.081829 S    
C38   C40   1.405043 A    
C62   H46   1.111267 S    
O7    Cu2   1.937877 S    
C63   H53   1.110318 S    
C21   H7    1.083128 S    
N1    C30   1.452476 S    
C20   C22   1.393182 A    
O6    C4    1.308446 A    
C54   H25   1.110324 S    
N4    C43   1.387073 A    
N3    C44   1.383650 A    
C56   H31   1.110122 S    
C52   H22   1.110834 S    
O7    C3    1.305247 A    
C58   H37   1.111118 S    
C49   H19   1.108956 S    
O3    Cu2   1.964531 S    
O8    C4    1.316870 A    
C57   H38   1.105091 S    
C36   H11   1.077964 S    
O4    C2    1.314636 A    
C43   C55   1.524475 S    
C8    C10   1.401421 A    
C34   C39   1.435534 A    
C39   C40   1.429352 A    
C50   H16   1.105628 S    
C9    C11   1.403965 A    
C10   C12   1.403507 A    
C62   H47   1.110759 S    
O1    Cu1   1.958327 S    
C50   H17   1.107343 S    
C55   H33   1.086078 S    
C56   H30   1.109184 S    
C31   C38   1.400524 A    
C25   C57   1.516367 S    
C61   C62   1.529904 S    
C32   C37   1.416151 A    
C5    N1    1.378586 A    
C51   H23   1.091937 S    
C33   C61   1.522485 S    
N6    O16   1.301662 A    
C44   C53   1.508061 S    
C19   H5    1.081936 S    
C46   C48   1.442900 A    
C63   C64   1.531326 S    
O3    C1    1.319394 A    
O8    Cu1   1.937875 S    
C46   C49   1.514409 S    
C5    O9    1.349262 S    
C6    O10   1.348747 S    
C38   N5    1.443985 S    
C64   H50   1.110125 S    
C16   C18   1.395675 A    
C62   H45   1.109108 S    
C42   H14   1.082567 S    
C57   C58   1.526954 S    
C35   H12   1.078098 S    
Cu1   N3    2.060405 S    
N2    C29   1.452750 S    
C20   H6    1.081707 S    
N1    C7    1.378546 A    
C56   H32   1.110908 S    
C27   C29   1.409602 A    
C11   C13   1.403219 A    
C55   C56   1.534961 S    
O2    Cu2   1.958325 S    
C58   H36   1.111308 S    
C37   N6    1.432945 S    
C5    C13   1.400934 A    
C57   H39   1.109665 S    
C61   H48   1.104258 S    
C53   H29   1.111788 S    
C45   C51   1.529123 S    
O5    Cu1   1.951105 S    
C51   C52   1.529875 S    
C16   H2    1.083111 S    
C14   C17   1.406133 A    
C6    N2    1.379090 A    
C50   H15   1.107745 S    
C17   H3    1.083085 S    
N4    C45   1.402312 A    
C52   H20   1.111133 S    
C60   H40   1.110555 S    
C21   C23   1.397967 A    
C41   C48   1.403261 A    
C22   C24   1.399499 A    
