data_mof_unit_4389.cif
_audit_creation_date              2013-03-05T16:46:56-0500
_audit_creation_method            fapswitch 2.2
_symmetry_space_group_name_H-M    P1
_symmetry_Int_Tables_number       1
_space_group_crystal_system       triclinic
_cell_length_a                    18.197768
_cell_length_b                    18.30706
_cell_length_c                    18.372157
_cell_angle_alpha                 120.109997
_cell_angle_beta                  89.903198
_cell_angle_gamma                 119.92529
_cell_volume                      4329.27381252

loop_
_atom_site_label
_atom_site_type_symbol
_atom_site_description
_atom_site_fract_x
_atom_site_fract_y
_atom_site_fract_z
_atom_type_partial_charge
Zn1   Zn    Zn3+2 0.456040 0.586770 0.543190 0.975869
Zn2   Zn    Zn3+2 0.456820 0.413240 0.543960 0.980145
Zn3   Zn    Zn3+2 0.631110 0.586750 0.543190 0.964202
Zn4   Zn    Zn3+2 0.456040 0.413240 0.369660 0.983646
O1    O     O_3   0.500000 0.500000 0.500000 -0.486132
O2    O     O_R   0.383400 0.268380 0.323710 -0.643346
O3    O     O_R   0.555060 0.731630 0.615290 -0.643795
O4    O     O_R   0.383950 0.439280 0.616600 -0.640645
O5    O     O_R   0.677590 0.560710 0.444390 -0.639170
O6    O     O_R   0.556370 0.439260 0.616600 -0.651986
O7    O     O_R   0.382640 0.439290 0.322940 -0.610573
O8    O     O_R   0.678360 0.560700 0.616060 -0.634569
O9    O     O_R   0.382640 0.560750 0.444390 -0.641854
O10   O     O_R   0.383400 0.560740 0.616060 -0.638237
O11   O     O_R   0.555060 0.439270 0.322940 -0.657226
O12   O     O_R   0.383950 0.268380 0.445700 -0.632720
O13   O     O_R   0.677590 0.731610 0.615290 -0.641520
C1    C     C_R   0.358454 0.219888 0.360504 0.819802
C2    C     C_R   0.641035 0.780853 0.640789 0.766337
C3    C     C_R   0.359107 0.500424 0.640471 0.806563
C4    C     C_R   0.640582 0.499895 0.359324 0.761659
C5    C     C_R   0.641966 0.500555 0.640355 0.789744
C6    C     C_R   0.357378 0.499108 0.359069 0.811843
C7    C     C_3   0.279123 0.419730 0.198655 0.202006
H1    H     H_    0.344287 0.450061 0.185730 0.099996
C8    C     C_3   0.215674 0.417312 0.140800 -0.511896
H2    H     H_    0.247598 0.433093 0.094073 0.162689
H3    H     H_    0.151532 0.339197 0.097943 0.228660
H4    H     H_    0.173406 0.395822 0.311484 0.222018
C9    C     C_3   0.209857 0.471512 0.321034 -0.405273
C10   C     C_3   0.348409 0.607159 0.320647 -0.515258
C11   C     C_3   0.299105 0.497776 0.300562 -0.020127
H5    H     H_    0.361040 0.664298 0.391570 0.253671
H6    H     H_    0.415525 0.631781 0.312170 0.150067
C12   C     C_3   0.197883 0.500194 0.200285 -0.042329
C13   C     C_3   0.150571 0.474879 0.263622 0.065814
C14   C     C_3   0.292323 0.606869 0.256709 0.113575
H7    H     H_    0.328292 0.614660 0.209092 0.106567
H8    H     H_    0.225479 0.529036 0.392635 0.182494
H9    H     H_    0.143896 0.538384 0.309245 0.203621
C15   C     C_3   0.694983 0.939088 0.645914 -0.391380
H10   H     H_    0.624203 0.905776 0.614318 0.205586
H11   H     H_    0.720401 0.911869 0.589728 0.155612
C16   C     C_3   0.753962 0.059508 0.706181 0.019192
H12   H     H_    0.809171 0.083553 0.678557 0.144317
H13   H     H_    0.594810 0.908257 0.755075 0.181462
H14   H     H_    0.682123 0.084750 0.848549 0.182624
C17   C     C_3   0.665928 0.937256 0.779668 -0.402680
C18   C     C_3   0.798434 0.939861 0.739243 -0.454109
C19   C     C_3   0.699091 0.896982 0.700049 0.117758
H15   H     H_    0.802164 0.913184 0.780885 0.187068
H16   H     H_    0.823872 0.908622 0.684422 0.178384
C20   C     C_3   0.799743 0.102505 0.804340 0.110417
C21   C     C_3   0.724937 0.056674 0.841011 -0.376994
C22   C     C_3   0.858806 0.059238 0.794165 0.046660
H17   H     H_    0.898758 0.077881 0.752641 0.146965
H18   H     H_    0.667886 0.907265 0.818897 0.154626
H19   H     H_    0.752695 0.083515 0.909481 0.160445
C23   C     C_3   0.639061 0.423621 0.201586 -0.382108
H20   H     H_    0.598084 0.447220 0.187715 0.193565
H21   H     H_    0.591726 0.344342 0.184298 0.173424
C24   C     C_3   0.698343 0.421225 0.142353 -0.360624
H22   H     H_    0.681921 0.341827 0.099774 0.168657
H23   H     H_    0.682577 0.437583 0.096445 0.222203
H24   H     H_    0.718747 0.633934 0.311913 0.200454
C25   C     C_3   0.760176 0.609562 0.323110 -0.446028
C26   C     C_3   0.756366 0.466710 0.317377 -0.404903
C27   C     C_3   0.697875 0.499935 0.301642 0.148928
H25   H     H_    0.799514 0.520405 0.388482 0.183325
H26   H     H_    0.712469 0.388164 0.302367 0.164427
C28   C     C_3   0.799471 0.499924 0.200197 0.073819
C29   C     C_3   0.822341 0.610791 0.265262 0.189734
C30   C     C_3   0.816333 0.466629 0.257611 -0.484654
H27   H     H_    0.801408 0.388075 0.213822 0.177324
H28   H     H_    0.888191 0.520108 0.300307 0.184874
H29   H     H_    0.802356 0.666361 0.394861 0.169377
H30   H     H_    0.892564 0.661484 0.311420 0.126064
H31   H     H_    0.430458 0.227652 0.687659 0.154233
C31   C     C_R   0.446986 0.174431 0.558810 -0.089415
H32   H     H_    0.514140 0.196971 0.582433 0.131621
C32   C     C_R   0.407756 0.128327 0.469088 -0.144698
H33   H     H_    0.445274 0.115425 0.423884 0.133993
C33   C     C_R   0.320986 0.099661 0.437621 0.032736
C34   C     C_R   0.272448 0.116843 0.497685 0.349286
C35   C     C_R   0.313237 0.162809 0.587820 -0.182050
H34   H     H_    0.278385 0.177768 0.635397 0.170640
C36   C     C_R   0.399832 0.191643 0.618037 -0.161818
C37   C     C_R   0.229422 0.944422 0.286442 -0.158519
H35   H     H_    0.216304 0.902504 0.316048 0.200735
C38   C     C_R   0.194556 0.891715 0.194610 -0.114738
C39   C     C_R   0.212874 0.946447 0.155802 -0.044325
C40   C     C_R   0.262608 0.053689 0.210647 0.133804
C41   C     C_R   0.300343 0.107157 0.303938 -0.093665
C42   C     C_R   0.283030 0.050966 0.341450 0.014840
C43   C     C_R   0.233635 0.870279 0.007047 -0.184473
H36   H     H_    0.294750 0.885607 0.038211 0.125523
C44   C     C_R   0.207588 0.827267 0.916008 -0.150925
H37   H     H_    0.248530 0.809081 0.877659 0.135808
C45   C     C_R   0.129523 0.808746 0.874864 0.286879
C46   C     C_R   0.076249 0.830620 0.925463 -0.212897
H38   H     H_    0.015506 0.816158 0.894690 0.133283
C47   C     C_R   0.102553 0.874166 0.016670 -0.117271
H39   H     H_    0.061926 0.892750 0.055294 0.150299
C48   C     C_R   0.181770 0.894972 0.058018 0.202600
H40   H     H_    0.972544 0.803148 0.609882 0.143029
C49   C     C_R   0.910135 0.652071 0.581671 -0.153364
H41   H     H_    0.925858 0.622201 0.520915 0.129329
C50   C     C_R   0.863679 0.588611 0.609928 -0.151285
H42   H     H_    0.843335 0.509496 0.570443 0.125099
C51   C     C_R   0.843338 0.627458 0.688799 0.144314
C52   C     C_R   0.870463 0.730358 0.739294 -0.138554
H43   H     H_    0.855210 0.761279 0.800309 0.119169
C53   C     C_R   0.916835 0.793437 0.710738 -0.134233
H44   H     H_    0.937395 0.872605 0.749652 0.122119
C54   C     C_R   0.936591 0.754274 0.631928 -0.086236
C55   C     C_R   0.842340 0.557488 0.772550 -0.260331
H45   H     H_    0.914477 0.599445 0.786452 0.173550
C56   C     C_R   0.800099 0.502263 0.808939 -0.041873
C57   C     C_R   0.706457 0.450008 0.792060 -0.019063
C58   C     C_R   0.656807 0.449532 0.735109 -0.266994
H46   H     H_    0.584821 0.408907 0.722153 0.176280
C59   C     C_R   0.698728 0.503617 0.698002 -0.041832
C60   C     C_R   0.793087 0.560763 0.718749 -0.013126
C61   C     C_R   0.605957 0.292989 0.789550 -0.143540
H47   H     H_    0.607436 0.246021 0.724100 0.125664
C62   C     C_R   0.550759 0.245513 0.826818 -0.148137
H48   H     H_    0.510458 0.162313 0.790656 0.155760
C63   C     C_R   0.546113 0.305248 0.909970 -0.141412
H49   H     H_    0.502839 0.268394 0.938442 0.135987
C64   C     C_R   0.596465 0.412516 0.955867 -0.131063
H50   H     H_    0.591329 0.458446 0.019367 0.166875
C65   C     C_R   0.652544 0.460392 0.919384 -0.098773
H51   H     H_    0.690115 0.543416 0.954837 0.147145
C66   C     C_R   0.657382 0.400747 0.835874 0.142690
C67   C     C_R   0.364501 0.779863 0.693034 -0.251108
H52   H     H_    0.425213 0.857073 0.725489 0.161845
C68   C     C_R   0.355633 0.721533 0.724494 -0.183236
H53   H     H_    0.409393 0.754063 0.780332 0.136671
C69   C     C_R   0.277960 0.621542 0.683812 0.107436
C70   C     C_R   0.208514 0.581095 0.612503 -0.194797
H54   H     H_    0.149264 0.503014 0.580553 0.165846
C71   C     C_R   0.215393 0.639699 0.581321 0.162964
C72   C     C_R   0.294911 0.740630 0.622093 0.305440
C73   C     C_R   0.213412 0.557693 0.772537 -0.250736
H55   H     H_    0.186048 0.602667 0.788680 0.176578
C74   C     C_R   0.194267 0.497390 0.804555 -0.040122
C75   C     C_R   0.228797 0.437177 0.781223 0.055679
C76   C     C_R   0.283900 0.441974 0.729233 -0.184363
H56   H     H_    0.310657 0.396349 0.712599 0.169019
C77   C     C_R   0.302875 0.502102 0.697023 -0.059083
C78   C     C_R   0.266476 0.560316 0.718502 0.017811
C79   C     C_R   0.271611 0.404119 0.883553 -0.206487
H57   H     H_    0.332692 0.481688 0.920177 0.139361
C80   C     C_R   0.255981 0.341900 0.912509 -0.120241
H58   H     H_    0.304930 0.371026 0.970471 0.138620
C81   C     C_R   0.177397 0.242286 0.866911 -0.159457
H59   H     H_    0.165266 0.194350 0.889784 0.154851
C82   C     C_R   0.114724 0.203862 0.791315 -0.189994
H60   H     H_    0.055084 0.125586 0.756233 0.153181
C83   C     C_R   0.129451 0.264722 0.760128 0.379773
C84   C     C_R   0.208911 0.367068 0.808122 0.013827
Zn5   Zn    Zn3+2 0.041710 0.413240 0.959030 0.987811
Zn6   Zn    Zn3+2 0.866640 0.413270 0.959030 0.975617
Zn7   Zn    Zn3+2 0.040930 0.586780 0.958260 0.982124
Zn8   Zn    Zn3+2 0.041710 0.586770 0.132560 1.046941
O14   O     O_3   0.997750 0.500010 0.002220 -0.495801
O15   O     O_R   0.942690 0.560750 0.179280 -0.637135
O16   O     O_R   0.114340 0.439270 0.886160 -0.642899
O17   O     O_R   0.820160 0.268410 0.886930 -0.652590
O18   O     O_R   0.113800 0.731630 0.056520 -0.649736
O19   O     O_R   0.819390 0.439310 0.886160 -0.636859
O20   O     O_R   0.115110 0.560720 0.179280 -0.605127
O21   O     O_R   0.941380 0.560750 0.885620 -0.646791
O22   O     O_R   0.115110 0.439270 0.057830 -0.646514
O23   O     O_R   0.942690 0.268390 0.886930 -0.615981
O24   O     O_R   0.114340 0.731630 0.178520 -0.609127
O25   O     O_R   0.820160 0.439310 0.057830 -0.642810
O26   O     O_R   0.113800 0.560730 0.885620 -0.649312
C85   C     C_R   0.857059 0.499586 0.142750 0.795480
C86   C     C_R   0.138291 0.499254 0.861392 0.801083
C87   C     C_R   0.856897 0.219007 0.862881 0.758399
C88   C     C_R   0.138460 0.779775 0.140988 0.844047
C89   C     C_R   0.855966 0.501060 0.863282 0.810629
C90   C     C_R   0.140311 0.500585 0.142804 0.832223
N1    N     N_R   0.243307 0.314594 0.171359 0.226693
O27   O     O_R   0.284327 0.272377 0.131861 -0.421584
O28   O     O_R   0.166296 0.258563 0.176677 -0.446597
N2    N     N_R   0.287165 0.696057 0.305696 0.235137
O29   O     O_R   0.261112 0.716663 0.375272 -0.359259
O30   O     O_R   0.314691 0.759783 0.282915 -0.400663
N3    N     N_2   0.707270 0.102334 0.698017 -0.289978
H61   H     H_    0.748252 0.175580 0.712881 0.228944
C91   C     C_3   0.623701 0.078591 0.716241 -0.684541
H62   H     H_    0.637740 0.140375 0.785375 0.228841
H63   H     H_    0.584376 0.003062 0.706587 0.246703
H64   H     H_    0.581724 0.075943 0.670033 0.247653
N4    N     N_2   0.926613 0.106321 0.875390 -0.270589
H65   H     H_    0.971779 0.086883 0.862226 0.217613
C92   C     C_3   0.903263 0.111791 0.952439 -0.740523
H66   H     H_    0.959801 0.131979 0.999061 0.237503
H67   H     H_    0.842889 0.036531 0.933042 0.226622
H68   H     H_    0.893883 0.174760 0.989351 0.230416
N5    N     N_R   0.818379 0.655056 0.218476 0.206120
O31   O     O_R   0.741984 0.620705 0.169925 -0.440519
O32   O     O_R   0.891943 0.733548 0.229222 -0.362729
N6    N     N_R   0.183281 0.089376 0.469400 0.210276
O33   O     O_R   0.155789 0.083902 0.400393 -0.361757
O34   O     O_R   0.131268 0.077803 0.517162 -0.343191
N7    N     N_2   0.269804 0.105462 0.170375 -0.278613
H69   H     H_    0.251457 0.156085 0.196627 0.298236
C93   C     C_3   0.339278 0.126613 0.129734 -0.635370
H70   H     H_    0.307965 0.091849 0.058942 0.240986
H71   H     H_    0.376286 0.094171 0.132360 0.194229
H72   H     H_    0.388249 0.211196 0.164568 0.266537
N8    N     N_2   0.105017 0.768937 0.783006 -0.331314
H73   H     H_    0.038766 0.736950 0.754459 0.232012
C94   C     C_3   0.165998 0.839066 0.762237 -0.732923
H74   H     H_    0.140230 0.804053 0.690332 0.266214
H75   H     H_    0.233552 0.855097 0.777188 0.245341
H76   H     H_    0.171435 0.912635 0.801095 0.238295
N9    N     N_2   0.060632 0.378673 0.213699 -0.311324
H77   H     H_    0.058091 0.312144 0.176696 0.277180
C95   C     C_3   0.996573 0.370544 0.261142 -0.819097
H78   H     H_    0.930070 0.296278 0.215708 0.240971
H79   H     H_    0.988602 0.434320 0.284423 0.242942
H80   H     H_    0.019145 0.373159 0.319083 0.266988
N10   N     N_R   0.305463 0.804986 0.594229 0.206733
O35   O     O_R   0.384524 0.869238 0.597724 -0.394885
O36   O     O_R   0.239971 0.811549 0.578836 -0.390422
N11   N     N_2   0.145075 0.593428 0.505485 -0.312827
H81   H     H_    0.161182 0.626982 0.471452 0.279240
C96   C     C_3   0.057543 0.561888 0.515586 -0.771136
H82   H     H_    0.008907 0.529005 0.453404 0.227023
H83   H     H_    0.061103 0.629194 0.571472 0.259125
H84   H     H_    0.032224 0.501577 0.528090 0.242795
N12   N     N_R   0.063468 0.221778 0.681153 0.211018
O37   O     O_R   0.085333 0.256289 0.632028 -0.351246
O38   O     O_R   0.982038 0.141623 0.653633 -0.427073

loop_
_geom_bond_atom_site_label_1
_geom_bond_atom_site_label_2
_geom_bond_distance
_ccdc_geom_bond_type
H31   C36   1.082184 S    
C25   C27   1.551072 S    
N5    O31   1.301107 A    
C41   C42   1.421133 A    
C55   C60   1.378404 A    
C43   H36   1.083073 S    
C30   H28   1.113278 S    
C15   H10   1.109747 S    
Zn7   O18   1.935426 S    
C75   C76   1.385155 A    
C39   C48   1.486109 S    
C22   H17   1.113036 S    
C63   H49   1.082383 S    
C31   C36   1.393651 A    
C44   H37   1.082930 S    
N1    O27   1.300845 A    
C95   H80   1.111253 S    
C67   H52   1.082868 S    
C20   C21   1.560586 S    
N12   O37   1.300822 A    
C94   H76   1.111749 S    
O24   C88   1.291407 A    
N5    O32   1.301121 A    
C8    H2    1.112495 S    
Zn8   O14   1.954383 S    
C49   C50   1.399147 A    
Zn1   O1    1.947825 S    
C95   H79   1.111267 S    
O19   C89   1.273851 A    
C81   H59   1.082534 S    
C12   C14   1.571061 S    
C14   H7    1.115442 S    
C76   C77   1.398118 A    
C74   C75   1.417671 A    
C73   C78   1.385152 A    
N8    C94   1.447045 S    
C16   N3    1.463630 S    
C23   C27   1.553870 S    
N6    O34   1.301696 A    
C71   N11   1.427092 S    
C14   N2    1.470718 S    
C49   H41   1.081415 S    
N4    H65   1.032216 S    
O8    C5    1.270737 A    
C50   H42   1.082965 S    
O9    C6    1.285299 A    
N2    O30   1.301241 A    
C30   H27   1.113261 S    
C28   C85   1.486062 S    
O7    C6    1.274002 A    
N4    C92   1.446580 S    
N10   O35   1.301418 A    
C56   C57   1.411688 A    
C40   C41   1.420350 A    
C24   H23   1.106045 S    
Zn3   O8    1.952611 S    
C29   H30   1.115455 S    
C32   C33   1.405285 A    
C51   C52   1.404754 A    
C16   C20   1.578745 S    
C25   C29   1.550576 S    
C38   C88   1.450099 S    
C3    C77   1.457166 S    
C65   H51   1.083167 S    
C91   H63   1.105698 S    
C9    C13   1.554276 S    
Zn6   O25   1.940737 S    
C92   H68   1.108828 S    
C10   H5    1.112862 S    
C26   C30   1.546767 S    
O16   C86   1.275176 A    
Zn6   O19   1.952466 S    
C80   C81   1.393470 A    
C79   C84   1.404471 A    
C91   H62   1.108722 S    
O23   C87   1.281906 A    
C18   H16   1.113742 S    
Zn8   O20   1.948964 S    
C17   C19   1.551254 S    
C23   H20   1.113633 S    
Zn8   O15   1.938878 S    
Zn5   O14   1.947825 S    
O18   C88   1.273531 A    
C82   C83   1.408380 A    
Zn7   O14   1.957739 S    
C15   H11   1.113584 S    
C40   N7    1.429130 S    
N11   H81   1.029215 S    
C96   H83   1.108108 S    
C44   C45   1.403686 A    
C58   C59   1.396058 A    
C5    C59   1.441582 S    
H13   C17   1.112075 S    
C20   C22   1.586746 S    
C70   H54   1.083011 S    
O2    C1    1.284561 A    
N7    H69   1.030854 S    
C37   C42   1.380064 A    
C23   H21   1.113721 S    
C57   C66   1.476879 S    
C35   C36   1.396098 A    
C26   C27   1.552401 S    
O10   C3    1.274759 A    
Zn1   O10   1.942269 S    
C17   H18   1.113026 S    
Zn6   O14   1.950850 S    
C34   C35   1.408603 A    
C95   H78   1.110378 S    
C73   C74   1.397600 A    
C75   C84   1.481508 S    
O22   C90   1.279889 A    
C39   C40   1.390786 A    
C31   C32   1.395022 A    
N6    O33   1.300879 A    
Zn4   O1    1.954383 S    
Zn5   O23   1.936434 S    
C18   H15   1.111997 S    
C12   C90   1.493885 S    
C35   H34   1.082845 S    
C33   C42   1.484263 S    
O6    C5    1.281769 A    
C96   H84   1.109366 S    
C32   H33   1.083416 S    
N3    H61   1.031679 S    
N2    O29   1.301399 A    
Zn8   O24   1.937176 S    
C12   C13   1.565143 S    
C17   C21   1.546761 S    
C64   C65   1.397711 A    
N8    H73   1.030093 S    
C7    C11   1.574480 S    
C93   H70   1.109733 S    
H4    C9    1.109161 S    
Zn3   O5    1.940737 S    
C20   C87   1.508760 S    
C51   C60   1.479252 S    
C69   C78   1.479464 S    
N9    H77   1.029978 S    
C68   C69   1.398813 A    
O20   C90   1.278231 A    
C33   C34   1.422163 A    
C13   H9    1.109862 S    
C57   C58   1.377440 A    
C91   H64   1.109295 S    
C25   H29   1.113506 S    
C34   N6    1.443069 S    
C24   H22   1.113820 S    
C46   C47   1.397936 A    
N3    C91   1.448634 S    
C10   H6    1.113409 S    
C74   C86   1.457577 S    
Zn7   O21   1.949034 S    
C52   C53   1.398197 A    
O4    C3    1.288938 A    
C7    H1    1.115925 S    
Zn4   O7    1.948968 S    
N11   C96   1.447058 S    
O17   C87   1.288998 A    
C80   H58   1.082292 S    
C55   C56   1.400350 A    
C29   N5    1.469051 S    
Zn5   O16   1.942168 S    
Zn4   O2    1.937221 S    
C93   H71   1.112013 S    
C37   C38   1.392666 A    
O15   C85   1.281059 A    
H24   C25   1.112674 S    
O3    C2    1.285133 A    
H14   C21   1.103695 S    
C4    C27   1.485391 S    
C82   H60   1.082018 S    
C15   C16   1.559523 S    
Zn2   O1    1.957590 S    
Zn1   O9    1.952364 S    
Zn2   O6    1.949136 S    
C15   C19   1.554317 S    
Zn7   O26   1.937360 S    
C58   H46   1.085001 S    
C70   C71   1.406166 A    
C28   C30   1.552767 S    
C53   H44   1.082545 S    
C21   H19   1.101522 S    
C9    H8    1.110374 S    
C67   C68   1.395497 A    
N7    C93   1.450597 S    
C23   C24   1.531458 S    
C62   C63   1.397324 A    
C52   H43   1.083118 S    
N10   O36   1.301108 A    
Zn1   O3    1.936536 S    
H40   C54   1.082272 S    
C10   C11   1.555063 S    
Zn2   O4    1.937315 S    
C16   H12   1.114390 S    
C7    C8    1.539758 S    
C79   C80   1.394834 A    
C73   H55   1.085074 S    
Zn3   O1    1.950850 S    
C63   C64   1.397445 A    
O26   C86   1.288621 A    
C69   C70   1.400130 A    
C43   C44   1.396819 A    
Zn5   O22   1.952262 S    
C61   C66   1.402847 A    
Zn2   O12   1.935529 S    
C94   H75   1.110472 S    
C68   H53   1.083189 S    
C8    H3    1.111484 S    
C77   C78   1.418348 A    
C45   C46   1.405434 A    
C47   C48   1.402071 A    
C49   C54   1.398041 A    
C26   H26   1.112958 S    
C6    C11   1.494099 S    
C61   C62   1.398880 A    
Zn4   O11   1.938881 S    
C81   C82   1.396130 A    
C64   H50   1.081950 S    
C94   H74   1.108378 S    
C28   C29   1.564043 S    
N9    C95   1.447206 S    
C72   N10   1.437409 S    
C18   C22   1.548217 S    
C83   C84   1.422153 A    
C43   C48   1.403596 A    
C9    C11   1.552614 S    
C2    C19   1.503958 S    
O5    C4    1.282674 A    
C38   C39   1.416391 A    
C22   N4    1.465256 S    
C50   C51   1.403346 A    
C45   N8    1.422098 S    
O25   C85   1.280462 A    
C62   H48   1.082154 S    
C65   C66   1.403060 A    
C55   H45   1.084782 S    
C67   C72   1.406107 A    
C46   H38   1.082372 S    
O13   C2    1.283834 A    
N12   O38   1.301298 A    
C24   C28   1.554615 S    
Zn3   O13   1.934985 S    
C92   H66   1.111219 S    
C76   H56   1.085031 S    
C47   H39   1.082991 S    
Zn6   O17   1.934984 S    
N1    O28   1.300593 A    
C31   H32   1.082137 S    
C56   C89   1.441768 S    
C10   C14   1.553701 S    
C8    C12   1.557761 S    
O11   C4    1.279259 A    
C93   H72   1.110104 S    
C37   H35   1.085060 S    
O21   C89   1.279076 A    
O12   C1    1.284779 A    
C18   C19   1.557011 S    
C83   N12   1.443820 S    
C92   H67   1.109391 S    
C1    C41   1.460079 S    
C71   C72   1.420021 A    
C7    N1    1.470346 S    
C79   H57   1.083410 S    
C26   H25   1.111002 S    
C59   C60   1.413517 A    
C13   N9    1.459522 S    
C96   H82   1.110258 S    
C61   H47   1.082407 S    
C53   C54   1.397713 A    
