data_mof_unit_3106.cif
_audit_creation_date              2013-03-05T15:49:56-0500
_audit_creation_method            fapswitch 2.2
_symmetry_space_group_name_H-M    P1
_symmetry_Int_Tables_number       1
_space_group_crystal_system       triclinic
_cell_length_a                    6.931536
_cell_length_b                    19.966838
_cell_length_c                    23.872567
_cell_angle_alpha                 93.616969
_cell_angle_beta                  90.891156
_cell_angle_gamma                 88.395033
_cell_volume                      3295.79413751

loop_
_atom_site_label
_atom_site_type_symbol
_atom_site_description
_atom_site_fract_x
_atom_site_fract_y
_atom_site_fract_z
_atom_type_partial_charge
O1    O     O_R   0.620100 0.812200 0.810870 -0.578407
O2    O     O_R   0.379900 0.187800 0.189130 -0.581471
O3    O     O_R   0.296960 0.671650 0.794750 -0.571967
O4    O     O_R   0.703040 0.328350 0.205250 -0.572118
O5    O     O_R   0.120160 0.687800 0.689130 -0.618219
O6    O     O_R   0.879840 0.312200 0.310870 -0.610287
C1    C     C_R   0.468590 0.647557 0.804989 1.034230
C2    C     C_R   0.531351 0.352471 0.195030 1.028934
O7    O     O_R   0.290810 0.810670 0.817290 -0.532829
O8    O     O_R   0.709190 0.189330 0.182710 -0.536837
O9    O     O_R   0.113980 0.827820 0.711840 -0.579216
O10   O     O_R   0.886020 0.172180 0.288160 -0.569202
C3    C     C_R   0.458399 0.831791 0.834089 1.059389
C4    C     C_R   0.541613 0.168197 0.165922 1.054139
O11   O     O_R   0.626290 0.672180 0.788160 -0.607302
O12   O     O_R   0.373710 0.327820 0.211840 -0.611056
O13   O     O_3   0.451520 0.755460 0.715370 -0.293759
O14   O     O_3   0.548480 0.244540 0.284630 -0.286531
V1    V     V_3+5 0.179200 0.748980 0.756420 1.293109
V2    V     V_3+5 0.820800 0.251020 0.243580 1.307920
O15   O     O_R   0.783880 0.828350 0.705250 -0.583534
O16   O     O_R   0.216120 0.171650 0.294750 -0.601113
C5    C     C_R   0.950236 0.852173 0.694327 1.023758
C6    C     C_R   0.049823 0.147577 0.305377 1.115382
O17   O     O_R   0.790030 0.689320 0.682700 -0.603332
O18   O     O_R   0.209970 0.310680 0.317300 -0.607205
C7    C     C_R   0.959653 0.668012 0.665754 0.934754
C8    C     C_R   0.040351 0.332001 0.334238 0.966656
V3    V     V_3+5 0.678400 0.751010 0.743570 1.250932
V4    V     V_3+5 0.321600 0.248990 0.256430 1.255320
O19   O     O_3   0.955950 0.744540 0.784620 -0.235884
O20   O     O_3   0.044050 0.255460 0.215380 -0.244505
C9    C     C_R   0.866743 0.425520 0.390045 -0.131431
C10   C     C_R   0.133263 0.574501 0.609943 -0.127949
C11   C     C_R   0.028683 0.381780 0.383330 -0.165714
C12   C     C_R   0.971340 0.618250 0.616653 -0.163949
C13   C     C_R   0.178931 0.386108 0.423417 -0.104080
C14   C     C_R   0.821130 0.613946 0.576553 -0.114190
C15   C     C_R   0.166603 0.432220 0.470292 0.154501
C16   C     C_R   0.833458 0.567835 0.529676 0.156720
C17   C     C_R   0.005386 0.476743 0.476371 0.055145
C18   C     C_R   0.994663 0.523307 0.523600 0.055136
C19   C     C_R   0.855736 0.474848 0.435122 -0.006883
C20   C     C_R   0.144295 0.525191 0.564855 -0.007162
C21   C     C_R   0.313060 0.433802 0.511417 -0.269148
C22   C     C_R   0.687005 0.566255 0.488550 -0.268892
C23   C     C_R   0.302094 0.478440 0.559256 0.318315
C24   C     C_R   0.697943 0.521603 0.440717 0.317976
H1    H     H_    0.749830 0.420580 0.359711 0.163466
H2    H     H_    0.250144 0.579415 0.640292 0.164212
H3    H     H_    0.303844 0.352395 0.418832 0.139242
H4    H     H_    0.696237 0.647668 0.581134 0.138053
H5    H     H_    0.434547 0.398557 0.507117 0.186101
H6    H     H_    0.565530 0.601505 0.492848 0.186381
C25   C     C_R   0.951124 0.912519 0.661321 -0.343942
C26   C     C_R   0.049193 0.086672 0.337530 -0.255825
C27   C     C_R   0.914596 0.034097 0.661911 0.588318
C28   C     C_R   0.087035 0.965257 0.337583 0.606626
C29   C     C_R   0.905184 0.974206 0.689302 -0.280897
C30   C     C_R   0.102533 0.025175 0.310400 -0.350731
C31   C     C_R   0.992809 0.909703 0.602913 0.527608
C32   C     C_R   0.992967 0.089428 0.394186 0.517623
C33   C     C_R   0.968750 0.969021 0.572468 -0.008464
C34   C     C_R   0.014369 0.030624 0.425723 -0.100005
C35   C     C_R   0.953259 0.031498 0.603959 -0.083340
C36   C     C_R   0.036972 0.968019 0.394800 -0.045380
C37   C     C_R   0.972497 0.969300 0.512077 -0.031320
C38   C     C_R   0.007899 0.030753 0.486077 -0.087435
C39   C     C_R   0.042545 0.089169 0.521595 0.303130
C40   C     C_R   0.937725 0.910989 0.476392 0.390410
C41   C     C_R   0.992646 0.090531 0.578134 -0.157915
C42   C     C_R   0.993959 0.909149 0.420329 -0.179606
H7    H     H_    0.004890 0.137241 0.603431 0.234801
H8    H     H_    0.984054 0.862388 0.394992 0.232748
H9    H     H_    0.144813 0.023567 0.266788 0.197675
H10   H     H_    0.871823 0.975928 0.733608 0.197148
C43   C     C_R   0.488167 0.587434 0.837470 -0.308111
C44   C     C_R   0.510749 0.412692 0.162664 -0.303762
C45   C     C_R   0.611511 0.472522 0.838747 0.357489
C46   C     C_R   0.367565 0.524756 0.160888 0.370398
C47   C     C_R   0.554716 0.528164 0.809391 -0.259234
C48   C     C_R   0.436357 0.470948 0.190549 -0.246941
C49   C     C_R   0.466392 0.590841 0.896386 0.271864
C50   C     C_R   0.531038 0.409405 0.103683 0.267806
C51   C     C_R   0.502337 0.531906 0.926673 -0.054666
C52   C     C_R   0.489313 0.467963 0.073347 -0.045749
C53   C     C_R   0.595352 0.475649 0.897887 -0.054879
C54   C     C_R   0.390127 0.523127 0.101993 -0.054763
C55   C     C_R   0.457612 0.527355 0.984950 0.101562
C56   C     C_R   0.535667 0.473071 0.015230 0.101388
C57   C     C_R   0.665177 0.427620 0.987043 -0.100772
C58   C     C_R   0.331607 0.573788 0.013348 -0.105431
C59   C     C_R   0.684854 0.426314 0.929273 -0.078039
C60   C     C_R   0.310249 0.574613 0.071000 -0.089094
H11   H     H_    0.779569 0.387956 0.909771 0.189094
H12   H     H_    0.225070 0.615480 0.090632 0.198665
H13   H     H_    0.415656 0.472218 0.235553 0.191452
H14   H     H_    0.570113 0.526257 0.764181 0.200717
H15   H     H_    0.754173 0.392360 0.008944 0.184560
H16   H     H_    0.246891 0.610455 0.991740 0.186777
C61   C     C_R   0.669821 0.066258 0.110354 0.376364
C62   C     C_R   0.330239 0.933657 0.889743 0.375998
C63   C     C_R   0.534421 0.120150 0.115743 -0.514533
C64   C     C_R   0.465593 0.879761 0.884324 -0.515042
C65   C     C_R   0.389503 0.127528 0.074331 0.609636
C66   C     C_R   0.610360 0.872288 0.925775 0.609647
C67   C     C_R   0.369629 0.077969 0.029509 -0.020436
C68   C     C_R   0.630019 0.921732 0.970710 -0.020135
C69   C     C_R   0.507808 0.024059 0.023257 -0.059792
C70   C     C_R   0.491847 0.975647 0.976970 -0.059055
C71   C     C_R   0.660455 0.018230 0.063602 -0.149185
C72   C     C_R   0.339260 0.981521 0.936605 -0.147627
C73   C     C_R   0.213598 0.082002 0.990775 0.479608
C74   C     C_R   0.785641 0.917521 0.009587 0.477321
C75   C     C_R   0.201800 0.035537 0.943910 0.155143
C76   C     C_R   0.797600 0.964096 0.056401 0.154993
N1    N     N_R   0.556108 0.344472 0.074695 0.197970
O21   O     O_R   0.433988 0.324989 0.035433 -0.365500
O22   O     O_R   0.698491 0.304288 0.087786 -0.400299
N2    N     N_R   0.446631 0.655939 0.925391 0.197627
O23   O     O_R   0.307171 0.697406 0.912471 -0.404943
O24   O     O_R   0.570745 0.674275 0.964471 -0.368558
N3    N     N_R   0.683259 0.413111 0.807732 0.247880
O25   O     O_R   0.783750 0.418301 0.762680 -0.303016
O26   O     O_R   0.622832 0.354375 0.818986 -0.310333
N4    N     N_R   0.270055 0.579660 0.191345 0.241607
O27   O     O_R   0.347946 0.606080 0.237204 -0.267725
O28   O     O_R   0.088548 0.592648 0.180832 -0.354042
N5    N     N_R   0.812537 0.060037 0.154002 0.251731
O29   O     O_R   0.977213 0.089145 0.150491 -0.333265
O30   O     O_R   0.764551 0.036548 0.201299 -0.386301
N6    N     N_R   0.188292 0.940171 0.845929 0.251713
O31   O     O_R   0.237117 0.964114 0.798892 -0.382772
O32   O     O_R   0.023648 0.910922 0.848977 -0.329908
O33   O     O_3   0.267243 0.183589 0.076534 -0.610645
H17   H     H_    0.336997 0.222669 0.093313 0.335803
O34   O     O_3   0.732835 0.816285 0.923449 -0.611136
H18   H     H_    0.663241 0.777219 0.906587 0.336297
O35   O     O_3   0.073564 0.132405 0.999575 -0.631807
H19   H     H_    0.957624 0.123802 0.975938 0.359826
O36   O     O_3   0.925166 0.866906 0.000867 -0.634035
H20   H     H_    0.038741 0.874109 0.025780 0.360479
N7    N     N_R   0.053103 0.046191 0.902787 0.251911
O37   O     O_R   0.880586 0.024664 0.910336 -0.396123
O38   O     O_R   0.079259 0.088798 0.864753 -0.294243
N8    N     N_R   0.946346 0.953569 0.097536 0.251399
O39   O     O_R   0.919483 0.911579 0.136005 -0.298833
O40   O     O_R   0.119307 0.974510 0.089660 -0.397099
N9    N     N_R   0.447556 0.473138 0.602558 0.239174
O41   O     O_R   0.624209 0.456028 0.589178 -0.375427
O42   O     O_R   0.397007 0.470757 0.654650 -0.354302
N10   N     N_R   0.552450 0.526892 0.397421 0.238794
O43   O     O_R   0.375842 0.544066 0.410803 -0.378385
O44   O     O_R   0.602941 0.529172 0.345314 -0.348387
O45   O     O_3   0.904037 0.148099 0.415473 -0.728275
H21   H     H_    0.813871 0.136650 0.445004 0.338654
O46   O     O_3   0.072799 0.852376 0.575903 -0.710455
H22   H     H_    0.083192 0.815475 0.601590 0.306732
O47   O     O_3   0.886926 0.095649 0.690998 -0.689071
H23   H     H_    0.862823 0.088549 0.731012 0.366495
O48   O     O_3   0.120689 0.903654 0.309140 -0.690936
H24   H     H_    0.152766 0.910688 0.269629 0.365164
N11   N     N_R   0.147728 0.144569 0.502921 0.259596
O49   O     O_R   0.299443 0.133209 0.471927 -0.378277
O50   O     O_R   0.111398 0.205350 0.523768 -0.337026
N12   N     N_R   0.823424 0.857105 0.493870 0.260954
O51   O     O_R   0.849691 0.796362 0.471666 -0.331436
O52   O     O_R   0.675316 0.870216 0.525993 -0.377307

loop_
_geom_bond_atom_site_label_1
_geom_bond_atom_site_label_2
_geom_bond_distance
_ccdc_geom_bond_type
C2    C44   1.472206 S    
C33   C35   1.417594 A    
O46   H22   0.988299 S    
C25   C29   1.394797 A    
O13   V3    1.703244 S    
C17   C18   1.416900 A    
C62   C72   1.426562 A    
N11   O49   1.301713 A    
O4    C2    1.296700 A    
V1    O19   1.703916 S    
C45   C53   1.415302 A    
O48   H24   0.991878 S    
C56   C57   1.406555 A    
O33   H17   0.989331 S    
C15   C17   1.411815 A    
C16   C22   1.400830 A    
C65   C67   1.418639 A    
O9    V1    1.992885 S    
N4    O27   1.301160 A    
C46   N4    1.435436 S    
C34   C38   1.442033 A    
C11   C13   1.404102 A    
C62   N6    1.434223 S    
N8    O39   1.300852 A    
O3    C1    1.296218 A    
N9    O42   1.301336 A    
C13   H3    1.084330 S    
C52   C54   1.425018 A    
C27   C29   1.402218 A    
C14   H4    1.084331 S    
C47   H14   1.084350 S    
C43   C49   1.414051 A    
C28   C30   1.404016 A    
N7    O37   1.300938 A    
C53   C59   1.400383 A    
C32   O45   1.380126 S    
C31   C33   1.432682 A    
C21   C23   1.405314 A    
C68   C74   1.416213 A    
C39   C41   1.396974 A    
O7    C3    1.296038 A    
C67   C73   1.415859 A    
C32   C34   1.437264 A    
C69   C71   1.426982 A    
C9    C11   1.407635 A    
O5    C7    1.297225 A    
O36   H20   0.987492 S    
O7    V1    2.004958 S    
C36   C42   1.399167 A    
C23   N9    1.439378 S    
C8    C11   1.489764 S    
O8    V2    2.004959 S    
C38   C39   1.421846 A    
C73   O35   1.387116 S    
O3    V1    1.993000 S    
C71   C76   1.423250 A    
O14   V4    1.703244 S    
V4    O20   2.149796 S    
C19   C24   1.420301 A    
C69   C70   1.426542 A    
O14   V2    2.151120 S    
C20   C23   1.420282 A    
C65   O33   1.383731 S    
C26   C32   1.410677 A    
C16   C18   1.411812 A    
C27   O47   1.382985 S    
C21   H5    1.084102 S    
C2    O12   1.290727 A    
C46   C54   1.415296 A    
N12   O52   1.301779 A    
C17   C19   1.418749 A    
C22   H6    1.084101 S    
C18   C20   1.418748 A    
C58   C60   1.385549 A    
N2    O24   1.301591 A    
O11   V3    1.999055 S    
N8    O40   1.300961 A    
C51   C53   1.423209 A    
O17   V3    1.995810 S    
C33   C37   1.442682 A    
C10   H2    1.080789 S    
C37   C38   1.438319 A    
C9    C19   1.413680 A    
C74   O36   1.387447 S    
N3    O25   1.301548 A    
C10   C20   1.413660 A    
C42   H8    1.083212 S    
C52   C56   1.439455 A    
C45   C47   1.394847 A    
C51   C55   1.439021 A    
C50   N1    1.438020 S    
C66   O34   1.383693 S    
C1    O11   1.290991 A    
C35   C41   1.399605 A    
O15   V3    2.004587 S    
C15   C21   1.400822 A    
C26   C30   1.394839 A    
C3    C64   1.487939 S    
C34   C36   1.417127 A    
C49   N2    1.437748 S    
C60   H12   1.080498 S    
C31   O46   1.384136 S    
C57   C59   1.386473 A    
C44   C48   1.393357 A    
O47   H23   0.991889 S    
C43   C47   1.393391 A    
V3    O19   2.149797 S    
O10   V2    1.992886 S    
O1    V3    1.995532 S    
C63   C65   1.409698 A    
N5    O30   1.301025 A    
C55   C58   1.405601 A    
C62   C64   1.408787 A    
N6    O32   1.301563 A    
C46   C48   1.392766 A    
C49   C51   1.433487 A    
N10   O44   1.301338 A    
O18   V4    1.995810 S    
O15   C5    1.296002 A    
C24   N10   1.439404 S    
O8    C4    1.295973 A    
N12   O51   1.301778 A    
C48   H13   1.084735 S    
O16   C6    1.295997 A    
O1    C3    1.297666 A    
O12   V4    1.999055 S    
C12   C14   1.404096 A    
N2    O23   1.301228 A    
C58   H16   1.077511 S    
C28   C36   1.411877 A    
N5    O29   1.301547 A    
V2    O20   1.703916 S    
N7    O38   1.300860 A    
N4    O28   1.301236 A    
O16   V4    2.004585 S    
N11   O50   1.301728 A    
C45   N3    1.438860 S    
C39   N11   1.439228 S    
C27   C35   1.410746 A    
C74   C76   1.411012 A    
O35   H19   0.987490 S    
C5    C25   1.480906 S    
C64   C66   1.409875 A    
O5    V1    2.000040 S    
C7    C12   1.489716 S    
C6    C26   1.478603 S    
O6    V2    2.000039 S    
O34   H18   0.989251 S    
O10   C6    1.295800 A    
C30   H9    1.084258 S    
O18   C8    1.300803 A    
C61   C63   1.408906 A    
C1    C43   1.471693 S    
O2    V4    1.995531 S    
C37   C40   1.422530 A    
N1    O22   1.301220 A    
C13   C15   1.405632 A    
N9    O41   1.301170 A    
C14   C16   1.405650 A    
C76   N8    1.433146 S    
C4    C63   1.487832 S    
C67   C69   1.422929 A    
C66   C68   1.418895 A    
C61   C71   1.426776 A    
C25   C31   1.425691 A    
O9    C5    1.295927 A    
O13   V1    2.151119 S    
C68   C70   1.422985 A    
N6    O31   1.300983 A    
C10   C12   1.407643 A    
C75   N7    1.433155 S    
O2    C4    1.297685 A    
C70   C72   1.427100 A    
C40   N12   1.440153 S    
N3    O26   1.301451 A    
O4    V2    1.992998 S    
C22   C24   1.405342 A    
C44   C50   1.414432 A    
O6    C8    1.297257 A    
N10   O43   1.301171 A    
C59   H11   1.081997 S    
C41   H7    1.083279 S    
O45   H21   0.990912 S    
C54   C60   1.400766 A    
C50   C52   1.434081 A    
C40   C42   1.397752 A    
C57   H15   1.077788 S    
C55   C56   1.429667 A    
N1    O21   1.301589 A    
C28   O48   1.382703 S    
C9    H1    1.080772 S    
C29   H10   1.084430 S    
C72   C75   1.423147 A    
C73   C75   1.410496 A    
O17   C7    1.300810 A    
C61   N5    1.434285 S    
