data_mof_unit_616.cif
_audit_creation_date              2012-12-11T15:35:56-0500
_audit_creation_method            fapswitch 2.2
_symmetry_space_group_name_H-M    P1
_symmetry_Int_Tables_number       1
_space_group_crystal_system       triclinic
_cell_length_a                    7.053687
_cell_length_b                    11.68053
_cell_length_c                    36.251211
_cell_angle_alpha                 89.963248
_cell_angle_beta                  90.968283
_cell_angle_gamma                 89.577255
_cell_volume                      2986.25770552

loop_
_atom_site_label
_atom_site_type_symbol
_atom_type_description
_atom_site_fract_x
_atom_site_fract_y
_atom_site_fract_z
_atom_type_partial_charge
O1    O     O_R   0.379730 0.148600 0.662710 -0.537801
O2    O     O_R   0.620270 0.851400 0.337290 -0.538410
O3    O     O_R   0.120270 0.648600 0.337290 -0.538244
O4    O     O_R   0.879730 0.351400 0.662710 -0.537569
O5    O     O_R   0.722480 0.134490 0.741330 -0.538290
O6    O     O_R   0.277520 0.865510 0.258670 -0.536909
O7    O     O_R   0.777520 0.634490 0.258670 -0.537065
O8    O     O_R   0.222480 0.365510 0.741330 -0.538364
O9    O     O_R   0.892880 0.345890 0.741600 -0.533756
O10   O     O_R   0.107120 0.654110 0.258400 -0.532348
O11   O     O_R   0.607120 0.845890 0.258400 -0.533223
O12   O     O_R   0.392880 0.154110 0.741600 -0.533059
C1    C     C_R   0.554362 0.110565 0.753606 0.697558
C2    C     C_R   0.446690 0.893063 0.247277 0.697799
C3    C     C_R   0.947361 0.607736 0.247054 0.697104
C4    C     C_R   0.052325 0.389906 0.753425 0.701101
O13   O     O_R   0.709490 0.135560 0.662990 -0.539763
O14   O     O_R   0.290510 0.864440 0.337010 -0.540814
O15   O     O_R   0.790510 0.635560 0.337010 -0.540238
O16   O     O_R   0.209490 0.364440 0.662990 -0.539952
C5    C     C_R   0.540548 0.108682 0.650593 0.693337
C6    C     C_R   0.459484 0.890381 0.349675 0.686393
C7    C     C_R   0.960142 0.609180 0.349553 0.685793
C8    C     C_R   0.039812 0.391159 0.650557 0.693050
O17   O     O_3   0.552800 0.316610 0.702160 -0.369777
O18   O     O_3   0.447200 0.683390 0.297840 -0.366430
O19   O     O_3   0.947200 0.816610 0.297840 -0.367270
O20   O     O_3   0.052800 0.183390 0.702160 -0.369892
V1    V     V_3+5 0.827630 0.234380 0.702160 1.404856
V2    V     V_3+5 0.172370 0.765620 0.297840 1.410735
V3    V     V_3+5 0.672370 0.734380 0.297840 1.408806
V4    V     V_3+5 0.327630 0.265620 0.702160 1.403221
C9    C     C_R   0.047541 0.649964 0.915234 0.535972
C10   C     C_R   0.938908 0.334797 0.088905 0.548378
C11   C     C_R   0.436560 0.171852 0.090435 0.548871
C12   C     C_R   0.470871 0.853299 0.915323 0.536670
O21   O     O_2   0.105581 0.541324 0.921319 -0.550247
O22   O     O_2   0.913869 0.448016 0.083111 -0.548474
O23   O     O_2   0.408397 0.059176 0.084585 -0.547933
O24   O     O_2   0.407845 0.961462 0.919774 -0.551499
N1    N     N_R   0.022075 0.690927 0.879711 -0.537111
N2    N     N_R   0.953457 0.292269 0.124296 -0.539046
N3    N     N_R   0.450833 0.213975 0.125866 -0.537842
N4    N     N_R   0.513972 0.811867 0.880676 -0.541562
C13   C     C_R   0.980497 0.806008 0.874885 0.570677
C14   C     C_R   0.967702 0.175526 0.129621 0.529984
C15   C     C_R   0.466064 0.330521 0.131265 0.527333
C16   C     C_R   0.557033 0.696423 0.877251 0.550351
C17   C     C_R   0.087426 0.654590 0.812782 -0.101180
C18   C     C_R   0.856773 0.343819 0.188176 -0.060614
C19   C     C_R   0.355507 0.161249 0.189832 -0.058170
C20   C     C_R   0.489312 0.846614 0.812122 -0.082330
C21   C     C_R   0.070429 0.588152 0.780452 0.021652
C22   C     C_R   0.866307 0.413658 0.219861 0.032372
C23   C     C_R   0.365410 0.089573 0.221195 0.029413
C24   C     C_R   0.523018 0.912721 0.780356 0.027353
C25   C     C_R   0.988866 0.426323 0.819028 -0.241789
C26   C     C_R   0.056029 0.548196 0.185227 -0.217644
C27   C     C_R   0.554339 0.955028 0.185761 -0.219920
C28   C     C_R   0.571352 0.076562 0.820573 -0.237697
C29   C     C_R   0.977745 0.498047 0.849690 -0.067151
C30   C     C_R   0.057812 0.472965 0.155328 -0.072787
C31   C     C_R   0.556766 0.032010 0.156339 -0.076212
C32   C     C_R   0.565541 0.005692 0.851531 -0.089551
C33   C     C_R   0.033646 0.613691 0.847717 0.370355
C34   C     C_R   0.954781 0.370330 0.155849 0.297493
C35   C     C_R   0.452948 0.135220 0.157288 0.301408
C36   C     C_R   0.518651 0.888668 0.848328 0.360067
C37   C     C_R   0.992409 0.839598 0.940900 -0.039431
C38   C     C_R   0.960394 0.142200 0.063428 -0.031976
C39   C     C_R   0.466838 0.363798 0.065089 -0.031838
C40   C     C_R   0.511731 0.664233 0.942544 -0.035317
C41   C     C_R   0.018981 0.721484 0.946046 -0.036237
C42   C     C_R   0.945214 0.261144 0.058154 -0.041944
C43   C     C_R   0.447579 0.245279 0.059709 -0.045320
C44   C     C_R   0.485276 0.782500 0.946847 -0.035704
C45   C     C_R   0.021032 0.677302 0.981876 -0.118430
C46   C     C_R   0.936254 0.304583 0.022267 -0.114596
C47   C     C_R   0.439173 0.202188 0.023732 -0.115605
C48   C     C_R   0.466545 0.827184 0.982431 -0.114373
C49   C     C_R   0.980499 0.882151 0.904851 -0.010660
C50   C     C_R   0.972052 0.099517 0.099557 0.003254
C51   C     C_R   0.475009 0.406551 0.101213 -0.000327
C52   C     C_R   0.540983 0.620758 0.907143 -0.012261
C53   C     C_R   0.039035 0.469752 0.784576 -0.052574
C54   C     C_R   0.957559 0.521224 0.217305 -0.080394
C55   C     C_R   0.455580 0.980999 0.217936 -0.078158
C56   C     C_R   0.547918 0.031550 0.785060 -0.045115
H1    H     H_    0.953600 0.336658 0.822009 0.119120
H2    H     H_    0.130709 0.628625 0.183142 0.129123
H3    H     H_    0.629168 0.874116 0.183260 0.129028
H4    H     H_    0.600326 0.166870 0.824303 0.114782
H5    H     H_    0.922726 0.461521 0.874587 0.151537
H6    H     H_    0.138664 0.496384 0.131570 0.154617
H7    H     H_    0.638258 0.009388 0.132514 0.153973
H8    H     H_    0.601845 0.044405 0.877629 0.158576
H9    H     H_    0.037190 0.586202 0.986751 0.156427
H10   H     H_    0.924834 0.395850 0.017267 0.155758
H11   H     H_    0.420502 0.111581 0.018647 0.157456
H12   H     H_    0.446731 0.918208 0.986717 0.155426
C57   C     C_R   0.981858 0.945933 0.038710 0.042133
C58   C     C_R   0.964033 0.035351 0.965610 0.046210
C59   C     C_R   0.509264 0.468850 0.967803 0.053333
C60   C     C_R   0.490650 0.559568 0.040313 0.043598
C61   C     C_R   0.956256 0.111280 0.996297 0.012587
C62   C     C_R   0.987705 0.869894 0.007998 0.017001
C63   C     C_R   0.490570 0.635189 0.009479 0.012696
C64   C     C_R   0.482231 0.393967 0.998149 0.010228
C65   C     C_R   0.965620 0.066121 0.032675 0.071010
C66   C     C_R   0.980652 0.915239 0.971652 0.072335
C67   C     C_R   0.504716 0.589191 0.973429 0.077833
C68   C     C_R   0.479517 0.439416 0.034405 0.074780
C69   C     C_R   0.995435 0.906302 0.075546 -0.149943
C70   C     C_R   0.958149 0.075268 0.928754 -0.144678
C71   C     C_R   0.541069 0.427666 0.931789 -0.138669
C72   C     C_R   0.502162 0.599628 0.077042 -0.147501
C73   C     C_R   0.991337 0.981489 0.105179 -0.106838
C74   C     C_R   0.966194 0.000185 0.899167 -0.107778
C75   C     C_R   0.557472 0.502290 0.902173 -0.110136
C76   C     C_R   0.495998 0.524516 0.106784 -0.110421
O25   O     O_2   0.979301 0.131307 0.163916 -0.568004
O26   O     O_2   0.930355 0.848054 0.841482 -0.546062
O27   O     O_2   0.622758 0.653146 0.845492 -0.546879
O28   O     O_2   0.474101 0.374467 0.165594 -0.568107
C77   C     C_R   0.002305 0.749375 0.012177 -0.164171
C78   C     C_R   0.941287 0.231680 0.992011 -0.164827
C79   C     C_R   0.456174 0.274762 0.993547 -0.162372
C80   C     C_R   0.472994 0.755517 0.013202 -0.165816
H13   H     H_    0.771090 0.267893 0.188585 0.169546
H14   H     H_    0.137710 0.740063 0.810592 0.136230
H15   H     H_    0.441690 0.761161 0.808548 0.135673
H16   H     H_    0.269939 0.237937 0.190650 0.169537
H17   H     H_    0.003405 0.946072 0.132761 0.151751
H18   H     H_    0.962767 0.035734 0.871548 0.150255
H19   H     H_    0.578633 0.466071 0.875045 0.144660
H20   H     H_    0.507006 0.559841 0.134359 0.151711
H21   H     H_    0.011636 0.817359 0.082729 0.114112
H22   H     H_    0.947419 0.164363 0.921462 0.107500
H23   H     H_    0.558277 0.337923 0.925683 0.105239
H24   H     H_    0.521455 0.688682 0.083769 0.115578
H25   H     H_    0.003097 0.707142 0.038558 0.139576
H26   H     H_    0.932664 0.273536 0.965599 0.130538
H27   H     H_    0.444434 0.234938 0.966802 0.140264
H28   H     H_    0.453951 0.796780 0.039471 0.141151
C81   C     C_R   0.969478 0.529969 0.380864 -0.029439
C82   C     C_R   0.030327 0.470609 0.619337 -0.030690
C83   C     C_R   0.532605 0.029093 0.619450 -0.030631
C84   C     C_R   0.468105 0.969079 0.381065 -0.027632
C85   C     C_R   0.936698 0.339041 0.405284 -0.164541
C86   C     C_R   0.060983 0.661820 0.595039 -0.165502
C87   C     C_R   0.562918 0.837443 0.595343 -0.165384
C88   C     C_R   0.448752 0.161115 0.405236 -0.165595
C89   C     C_R   0.939662 0.413348 0.375298 -0.195428
C90   C     C_R   0.057779 0.587409 0.625025 -0.194174
C91   C     C_R   0.561302 0.912157 0.625241 -0.195529
C92   C     C_R   0.450073 0.086623 0.375316 -0.195910
C93   C     C_R   0.994943 0.572814 0.416663 -0.217186
C94   C     C_R   0.006526 0.427799 0.583514 -0.217835
C95   C     C_R   0.507127 0.071783 0.583609 -0.217601
C96   C     C_R   0.486765 0.925553 0.416959 -0.217730
C97   C     C_R   0.987979 0.499642 0.447863 0.079395
C98   C     C_R   0.012704 0.501125 0.552360 0.079666
C99   C     C_R   0.513023 0.998229 0.552530 0.080003
C100  C     C_R   0.485637 0.999259 0.448056 0.080195
C101  C     C_R   0.959318 0.381025 0.441371 0.129796
C102  C     C_R   0.040080 0.619817 0.558900 0.128991
C103  C     C_R   0.539940 0.879294 0.559183 0.129043
C104  C     C_R   0.464964 0.118632 0.441408 0.129658
C105  C     C_R   0.005662 0.540119 0.485096 0.050384
C106  C     C_R   0.995222 0.460676 0.515129 0.050849
C107  C     C_R   0.495716 0.038669 0.515263 0.050958
C108  C     C_R   0.502726 0.958756 0.485326 0.050388
C109  C     C_R   0.968109 0.343512 0.506924 -0.194778
C110  C     C_R   0.032265 0.657318 0.493317 -0.195006
C111  C     C_R   0.527830 0.841257 0.493658 -0.195081
C112  C     C_R   0.473812 0.156378 0.506923 -0.195207
C113  C     C_R   0.950845 0.304982 0.470856 -0.194972
C114  C     C_R   0.048682 0.695889 0.529411 -0.193972
C115  C     C_R   0.546134 0.802835 0.529777 -0.194439
C116  C     C_R   0.459497 0.195080 0.470804 -0.195509
H29   H     H_    0.929139 0.214352 0.466018 0.139575
H30   H     H_    0.069567 0.786578 0.534269 0.139512
H31   H     H_    0.566660 0.711956 0.534718 0.139419
H32   H     H_    0.443382 0.286252 0.465849 0.139344
H33   H     H_    0.988104 0.336665 0.581121 0.097451
H34   H     H_    0.015268 0.663812 0.419018 0.097560
H35   H     H_    0.498269 0.833882 0.419458 0.096770
H36   H     H_    0.486600 0.162921 0.581148 0.097391
H37   H     H_    0.077872 0.620560 0.652678 0.112194
H38   H     H_    0.917688 0.380149 0.347734 0.112603
H39   H     H_    0.436417 0.120334 0.347640 0.111259
H40   H     H_    0.582959 0.879045 0.652904 0.113254
H41   H     H_    0.913653 0.248653 0.400290 0.128268
H42   H     H_    0.082576 0.752315 0.600076 0.128543
H43   H     H_    0.584759 0.746797 0.600460 0.129111
H44   H     H_    0.433603 0.252205 0.400096 0.128111
H45   H     H_    0.958471 0.278358 0.527779 0.130131
H46   H     H_    0.041468 0.722476 0.472450 0.130112
H47   H     H_    0.536144 0.775890 0.472840 0.130458
H48   H     H_    0.468198 0.221984 0.527694 0.130206
C117  C     C_3   0.796623 0.369041 0.256875 -0.363994
C118  C     C_3   0.784731 0.236475 0.259239 -0.295202
C119  C     C_3   0.783536 0.190056 0.298652 -0.763554
H49   H     H_    0.927735 0.190004 0.310755 0.226079
H50   H     H_    0.691994 0.241527 0.316688 0.224076
H51   H     H_    0.733877 0.100073 0.298487 0.212516
H52   H     H_    0.657304 0.207289 0.244474 0.205383
H53   H     H_    0.902146 0.193993 0.244706 0.209753
H54   H     H_    0.895584 0.398338 0.278900 0.158945
H55   H     H_    0.657475 0.408827 0.262850 0.184612
C120  C     C_3   0.066757 0.642961 0.741964 -0.399811
C121  C     C_3   0.058276 0.775734 0.741892 -0.274144
C122  C     C_3   0.052862 0.829160 0.703340 -0.779192
H56   H     H_    0.169725 0.796702 0.686303 0.221680
H57   H     H_    0.918110 0.812572 0.688657 0.220316
H58   H     H_    0.067358 0.923471 0.705823 0.224143
H59   H     H_    0.934509 0.806613 0.757431 0.224015
H60   H     H_    0.182416 0.810704 0.756532 0.196592
H61   H     H_    0.188914 0.611502 0.725992 0.176335
H62   H     H_    0.939155 0.611619 0.726958 0.176467
C123  C     C_3   0.540321 0.858011 0.742042 -0.401463
C124  C     C_3   0.554145 0.725294 0.741970 -0.266483
C125  C     C_3   0.560273 0.672730 0.703359 -0.788192
H63   H     H_    0.438332 0.701269 0.686121 0.222551
H64   H     H_    0.691047 0.694607 0.688948 0.222633
H65   H     H_    0.555154 0.577984 0.705671 0.225170
H66   H     H_    0.679248 0.696260 0.758326 0.223979
H67   H     H_    0.431803 0.687405 0.755572 0.198243
H68   H     H_    0.421021 0.887641 0.724161 0.173964
H69   H     H_    0.670192 0.891319 0.729128 0.178677
C126  C     C_3   0.299897 0.133259 0.258728 -0.371715
C127  C     C_3   0.283880 0.265674 0.261585 -0.291791
C128  C     C_3   0.279989 0.311047 0.301185 -0.751644
H70   H     H_    0.201144 0.393471 0.302008 0.206943
H71   H     H_    0.214727 0.249799 0.320339 0.220780
H72   H     H_    0.424639 0.329513 0.311387 0.218134
H73   H     H_    0.399792 0.308706 0.247163 0.207243
H74   H     H_    0.156092 0.295146 0.246786 0.203751
H75   H     H_    0.162755 0.093163 0.265447 0.186360
H76   H     H_    0.404004 0.103967 0.280037 0.163166

loop_
_geom_bond_atom_site_label_1
_geom_bond_atom_site_label_2
_ccdc_geom_bond_type
C26   C30   A    
C103  C115  A    
C107  C108  A    
C94   H33   S    
O1    C5    A    
C50   C73   A    
C96   C100  A    
O13   V1    S    
C117  C118  S    
O3    C7    A    
C125  H63   S    
C10   N2    A    
C40   C44   A    
C73   H17   S    
C11   N3    A    
C16   O27   S    
C28   C56   A    
C125  H65   S    
C122  H56   S    
C120  H62   S    
C7    C81   S    
C62   C77   A    
C11   C43   A    
C18   C22   A    
C64   C68   A    
C17   C33   A    
C61   C78   A    
C32   C36   A    
C126  H75   S    
O20   V1    S    
C18   H13   S    
O9    C4    A    
C2    C55   S    
O10   C3    A    
O16   V4    S    
C24   C123  S    
O4    C8    A    
O11   C2    A    
C113  H29   S    
C24   C56   A    
C121  H59   S    
C57   C65   A    
C86   C102  A    
C31   H7    S    
C101  C113  A    
C58   C61   A    
C59   C67   A    
C84   C96   A    
C87   H43   S    
C5    C83   S    
C85   C89   A    
C86   H42   S    
C47   C79   A    
C12   C44   A    
C85   H41   S    
C14   C50   A    
C64   C79   A    
C88   C92   A    
C77   H25   S    
C23   C55   A    
C98   C106  A    
C123  H69   S    
C46   H10   S    
C116  H32   S    
C105  C110  A    
C128  H71   S    
C14   O25   S    
C45   H9    S    
C59   C64   A    
C102  C114  A    
C15   C51   A    
C83   C91   A    
C128  H70   S    
C110  C114  A    
C86   C90   A    
C115  H31   S    
O4    V1    S    
C20   C36   A    
C108  C111  A    
O9    V1    S    
C97   C105  A    
O17   V4    S    
C122  H57   S    
C40   C67   A    
O15   V3    S    
O18   V3    S    
O8    C4    A    
C60   C72   A    
O12   V4    S    
O19   V2    S    
C127  H74   S    
C21   C53   A    
C124  C125  S    
C112  H48   S    
C26   C54   A    
C119  H50   S    
C117  H54   S    
C88   C104  A    
C95   H36   S    
C39   C51   A    
C89   H38   S    
C28   H4    S    
O17   V1    S    
C48   H12   S    
C119  H51   S    
C31   C35   A    
C110  H46   S    
O7    V3    S    
C118  C119  S    
C88   H44   S    
C107  C112  A    
C109  H45   S    
O8    V4    S    
C105  C106  A    
O16   C8    A    
C12   O24   S    
C85   C101  A    
C93   H34   S    
C32   H8    S    
C91   H40   S    
C22   C54   A    
C30   C34   A    
O15   C7    A    
C19   C35   A    
C99   C107  A    
C48   C80   A    
C19   C23   A    
C104  C116  A    
O19   V3    S    
C49   C74   A    
C78   H26   S    
O1    V4    S    
O13   C5    A    
C16   C52   A    
O2    V3    S    
C76   H20   S    
C51   C76   A    
O3    V2    S    
C59   C71   A    
C38   C42   A    
C123  C124  S    
C58   C70   A    
C38   C65   A    
C23   C126  S    
O6    C2    A    
C26   H2    S    
C37   C66   A    
O10   V2    S    
C120  C121  S    
C82   C90   A    
O20   V4    S    
C99   C103  A    
C21   C120  S    
C39   C68   A    
C81   C93   A    
C58   C66   A    
C79   H27   S    
O12   C1    A    
C37   C41   A    
C18   C34   A    
C111  H47   S    
C40   C52   A    
C25   H1    S    
C10   C42   A    
C3    C54   S    
C69   C73   A    
C100  C104  A    
C9    C41   A    
O6    V2    S    
C90   H37   S    
C71   H23   S    
O18   V2    S    
C96   H35   S    
C71   C75   A    
C118  H52   S    
C30   H6    S    
N2    C14   A    
O14   V2    S    
C95   C99   A    
C27   H3    S    
N4    C36   S    
C46   C78   A    
O5    V1    S    
C93   C97   A    
C117  H55   S    
C45   C77   A    
C60   C68   A    
C83   C95   A    
C62   C66   A    
C122  H58   S    
C47   H11   S    
C57   C62   A    
C100  C108  A    
C61   C65   A    
C70   C74   A    
N1    C13   A    
C10   O22   S    
C20   H15   S    
C63   C67   A    
C12   N4    A    
C13   C49   A    
C44   C48   A    
C6    C84   S    
N3    C15   A    
C74   H18   S    
C63   C80   A    
C111  C115  A    
C19   H16   S    
C125  H64   S    
C25   C29   A    
C82   C94   A    
C87   C103  A    
C13   O26   S    
C114  H30   S    
C22   C117  S    
C120  H61   S    
C17   H14   S    
C27   C31   A    
C87   C91   A    
C80   H28   S    
C28   C32   A    
C9    N1    A    
O14   C6    A    
C81   C89   A    
N4    C16   A    
C8    C82   S    
O2    C6    A    
C39   C43   A    
C15   O28   S    
C4    C53   S    
C121  H60   S    
C124  H66   S    
C52   C75   A    
C17   C21   A    
C11   O23   S    
O5    C1    A    
C1    C56   S    
O7    C3    A    
C127  C128  S    
C25   C53   A    
C9    O21   S    
C98   C102  A    
C69   H21   S    
C70   H22   S    
C29   C33   A    
N1    C33   S    
C57   C69   A    
C38   C50   A    
C128  H72   S    
C27   C55   A    
C75   H19   S    
C37   C49   A    
C127  H73   S    
C94   C98   A    
O11   V3    S    
C92   H39   S    
C72   C76   A    
C112  C116  A    
C121  C122  S    
N3    C35   S    
C124  H67   S    
C42   C46   A    
C123  H68   S    
C126  C127  S    
N2    C34   S    
C41   C45   A    
C126  H76   S    
C118  H53   S    
C84   C92   A    
C119  H49   S    
C109  C113  A    
C29   H5    S    
C43   C47   A    
C60   C63   A    
C97   C101  A    
C20   C24   A    
C72   H24   S    
C106  C109  A    
