data_mof_unit_1767.cif
_audit_creation_date              2013-03-05T15:43:15-0500
_audit_creation_method            fapswitch 2.2
_symmetry_space_group_name_H-M    P1
_symmetry_Int_Tables_number       1
_space_group_crystal_system       triclinic
_cell_length_a                    12.81249
_cell_length_b                    12.785393
_cell_length_c                    27.314192
_cell_angle_alpha                 90.198553
_cell_angle_beta                  90.021539
_cell_angle_gamma                 119.389415
_cell_volume                      3898.54084693

loop_
_atom_site_label
_atom_site_type_symbol
_atom_site_description
_atom_site_fract_x
_atom_site_fract_y
_atom_site_fract_z
_atom_type_partial_charge
O1    O     O_R   0.460870 0.120930 0.805240 -0.456224
O2    O     O_R   0.660060 0.539130 0.694760 -0.480989
O3    O     O_R   0.879070 0.339940 0.805240 -0.481460
O4    O     O_R   0.460870 0.120930 0.694760 -0.479181
O5    O     O_R   0.660060 0.539130 0.805240 -0.457983
O6    O     O_R   0.879070 0.339940 0.694760 -0.472649
O7    O     O_R   0.120930 0.460870 0.305240 -0.447354
O8    O     O_R   0.539130 0.660060 0.194760 -0.437228
O9    O     O_R   0.339940 0.879070 0.305240 -0.461240
O10   O     O_R   0.120930 0.460870 0.194760 -0.434185
O11   O     O_R   0.539130 0.660060 0.305240 -0.457686
O12   O     O_R   0.339940 0.879070 0.194760 -0.455604
O13   O     O_R   0.498910 0.350470 0.801870 -0.431025
O14   O     O_R   0.851560 0.501090 0.698130 -0.443820
O15   O     O_R   0.649530 0.148440 0.801870 -0.442699
O16   O     O_R   0.498910 0.350470 0.698130 -0.443107
O17   O     O_R   0.851560 0.501090 0.801870 -0.419729
O18   O     O_R   0.649530 0.148440 0.698130 -0.441967
O19   O     O_R   0.350470 0.498910 0.301870 -0.438279
O20   O     O_R   0.501090 0.851560 0.198130 -0.431872
O21   O     O_R   0.148440 0.649530 0.301870 -0.440002
O22   O     O_R   0.350470 0.498910 0.198130 -0.439794
O23   O     O_R   0.501090 0.851560 0.301870 -0.434792
O24   O     O_R   0.148440 0.649530 0.198130 -0.439507
C1    C     C_R   0.561656 0.457956 0.822701 0.568632
C2    C     C_R   0.890574 0.434321 0.676140 0.577856
C3    C     C_R   0.542489 0.102531 0.822324 0.566605
C4    C     C_R   0.561292 0.457478 0.677223 0.560061
C5    C     C_R   0.895531 0.437925 0.822933 0.582907
C6    C     C_R   0.541757 0.101655 0.678036 0.566012
C7    C     C_R   0.456143 0.559443 0.322138 0.558654
C8    C     C_R   0.438857 0.894405 0.177132 0.573063
C9    C     C_R   0.102988 0.544239 0.322159 0.572040
C10   C     C_R   0.455398 0.559818 0.177590 0.562403
C11   C     C_R   0.439234 0.895992 0.322685 0.568389
C12   C     C_R   0.104795 0.544894 0.177347 0.578514
C13   C     C_R   0.020173 0.487545 0.972195 -0.063873
C14   C     C_R   0.486568 0.005406 0.526607 -0.056038
C15   C     C_R   0.511180 0.526190 0.972920 -0.064640
C16   C     C_R   0.004526 0.479659 0.525681 -0.061681
C17   C     C_R   0.477116 0.985224 0.971942 -0.065392
C18   C     C_R   0.513761 0.521095 0.526113 -0.061074
C19   C     C_R   0.481609 0.991311 0.474966 -0.059667
C20   C     C_R   0.036185 0.499994 0.023670 -0.067522
C21   C     C_R   0.503160 0.524290 0.474550 -0.063350
C22   C     C_R   0.471028 0.969176 0.023467 -0.062038
C23   C     C_R   0.020037 0.492795 0.474223 -0.068319
C24   C     C_R   0.499809 0.529186 0.024445 -0.065659
C25   C     C_R   0.114762 0.703994 0.963510 -0.045441
C26   C     C_R   0.663458 0.983294 0.528706 -0.074735
C27   C     C_R   0.295934 0.399987 0.964724 -0.045098
C28   C     C_R   0.069891 0.692859 0.534196 -0.071421
C29   C     C_R   0.614079 0.906284 0.965767 -0.046631
C30   C     C_R   0.299921 0.396063 0.533088 -0.044522
C31   C     C_R   0.652075 0.957261 0.479110 -0.058557
C32   C     C_R   0.128889 0.716466 0.014135 -0.051827
C33   C     C_R   0.287671 0.399454 0.482738 -0.043100
C34   C     C_R   0.608520 0.890154 0.016419 -0.051586
C35   C     C_R   0.089646 0.707242 0.484044 -0.048823
C36   C     C_R   0.283889 0.403649 0.015211 -0.048922
C37   C     C_R   0.017122 0.575288 0.892828 0.399139
C38   C     C_R   0.589033 0.018662 0.603907 0.352133
C39   C     C_R   0.423905 0.431585 0.893972 0.374098
C40   C     C_R   0.001909 0.566615 0.605629 0.352162
C41   C     C_R   0.581104 0.001814 0.894634 0.366255
C42   C     C_R   0.424825 0.425257 0.604361 0.362329
C43   C     C_R   0.555933 0.942693 0.400766 0.358673
C44   C     C_R   0.099220 0.629217 0.095719 0.366114
C45   C     C_R   0.375695 0.460893 0.402172 0.358694
C46   C     C_R   0.540844 0.914722 0.096999 0.369626
C47   C     C_R   0.082343 0.623489 0.402872 0.363909
C48   C     C_R   0.372104 0.465608 0.096659 0.350737
C49   C     C_R   0.060694 0.528057 0.126173 0.021054
C50   C     C_R   0.467910 0.949810 0.372746 -0.000238
C51   C     C_R   0.472982 0.530386 0.126925 0.001026
C52   C     C_R   0.052145 0.524444 0.372153 0.012695
C53   C     C_R   0.465644 0.940592 0.126198 0.016322
C54   C     C_R   0.475839 0.528124 0.372211 0.002774
C55   C     C_R   0.510506 0.045094 0.628575 0.003498
C56   C     C_R   0.951562 0.460002 0.872778 -0.000722
C57   C     C_R   0.536385 0.489374 0.627162 -0.009557
C58   C     C_R   0.511035 0.043548 0.871499 -0.014085
C59   C     C_R   0.941376 0.452240 0.625685 0.000561
C60   C     C_R   0.537238 0.491572 0.872446 -0.012775
H1    H     H_    0.168817 0.805131 0.029720 0.198179
H2    H     H_    0.715911 0.936079 0.462341 0.257911
H3    H     H_    0.195007 0.355710 0.030603 0.202330
H4    H     H_    0.122071 0.796433 0.469121 0.221523
H5    H     H_    0.658229 0.851049 0.032501 0.209058
H6    H     H_    0.198773 0.355515 0.467280 0.204658
H7    H     H_    0.739909 0.992562 0.548458 0.269219
H8    H     H_    0.144220 0.783717 0.941353 0.227381
H9    H     H_    0.221453 0.353316 0.555416 0.233305
H10   H     H_    0.665457 0.876994 0.943925 0.231589
H11   H     H_    0.084667 0.769303 0.556549 0.245928
H12   H     H_    0.216402 0.350417 0.942473 0.220642
C61   C     C_R   0.052240 0.589614 0.942400 0.040935
C62   C     C_R   0.579072 0.001380 0.553238 0.008079
C63   C     C_R   0.409620 0.453222 0.943484 0.036103
C64   C     C_R   0.026578 0.580111 0.555397 0.015928
C65   C     C_R   0.557725 0.963898 0.943767 0.033196
C66   C     C_R   0.412368 0.446667 0.554755 0.029252
C67   C     C_R   0.563579 0.964071 0.451333 0.025437
C68   C     C_R   0.086963 0.615406 0.044735 0.047123
C69   C     C_R   0.388902 0.458909 0.452853 0.041878
C70   C     C_R   0.541885 0.926480 0.045951 0.040724
C71   C     C_R   0.063192 0.607798 0.453447 0.042782
C72   C     C_R   0.385214 0.464485 0.045669 0.039646
Cr1   Cr    Cr6+3 0.487630 0.241180 0.750000 1.207871
Cr2   Cr    Cr6+3 0.753550 0.512370 0.750000 1.211506
Cr3   Cr    Cr6+3 0.758820 0.246450 0.750000 1.196033
Cr4   Cr    Cr6+3 0.241180 0.487630 0.250000 1.212491
Cr5   Cr    Cr6+3 0.512370 0.753550 0.250000 1.219416
Cr6   Cr    Cr6+3 0.246450 0.758820 0.250000 1.201611
O25   O     O_3   0.666667 0.333333 0.750000 -0.362870
O26   O     O_3   0.333333 0.666667 0.250000 -0.356981
C73   C     C_R   0.940826 0.359726 0.900751 0.088944
C74   C     C_R   0.406546 0.032234 0.603430 0.106018
C75   C     C_R   0.633144 0.586638 0.899820 0.122839
C76   C     C_R   0.928092 0.351120 0.596792 0.115677
C77   C     C_R   0.409398 0.034928 0.897191 0.128630
C78   C     C_R   0.631236 0.586606 0.600694 0.099172
C79   C     C_R   0.390908 0.986645 0.395926 0.126549
C80   C     C_R   0.005101 0.411260 0.105243 0.184159
C81   C     C_R   0.592423 0.587511 0.393201 0.128229
C82   C     C_R   0.394231 0.984204 0.103514 0.137137
C83   C     C_R   0.996174 0.407067 0.392019 0.146792
C84   C     C_R   0.589091 0.589784 0.106014 0.169072
C85   C     C_R   0.973455 0.373488 0.950650 -0.068657
C86   C     C_R   0.398746 0.020959 0.551626 -0.062256
C87   C     C_R   0.622989 0.597663 0.950814 -0.075967
C88   C     C_R   0.966694 0.366977 0.547365 -0.051389
C89   C     C_R   0.400015 0.018113 0.948418 -0.076855
C90   C     C_R   0.622660 0.598301 0.549357 -0.049565
C91   C     C_R   0.395234 0.003662 0.447344 -0.055457
C92   C     C_R   0.999088 0.397353 0.053817 -0.061902
C93   C     C_R   0.605792 0.592593 0.445106 -0.048196
C94   C     C_R   0.394124 0.995053 0.052074 -0.061933
C95   C     C_R   0.989388 0.391510 0.443762 -0.049342
C96   C     C_R   0.602504 0.595552 0.054492 -0.060417
C97   C     C_R   0.963230 0.285452 0.031146 0.178828
C98   C     C_R   0.313118 0.029271 0.472281 0.173745
C99   C     C_R   0.714059 0.670021 0.031732 0.178854
C100  C     C_R   0.962073 0.281032 0.466322 0.169630
C101  C     C_R   0.316415 0.027698 0.027969 0.169485
C102  C     C_R   0.715179 0.671416 0.468977 0.186031
C103  C     C_R   0.310511 0.031000 0.523654 0.165630
C104  C     C_R   0.958597 0.276014 0.980226 0.167960
C105  C     C_R   0.718813 0.684227 0.520280 0.172982
C106  C     C_R   0.315494 0.032926 0.976994 0.166120
C107  C     C_R   0.961727 0.271713 0.518035 0.140983
C108  C     C_R   0.722013 0.676076 0.980752 0.165828
F1    F     F_    0.153725 0.742069 0.115225 -0.586876
F2    F     F_    0.630709 0.908790 0.379452 -0.563013
F3    F     F_    0.259727 0.408512 0.116342 -0.583236
F4    F     F_    0.133862 0.736255 0.384041 -0.585609
F5    F     F_    0.607914 0.870475 0.117681 -0.562362
F6    F     F_    0.263657 0.401824 0.382516 -0.582932
F7    F     F_    0.670219 0.002210 0.629793 -0.559867
F8    F     F_    0.046717 0.672602 0.864266 -0.528801
F9    F     F_    0.328872 0.344038 0.630334 -0.557014
F10   F     F_    0.671271 0.998454 0.869657 -0.544543
F11   F     F_    0.036563 0.664223 0.635063 -0.573994
F12   F     F_    0.328225 0.352703 0.866885 -0.546511
N1    N     N_R   0.950189 0.307945 0.136635 0.116106
O27   O     O_R   0.011320 0.255939 0.151008 -0.148907
O28   O     O_R   0.835205 0.258002 0.146224 -0.268141
N2    N     N_R   0.296973 0.990912 0.368745 -0.026312
O29   O     O_R   0.324116 0.077278 0.337196 -0.009414
O30   O     O_R   0.318566 0.072754 0.335879 -0.009599
N3    N     N_R   0.692937 0.644338 0.137507 0.111632
O31   O     O_R   0.739682 0.758203 0.149797 -0.143890
O32   O     O_R   0.754471 0.587785 0.145536 -0.265454
N4    N     N_R   0.933051 0.306392 0.359346 -0.085485
O33   O     O_R   0.985085 0.250112 0.340363 -0.000012
O34   O     O_R   0.985085 0.250101 0.340361 -0.000012
N5    N     N_R   0.310567 0.004967 0.131932 -0.035065
O35   O     O_R   0.347527 0.091958 0.164667 -0.005802
O36   O     O_R   0.351196 0.093658 0.164189 -0.005730
N6    N     N_R   0.695243 0.633540 0.361384 -0.087101
O37   O     O_R   0.748762 0.744819 0.346770 -0.000010
O38   O     O_R   0.748772 0.744825 0.346769 -0.000010
N7    N     N_R   0.302697 0.012140 0.631265 -0.044827
O39   O     O_R   0.283298 0.100383 0.642800 -0.000551
O40   O     O_R   0.283833 0.100778 0.642694 -0.000549
N8    N     N_R   0.885487 0.241236 0.880015 -0.038667
O41   O     O_R   0.949977 0.204730 0.856253 -0.001290
O42   O     O_R   0.948856 0.203477 0.856234 -0.001300
N9    N     N_R   0.733345 0.676554 0.627065 -0.041831
O43   O     O_R   0.836806 0.679138 0.624375 -0.004537
O44   O     O_R   0.837963 0.682577 0.625006 -0.004638
N10   N     N_R   0.311703 0.034493 0.871030 0.119619
O45   O     O_R   0.312478 0.134915 0.861311 -0.163102
O46   O     O_R   0.218374 0.932550 0.859375 -0.195619
N11   N     N_R   0.854637 0.230043 0.613630 -0.093877
O47   O     O_R   0.895636 0.181652 0.644399 -0.000510
O48   O     O_R   0.895863 0.181390 0.644576 -0.000511
N12   N     N_R   0.743335 0.669389 0.876300 0.126427
O49   O     O_R   0.828159 0.641659 0.870921 -0.213732
O50   O     O_R   0.759399 0.772687 0.860481 -0.189934
N13   N     N_R   0.939679 0.180979 0.058659 0.150597
O51   O     O_R   0.027842 0.157559 0.066403 -0.138038
O52   O     O_R   0.827004 0.096267 0.064844 -0.217794
N14   N     N_R   0.233027 0.057927 0.446171 0.133702
O53   O     O_R   0.272926 0.165835 0.429113 -0.247672
O54   O     O_R   0.117693 0.984815 0.447417 -0.149615
N15   N     N_R   0.820278 0.747345 0.059193 0.152505
O55   O     O_R   0.849458 0.861058 0.064546 -0.145513
O56   O     O_R   0.902852 0.715504 0.065323 -0.215413
N16   N     N_R   0.947712 0.181217 0.437331 0.130120
O57   O     O_R   0.844041 0.109129 0.417741 -0.258659
O58   O     O_R   0.038177 0.163191 0.429568 -0.144523
N17   N     N_R   0.232525 0.050700 0.054010 0.131374
O59   O     O_R   0.127269 0.961083 0.065787 -0.153517
O60   O     O_R   0.255785 0.163314 0.059820 -0.232320
N18   N     N_R   0.821072 0.747335 0.441742 0.131921
O61   O     O_R   0.890176 0.705892 0.426725 -0.273815
O62   O     O_R   0.855273 0.860757 0.436329 -0.164768
N19   N     N_R   0.223320 0.054661 0.545996 0.137736
O63   O     O_R   0.129958 0.968652 0.566926 -0.201815
O64   O     O_R   0.222647 0.153474 0.535921 -0.227490
N20   N     N_R   0.947670 0.168721 0.959442 0.130080
O65   O     O_R   0.841722 0.080597 0.949937 -0.233922
O66   O     O_R   0.036980 0.147169 0.963420 -0.177836
N21   N     N_R   0.815573 0.791342 0.541488 0.118194
O67   O     O_R   0.792609 0.857029 0.571488 -0.244585
O68   O     O_R   0.925515 0.831567 0.527018 -0.197473
N22   N     N_R   0.229997 0.059224 0.955339 0.149115
O69   O     O_R   0.258189 0.170888 0.950045 -0.236376
O70   O     O_R   0.118187 0.975891 0.952594 -0.145348
N23   N     N_R   0.972646 0.174274 0.540113 0.099935
O71   O     O_R   0.044297 0.196094 0.577084 -0.212767
O72   O     O_R   0.936548 0.072748 0.517312 -0.193202
N24   N     N_R   0.834079 0.762625 0.960581 0.149383
O73   O     O_R   0.920328 0.737247 0.958387 -0.240820
O74   O     O_R   0.859315 0.874175 0.957440 -0.164498

loop_
_geom_bond_atom_site_label_1
_geom_bond_atom_site_label_2
_geom_bond_distance
_ccdc_geom_bond_type
C20   C92   1.421857 A    
C16   C23   1.418549 A    
C33   C69   1.401372 A    
N3    O31   1.315848 A    
C11   C50   1.491002 S    
O16   C4    1.330130 A    
N1    O27   1.312417 A    
C47   C71   1.400940 A    
C75   N12   1.436890 S    
C105  N21   1.440700 S    
O6    Cr3   2.070227 S    
C42   C66   1.407680 A    
C96   C99   1.415986 A    
C41   C65   1.409981 A    
O4    Cr1   2.055246 S    
O19   C7    1.306365 A    
O17   Cr2   1.944949 S    
C77   N10   1.438708 S    
C17   C89   1.405212 A    
C20   C68   1.408298 A    
C43   C67   1.401081 A    
C24   C72   1.409962 A    
C74   N7    1.442592 S    
O24   Cr6   1.949216 S    
N3    O32   1.323986 A    
C2    C59   1.493952 S    
C83   C95   1.424682 A    
C7    C54   1.482375 S    
C43   F2    1.360505 S    
O9    Cr6   2.061596 S    
C14   C86   1.411347 A    
C100  N16   1.432455 S    
N21   O68   1.302207 A    
C97   N13   1.432294 S    
C100  C107  1.417741 A    
C73   N8    1.434600 S    
C40   F11   1.360096 S    
C47   C52   1.403133 A    
O9    C11   1.273209 A    
C108  N24   1.426547 S    
O5    Cr2   2.056325 S    
C94   C101  1.417152 A    
C55   C74   1.434057 A    
C31   C67   1.401983 A    
O17   C5    1.322915 A    
O7    Cr4   2.062851 S    
C28   H11   1.085377 S    
O3    C5    1.258517 A    
C51   C84   1.418044 A    
N13   O51   1.320087 A    
N9    O44   1.305595 A    
C104  N20   1.424668 S    
N4    O33   1.303692 A    
C78   C90   1.420596 A    
C85   C104  1.419939 A    
C39   C63   1.409345 A    
C97   C104  1.394368 A    
O1    Cr1   2.063240 S    
C8    C53   1.486330 S    
C38   C62   1.396620 A    
O15   C3    1.322995 A    
C91   C98   1.419565 A    
C99   N15   1.437245 S    
C48   C72   1.403798 A    
C29   C65   1.396350 A    
N5    O36   1.321549 A    
C41   F10   1.360514 S    
C1    C60   1.502344 S    
O13   Cr1   1.941283 S    
C17   C22   1.419589 A    
O10   Cr4   2.060270 S    
N12   O49   1.306290 A    
O18   C6    1.323716 A    
C73   C85   1.410350 A    
C58   C77   1.435539 A    
C101  C106  1.394480 A    
C36   C72   1.409293 A    
C14   C62   1.412779 A    
C27   H12   1.082795 S    
C22   C94   1.417622 A    
Cr5   O26   1.998744 S    
C45   C54   1.406440 A    
C83   N4    1.441205 S    
N2    O30   1.303790 A    
C50   C79   1.431948 A    
C16   C88   1.407858 A    
O11   C7    1.288580 A    
N1    O28   1.313363 A    
C48   F3    1.366271 S    
O12   C8    1.278177 A    
C46   C53   1.409028 A    
O7    C9    1.280516 A    
O13   C1    1.329846 A    
C87   C108  1.424285 A    
N20   O65   1.294655 A    
O23   C11   1.309216 A    
N24   O74   1.301638 A    
N13   O52   1.323835 A    
C48   C51   1.408442 A    
C18   C66   1.413445 A    
C13   C61   1.419676 A    
N22   O69   1.298052 A    
C41   C58   1.400753 A    
C36   H3    1.079994 S    
C21   C69   1.409940 A    
O16   Cr1   1.948420 S    
N21   O67   1.304333 A    
O12   Cr6   2.070038 S    
N17   O60   1.328272 A    
C27   C63   1.397088 A    
C39   F12   1.359430 S    
O22   C10   1.305611 A    
C107  N23   1.453080 S    
C26   C62   1.384317 A    
C76   N11   1.438383 S    
C106  N22   1.423118 S    
C33   H6    1.077583 S    
C24   C96   1.422463 A    
N15   O55   1.319032 A    
O15   Cr3   1.957017 S    
C93   C102  1.418972 A    
C52   C83   1.417915 A    
N18   O61   1.300828 A    
C32   C68   1.408270 A    
C44   F1    1.363385 S    
C46   C70   1.402290 A    
C37   F8    1.358071 S    
O3    Cr3   2.063331 S    
N19   O63   1.296454 A    
C80   C92   1.412575 A    
O2    C4    1.272843 A    
O20   Cr5   1.946364 S    
C81   C93   1.425419 A    
C44   C49   1.410515 A    
O19   Cr4   1.946212 S    
C90   C105  1.426120 A    
C75   C87   1.411955 A    
C28   C64   1.393611 A    
C35   C71   1.413971 A    
N11   O47   1.298968 A    
C42   F9    1.358607 S    
C79   C91   1.417331 A    
Cr6   O26   1.978556 S    
C34   C70   1.407982 A    
C18   C21   1.417530 A    
N10   O46   1.302753 A    
C59   C76   1.449174 A    
C99   C108  1.395892 A    
N20   O66   1.306420 A    
N7    O39   1.306425 A    
C40   C59   1.390236 A    
C92   C97   1.410663 A    
C74   C86   1.420302 A    
C28   C35   1.389513 A    
O23   Cr5   1.940109 S    
C102  C105  1.408387 A    
Cr3   O25   1.978723 S    
C95   C100  1.420699 A    
C38   C55   1.383166 A    
C9    C52   1.481354 S    
C15   C63   1.418634 A    
N17   O59   1.311983 A    
C49   C80   1.419126 A    
O14   C2    1.324723 A    
C81   N6    1.442425 S    
C21   C93   1.420254 A    
C45   F6    1.360809 S    
N23   O72   1.300642 A    
C43   C50   1.402325 A    
O8    C10   1.288181 A    
O18   Cr3   1.949956 S    
C19   C91   1.410908 A    
O8    Cr5   2.052565 S    
O5    C1    1.270356 A    
C79   N2    1.437621 S    
N2    O29   1.308709 A    
N14   O54   1.305027 A    
N16   O57   1.301776 A    
N16   O58   1.305224 A    
N22   O70   1.301667 A    
C101  N17   1.434238 S    
N24   O73   1.296867 A    
C6    C55   1.488989 S    
C25   H8    1.083764 S    
N8    O42   1.302725 A    
Cr4   O26   1.995288 S    
N6    O37   1.303972 A    
C78   N9    1.438698 S    
N15   O56   1.317639 A    
O20   C8    1.302042 A    
O14   Cr2   1.944911 S    
C56   C73   1.442273 A    
C35   H4    1.085117 S    
C45   C69   1.396361 A    
N6    O38   1.304043 A    
C29   H10   1.081755 S    
C76   C88   1.418593 A    
C98   C103  1.403980 A    
C30   C66   1.387928 A    
C3    C58   1.498100 S    
C37   C61   1.409372 A    
C89   C106  1.420825 A    
C44   C68   1.402161 A    
N18   O62   1.301792 A    
O21   Cr6   1.956925 S    
C19   C67   1.413829 A    
C16   C64   1.422882 A    
O10   C12   1.282366 A    
C29   C34   1.396187 A    
C25   C32   1.392918 A    
C57   C78   1.438432 A    
C23   C71   1.413435 A    
C26   C31   1.384285 A    
C30   H9    1.069989 S    
O24   C12   1.298058 A    
C18   C90   1.402668 A    
C46   F5    1.362554 S    
N10   O45   1.307261 A    
C31   H2    1.081170 S    
N7    O40   1.306377 A    
C4    C57   1.506359 S    
C14   C19   1.418819 A    
C42   C57   1.395962 A    
C32   H1    1.074853 S    
O6    C2    1.251501 A    
C5    C56   1.498814 S    
C15   C87   1.404095 A    
C13   C20   1.417897 A    
C60   C75   1.439947 A    
C102  N18   1.431616 S    
C47   F4    1.360248 S    
C22   C70   1.409842 A    
C82   C94   1.412400 A    
C17   C65   1.417333 A    
C82   N5    1.449321 S    
C86   C103  1.421531 A    
N19   O64   1.298084 A    
C84   C96   1.415575 A    
N9    O43   1.311780 A    
O11   Cr5   2.058455 S    
C34   H5    1.078167 S    
N4    O34   1.303830 A    
C103  N19   1.429280 S    
C12   C49   1.482336 S    
Cr1   O25   1.999380 S    
C25   C61   1.398859 A    
C80   N1    1.439162 S    
C26   H7    1.072311 S    
C40   C64   1.400206 A    
C10   C51   1.478953 S    
O21   C9    1.301704 A    
N14   O53   1.301637 A    
C84   N3    1.442517 S    
N5    O35   1.317797 A    
C23   C95   1.420058 A    
N23   O71   1.298599 A    
O1    C3    1.268275 A    
C88   C107  1.430541 A    
C38   F7    1.356999 S    
N12   O50   1.307870 A    
C27   C36   1.390841 A    
C37   C56   1.398900 A    
C77   C89   1.412579 A    
N8    O41   1.303333 A    
C54   C81   1.421125 A    
C39   C60   1.397560 A    
Cr2   O25   1.994488 S    
C13   C85   1.402940 A    
O4    C6    1.262426 A    
C53   C82   1.426441 A    
O22   Cr4   1.947708 S    
C98   N14   1.437402 S    
C15   C24   1.417256 A    
N11   O48   1.306238 A    
C30   C33   1.387379 A    
O2    Cr2   2.057406 S    
