data_mof_unit_4524.cif
_audit_creation_date              2012-12-11T14:27:35-0500
_audit_creation_method            fapswitch 2.2
_symmetry_space_group_name_H-M    P1
_symmetry_Int_Tables_number       1
_space_group_crystal_system       triclinic
_cell_length_a                    6.952295
_cell_length_b                    14.867806
_cell_length_c                    16.028615
_cell_angle_alpha                 90.803744
_cell_angle_beta                  90.438441
_cell_angle_gamma                 89.894879
_cell_volume                      1656.58978385

loop_
_atom_site_label
_atom_site_type_symbol
_atom_type_description
_atom_site_fract_x
_atom_site_fract_y
_atom_site_fract_z
_atom_type_partial_charge
O1    O     O_R   0.494510 0.415970 0.413200 -0.549399
O2    O     O_R   0.823800 0.407430 0.586200 -0.505067
O3    O     O_R   0.994130 0.584030 0.586800 -0.511170
C1    C     C_R   0.655127 0.384506 0.613306 0.819399
O4    O     O_R   0.824220 0.405090 0.413820 -0.547052
O5    O     O_R   0.994560 0.581670 0.413190 -0.543911
C2    C     C_R   0.654682 0.382997 0.385356 0.719311
O6    O     O_R   0.494090 0.418330 0.586810 -0.550738
O7    O     O_3   0.660810 0.557940 0.500000 -0.358855
V1    V     V_3+5 0.935650 0.489250 0.500000 1.507203
O8    O     O_R   0.324270 0.592570 0.413800 -0.548799
C3    C     C_R   0.154844 0.615093 0.386511 0.698539
O9    O     O_R   0.323850 0.594910 0.586180 -0.523605
C4    C     C_R   0.155456 0.616121 0.615382 0.748478
V2    V     V_3+5 0.435660 0.510750 0.500000 1.479420
O10   O     O_3   0.160630 0.442060 0.500000 -0.376886
C5    C     C_3   0.961238 0.711310 0.732438 0.451575
C6    C     C_3   0.073199 0.711358 0.816588 -0.360164
H1    H     H_    0.024927 0.679281 0.874954 0.142949
C7    C     C_3   0.118765 0.811984 0.805012 -0.223292
C8    C     C_3   0.002613 0.812406 0.721914 -0.160370
C9    C     C_3   0.186788 0.787007 0.672114 -0.329624
C10   C     C_3   0.300356 0.788038 0.755355 0.531578
C11   C     C_3   0.257005 0.687759 0.767421 0.437513
C12   C     C_3   0.145156 0.686037 0.684203 -0.236507
H2    H     H_    0.896928 0.864243 0.704689 0.174378
H3    H     H_    0.224298 0.816171 0.611198 0.151782
C13   C     C_2   0.988361 0.709512 0.280577 -0.099630
C14   C     C_2   0.148902 0.685949 0.322767 -0.258980
H4    H     H_    0.851970 0.678742 0.296175 0.126528
H5    H     H_    0.282879 0.721014 0.311936 0.175908
C15   C     C_2   0.984633 0.781332 0.216300 -0.187342
C16   C     C_2   0.129390 0.796940 0.162335 0.254701
H6    H     H_    0.852968 0.820525 0.212061 0.099948
C17   C     C_2   0.758744 0.186839 0.759949 0.298441
C18   C     C_2   0.619905 0.180756 0.817996 -0.417332
H7    H     H_    0.520733 0.236513 0.826909 0.081053
C19   C     C_2   0.789614 0.273039 0.714506 0.428299
C20   C     C_2   0.640549 0.307666 0.670872 -0.432237
H8    H     H_    0.500996 0.275044 0.674080 0.104313
C21   C     C_2   0.779629 0.208035 0.211268 -0.133986
C22   C     C_2   0.614999 0.179669 0.174453 -0.306070
H9    H     H_    0.915586 0.180032 0.190252 0.138026
H10   H     H_    0.477476 0.207114 0.193319 0.128168
C23   C     C_2   0.791213 0.276906 0.279812 -0.132082
C24   C     C_2   0.637919 0.314490 0.317849 -0.297182
H11   H     H_    0.934822 0.296639 0.299855 0.135109
H12   H     H_    0.493120 0.295577 0.299668 0.128120
O11   O     O_R   0.771000 0.074870 0.906030 -0.510809
O12   O     O_R   0.440710 0.088040 0.078970 -0.545721
O13   O     O_R   0.270540 0.911420 0.079570 -0.547339
C25   C     C_R   0.609697 0.110461 0.107226 0.734008
O14   O     O_R   0.441280 0.085700 0.906600 -0.551632
O15   O     O_R   0.271110 0.909060 0.905960 -0.543376
C26   C     C_R   0.609672 0.106948 0.878295 0.808086
O16   O     O_R   0.770430 0.077230 0.079640 -0.540588
O17   O     O_3   0.604340 0.935220 0.992820 -0.380202
V3    V     V_3+5 0.329430 0.003850 0.992770 1.409185
O18   O     O_R   0.941400 0.898110 0.906530 -0.521857
C27   C     C_R   0.109372 0.878988 0.875941 0.767035
O19   O     O_R   0.940830 0.900450 0.078910 -0.553681
C28   C     C_R   0.111865 0.874287 0.103154 0.594939
V4    V     V_3+5 0.829450 0.982250 0.992700 1.446247
O20   O     O_3   0.104410 0.051000 0.992740 -0.372858
O21   O     O_3   0.289426 0.739349 0.165572 -0.578978
C29   C     C_3   0.407975 0.740383 0.094450 0.113692
H13   H     H_    0.506980 0.798843 0.099205 0.161010
H14   H     H_    0.321890 0.741805 0.035470 0.104140
C30   C     C_3   0.532731 0.655727 0.092908 -0.325618
H15   H     H_    0.606604 0.648236 0.154209 0.201785
H16   H     H_    0.440134 0.595830 0.081696 0.191954
C31   C     C_3   0.684235 0.660620 0.024655 -0.816734
H17   H     H_    0.614367 0.671794 0.963118 0.266423
H18   H     H_    0.766790 0.596674 0.022063 0.225902
H19   H     H_    0.786088 0.716575 0.038039 0.228407
Cl1   Cl    Cl    0.901967 0.092565 0.732391 -0.752345
O22   O     O_3   0.966434 0.318075 0.713691 -0.558245
C32   C     C_3   0.092055 0.295467 0.780378 0.110382
H20   H     H_    0.231678 0.328678 0.768481 0.106827
H21   H     H_    0.126920 0.222868 0.780826 0.185367
C33   C     C_3   0.019374 0.329603 0.865687 -0.398386
H22   H     H_    0.041375 0.403293 0.870957 0.185861
H23   H     H_    0.863551 0.316823 0.872583 0.199105
C34   C     C_3   0.123117 0.283327 0.937528 -0.784394
H24   H     H_    0.088142 0.210651 0.936398 0.265957
H25   H     H_    0.074694 0.312813 0.997849 0.218760
H26   H     H_    0.281201 0.291288 0.932971 0.210786
Cl2   Cl    Cl    0.735147 0.663038 0.708902 -0.603060
O23   O     O_3   0.485341 0.826481 0.765395 -0.538077
C35   C     C_3   0.482991 0.918328 0.742311 0.149723
H27   H     H_    0.592004 0.953500 0.781508 0.148257
H28   H     H_    0.344146 0.952502 0.756615 0.120438
C36   C     C_3   0.537837 0.931015 0.650151 -0.358922
H29   H     H_    0.687950 0.955174 0.645898 0.221754
H30   H     H_    0.531057 0.866348 0.614865 0.216485
C37   C     C_3   0.409894 0.000797 0.607814 -0.752185
H31   H     H_    0.256785 0.979767 0.609090 0.244473
H32   H     H_    0.453870 0.008123 0.541814 0.224915
H33   H     H_    0.424776 0.067068 0.640154 0.251484
O24   O     O_3   0.399045 0.629398 0.798171 -0.517760
C38   C     C_3   0.333149 0.539917 0.799258 0.165188
H34   H     H_    0.366450 0.506193 0.738768 0.132111
H35   H     H_    0.175430 0.534765 0.810122 0.045173
C39   C     C_3   0.436441 0.490757 0.869779 -0.332600
H36   H     H_    0.397455 0.522496 0.930532 0.192192
H37   H     H_    0.389014 0.419927 0.870214 0.146046
C40   C     C_3   0.654533 0.491547 0.860318 -0.664751
H38   H     H_    0.720403 0.456948 0.914334 0.180173
H39   H     H_    0.710684 0.561224 0.859831 0.279630
H40   H     H_    0.696683 0.456351 0.801700 0.225757

loop_
_geom_bond_atom_site_label_1
_geom_bond_atom_site_label_2
_ccdc_geom_bond_type
C29   H14   S    
C8    H2    S    
C36   H29   S    
O11   V4    S    
C3    C14   S    
C5    Cl2   S    
C21   H9    S    
C21   C22   D    
C17   C18   D    
C34   H26   S    
C1    O6    A    
C39   H37   S    
C33   H22   S    
O17   V3    S    
C16   O21   S    
O15   C27   A    
O22   C32   S    
C38   H34   S    
C6    C11   S    
C18   H7    S    
C34   H25   S    
O5    C3    A    
C19   C20   D    
C32   H21   S    
C29   C30   S    
V2    O10   S    
C37   H33   S    
C30   H16   S    
C6    H1    S    
O19   V4    S    
O8    V2    S    
C16   C28   S    
C9    C12   S    
C37   H32   S    
O12   C25   A    
C40   H38   S    
C10   O23   S    
O1    V2    S    
C7    C27   S    
O7    V1    S    
C23   H11   S    
C29   H13   S    
O18   C27   A    
C36   H30   S    
C11   O24   S    
O9    C4    A    
C40   H39   S    
O19   C28   A    
O13   C28   A    
C22   H10   S    
C31   H19   S    
C39   H36   S    
C33   H23   S    
O17   V4    S    
O14   C26   A    
V3    O20   S    
C24   H12   S    
C17   Cl1   S    
O12   V3    S    
C2    C24   S    
C13   C15   S    
C17   C19   S    
C34   H24   S    
C31   H18   S    
C20   H8    S    
O4    C2    A    
C32   H20   S    
O11   C26   A    
C5    C8    S    
C15   H6    S    
C30   C31   S    
O2    C1    A    
C35   H28   S    
C7    C10   S    
C10   C11   S    
C37   H31   S    
C5    C6    S    
O16   V4    S    
O13   V3    S    
C11   C12   S    
O3    C4    A    
C36   C37   S    
C9    H3    S    
O9    V2    S    
C40   H40   S    
O2    V1    S    
C33   C34   S    
C35   C36   S    
O15   V3    S    
C13   C14   D    
O1    C2    A    
C31   H17   S    
O5    V1    S    
O14   V3    S    
C19   O22   S    
O6    V2    S    
C1    C20   S    
O18   V4    S    
C5    C12   S    
C15   C16   D    
C13   H4    S    
O7    V2    S    
O4    V1    S    
C14   H5    S    
O3    V1    S    
V1    O10   S    
C32   C33   S    
C35   H27   S    
O24   C38   S    
C6    C7    S    
C4    C12   S    
C30   H15   S    
V4    O20   S    
C23   C24   D    
C7    C8    S    
C38   H35   S    
O21   C29   S    
C18   C26   S    
C21   C23   S    
C9    C10   S    
C38   C39   S    
O23   C35   S    
C8    C9    S    
C39   C40   S    
C25   O16   A    
O8    C3    A    
C22   C25   S    
