data_mof_unit_4118.cif
_audit_creation_date              2012-12-11T15:47:00-0500
_audit_creation_method            fapswitch 2.2
_symmetry_space_group_name_H-M    P1
_symmetry_Int_Tables_number       1
_space_group_crystal_system       triclinic
_cell_length_a                    20.062373
_cell_length_b                    7.277978
_cell_length_c                    13.573566
_cell_angle_alpha                 90.0
_cell_angle_beta                  102.636711
_cell_angle_gamma                 89.999951
_cell_volume                      1933.91544662

loop_
_atom_site_label
_atom_site_type_symbol
_atom_type_description
_atom_site_fract_x
_atom_site_fract_y
_atom_site_fract_z
_atom_type_partial_charge
O1    O     O_R   0.449560 0.506810 0.599700 -0.492682
O2    O     O_R   0.550440 0.006810 0.400300 -0.492681
O3    O     O_R   0.587960 0.180060 0.595760 -0.511801
O4    O     O_R   0.412040 0.680060 0.404240 -0.511802
C1    C     C_R   0.616283 0.343587 0.613270 0.829322
C2    C     C_R   0.383717 0.843588 0.386729 0.829280
O5    O     O_R   0.452380 0.177430 0.611700 -0.553020
O6    O     O_R   0.547620 0.677430 0.388300 -0.553014
O7    O     O_R   0.413900 0.001890 0.416350 -0.537228
O8    O     O_R   0.586100 0.501890 0.583650 -0.537226
C3    C     C_R   0.437228 0.346616 0.639272 0.859349
C4    C     C_R   0.562772 0.846616 0.360728 0.859358
O9    O     O_3   0.487530 0.337490 0.435890 -0.365612
O10   O     O_3   0.512470 0.837490 0.564110 -0.365610
V1    V     V_3+5 0.502310 0.064660 0.511890 1.747761
V2    V     V_3+5 0.497690 0.564660 0.488110 1.747768
C5    C     C_R   0.611274 0.976932 0.112661 0.356336
C6    C     C_R   0.388726 0.476932 0.887338 0.356334
H1    H     H_    0.709370 0.124234 0.025830 0.191201
H2    H     H_    0.290630 0.624234 0.974170 0.191201
C7    C     C_R   0.599344 0.862064 0.277471 -0.207728
C8    C     C_R   0.400656 0.362064 0.722529 -0.207726
C9    C     C_R   0.926506 0.758825 0.306098 -0.161318
C10   C     C_R   0.073494 0.258825 0.693902 -0.161321
C11   C     C_R   0.887385 0.707702 0.374343 -0.097753
C12   C     C_R   0.112615 0.207701 0.625657 -0.097750
C13   C     C_R   0.817299 0.741279 0.353183 -0.092061
C14   C     C_R   0.182701 0.241278 0.646817 -0.092034
C15   C     C_R   0.784612 0.833197 0.263532 0.113477
C16   C     C_R   0.215388 0.333196 0.736468 0.113487
C17   C     C_R   0.826144 0.894620 0.197105 0.062891
C18   C     C_R   0.173856 0.394619 0.802895 0.062887
C19   C     C_R   0.712222 0.863955 0.236683 0.028399
C20   C     C_R   0.287778 0.363955 0.763317 0.028417
C21   C     C_R   0.683254 0.955584 0.144759 -0.070628
C22   C     C_R   0.316746 0.455584 0.855241 -0.070631
C23   C     C_R   0.727285 0.031684 0.088122 -0.070765
C24   C     C_R   0.272715 0.531683 0.911878 -0.070760
C25   C     C_R   0.796485 0.996829 0.111511 -0.226681
C26   C     C_R   0.203515 0.496829 0.888489 -0.226679
C27   C     C_R   0.668047 0.810522 0.299150 -0.201451
C28   C     C_R   0.331953 0.310522 0.700850 -0.201421
C29   C     C_R   0.569825 0.949985 0.184532 0.373587
C30   C     C_R   0.430175 0.449985 0.815468 0.373588
C31   C     C_R   0.896631 0.851432 0.217139 -0.086793
C32   C     C_R   0.103369 0.351432 0.782861 -0.086792
H3    H     H_    0.686668 0.743042 0.370494 0.160550
H4    H     H_    0.313332 0.243042 0.629505 0.160539
H5    H     H_    0.980141 0.722062 0.321513 0.148071
H6    H     H_    0.019859 0.222061 0.678487 0.148069
H7    H     H_    0.790405 0.691741 0.408328 0.146742
H8    H     H_    0.209595 0.191740 0.591673 0.146732
H9    H     H_    0.911193 0.635926 0.442898 0.145497
H10   H     H_    0.088808 0.135924 0.557102 0.145496
H11   H     H_    0.826554 0.054319 0.061983 0.135343
H12   H     H_    0.173446 0.554319 0.938017 0.135342
C33   C     C_R   0.230677 0.997524 0.186280 -0.208641
C34   C     C_R   0.769324 0.497526 0.813718 -0.208634
H13   H     H_    0.218947 0.109677 0.132808 0.172429
H14   H     H_    0.781053 0.609681 0.867189 0.172433
C35   C     C_R   0.295036 0.992253 0.251853 -0.076607
C36   C     C_R   0.704964 0.492255 0.748144 -0.076619
H15   H     H_    0.331317 0.100069 0.246565 0.211504
H16   H     H_    0.668683 0.600072 0.753431 0.211507
C37   C     C_R   0.313013 0.848958 0.322167 -0.258588
C38   C     C_R   0.686987 0.348956 0.677832 -0.258568
C39   C     C_R   0.263022 0.712810 0.328442 0.300028
C40   C     C_R   0.736977 0.212805 0.671560 0.300073
C41   C     C_R   0.199451 0.715094 0.258569 0.570017
C42   C     C_R   0.800548 0.215091 0.741433 0.569997
C43   C     C_R   0.182648 0.857693 0.187533 -0.233391
C44   C     C_R   0.817352 0.357693 0.812466 -0.233393
O11   O     O_R   0.913920 0.203370 0.916260 -0.510887
O12   O     O_R   0.086080 0.703370 0.083740 -0.510889
O13   O     O_R   0.047620 0.535540 0.888290 -0.547397
O14   O     O_R   0.952380 0.035540 0.111710 -0.547398
C45   C     C_R   0.063516 0.367520 0.861627 0.680287
C46   C     C_R   0.936484 0.867520 0.138372 0.680288
O15   O     O_R   0.912040 0.532780 0.904220 -0.540631
O16   O     O_R   0.087960 0.032780 0.095780 -0.540631
O17   O     O_R   0.949550 0.708160 0.099720 -0.535654
O18   O     O_R   0.050450 0.208160 0.900280 -0.535654
C47   C     C_R   0.885651 0.364737 0.882856 0.745134
C48   C     C_R   0.114348 0.864737 0.117143 0.745131
O19   O     O_3   0.012480 0.375300 0.064060 -0.367531
O20   O     O_3   0.987520 0.875300 0.935940 -0.367530
V3    V     V_3+5 0.997690 0.648180 0.988110 1.532718
V4    V     V_3+5 0.002310 0.148180 0.011890 1.532716
S1    S     S_3+6 0.486116 0.047444 0.171623 0.108117
O21   O     O_2   0.442127 0.909575 0.209766 -0.392474
O22   O     O_2   0.492425 0.215459 0.237197 -0.311777
O23   O     O_3   0.445058 0.110761 0.055492 -0.381778
H17   H     H_    0.395776 0.102067 0.055487 0.385645
S2    S     S_3+6 0.513883 0.547444 0.828377 0.108118
O24   O     O_2   0.557873 0.409576 0.790233 -0.392477
O25   O     O_2   0.507575 0.715460 0.762802 -0.311776
O26   O     O_3   0.554942 0.610761 0.944508 -0.381777
H18   H     H_    0.604224 0.602066 0.944513 0.385645
S3    S     S_3+6 0.275600 0.550512 0.428838 0.012476
O27   O     O_2   0.208886 0.472792 0.442885 -0.297673
O28   O     O_2   0.319279 0.395431 0.405917 -0.335614
O29   O     O_3   0.314976 0.652892 0.537000 -0.521299
H19   H     H_    0.283001 0.750076 0.548644 0.316965
S4    S     S_3+6 0.724398 0.050497 0.571169 0.012453
O30   O     O_2   0.791111 0.972763 0.557126 -0.297698
O31   O     O_2   0.680715 0.895427 0.594091 -0.335610
O32   O     O_3   0.685026 0.152875 0.463004 -0.521331
H20   H     H_    0.717029 0.249945 0.451312 0.317013
F1    F     F_    0.152565 0.582028 0.262125 -0.629111
F2    F     F_    0.847434 0.082022 0.737879 -0.629109
S5    S     S_3+6 0.577040 0.034410 0.983124 0.119004
O33   O     O_2   0.507302 0.957109 0.942425 -0.205012
O34   O     O_2   0.574658 0.239231 0.976202 -0.279267
O35   O     O_3   0.627336 0.954697 0.908166 -0.523164
H21   H     H_    0.611181 0.017734 0.842584 0.379136
S6    S     S_3+6 0.422959 0.534409 0.016875 0.119004
O36   O     O_2   0.492698 0.457108 0.057575 -0.205012
O37   O     O_2   0.425343 0.739231 0.023797 -0.279265
O38   O     O_3   0.372664 0.454698 0.091834 -0.523165
H22   H     H_    0.388819 0.517735 0.157416 0.379136

loop_
_geom_bond_atom_site_label_1
_geom_bond_atom_site_label_2
_ccdc_geom_bond_type
C34   C36   A    
C38   C40   A    
C9    C31   A    
C15   C19   A    
C13   C15   A    
S5    O33   D    
O1    C3    A    
O16   C48   A    
O2    C4    A    
C2    O7    A    
S4    O31   D    
O35   H21   S    
O5    C3    A    
C29   S1    S    
C21   C23   A    
C10   C12   A    
O12   C48   A    
C33   H13   S    
C34   H14   S    
C5    S5    S    
S6    O36   D    
C41   C43   A    
C35   H15   S    
C36   H16   S    
H1    C23   S    
C7    C29   A    
C41   F1    S    
C2    C37   S    
C25   H11   S    
S6    O37   D    
C26   H12   S    
C20   C28   A    
O32   H20   S    
C31   C46   S    
O12   V3    S    
S1    O22   D    
C42   F2    S    
O14   V4    S    
C39   S3    S    
O5    V1    S    
O6    V2    S    
C11   H9    S    
S2    O24   D    
C12   H10   S    
O15   V3    S    
S4    O30   D    
C13   H7    S    
O26   H18   S    
C10   H6    S    
C23   C25   A    
C8    C30   A    
C16   C20   A    
C16   C18   A    
C30   S2    S    
O4    C2    A    
C6    S6    S    
C36   C38   A    
O20   V3    S    
S2    O26   S    
C37   C39   A    
C4    C7    S    
C39   C41   A    
O4    V2    S    
C5    C29   A    
O11   V4    S    
C6    C30   A    
H2    C24   S    
S3    O27   D    
O6    C4    A    
C27   H3    S    
S5    O34   D    
O1    V2    S    
C28   H4    S    
C33   C43   A    
S1    O23   S    
S2    O25   D    
O2    V1    S    
O13   C45   A    
O17   V3    S    
C7    C27   A    
O13   V3    S    
S3    O28   D    
C18   C26   A    
O3    V1    S    
C43   C48   S    
O19   V4    S    
C18   C32   A    
C40   S4    S    
O14   C46   A    
C1    C38   S    
O3    C1    A    
C32   C45   S    
O38   H22   S    
C33   C35   A    
C11   C13   A    
C3    C8    S    
C12   C14   A    
S6    O38   S    
C19   C27   A    
C14   C16   A    
O7    V1    S    
C10   C32   A    
C1    O8    A    
O16   V4    S    
O8    V2    S    
C24   C26   A    
C14   H8    S    
C46   O17   A    
C34   C44   A    
C8    C28   A    
C45   O18   A    
O18   V4    S    
C22   C24   A    
O23   H17   S    
C19   C21   A    
C17   C25   A    
S5    O35   S    
C20   C22   A    
C9    C11   A    
O29   H19   S    
C44   C47   S    
C9    H5    S    
O15   C47   A    
C35   C37   A    
S3    O29   S    
C15   C17   A    
C17   C31   A    
O9    V2    S    
C40   C42   A    
O10   V1    S    
C42   C44   A    
C5    C21   A    
S1    O21   D    
C6    C22   A    
O11   C47   A    
S4    O32   S    
