data_mof_unit_4416.cif
_audit_creation_date              2012-12-10T17:03:55-0500
_audit_creation_method            fapswitch 2.2
_symmetry_space_group_name_H-M    P1
_symmetry_Int_Tables_number       1
_space_group_crystal_system       triclinic
_cell_length_a                    9.791051
_cell_length_b                    11.038761
_cell_length_c                    15.88345
_cell_angle_alpha                 94.327251
_cell_angle_beta                  80.704289
_cell_angle_gamma                 111.09982
_cell_volume                      1580.29184628

loop_
_atom_site_label
_atom_site_type_symbol
_atom_type_description
_atom_site_fract_x
_atom_site_fract_y
_atom_site_fract_z
_atom_type_partial_charge
C1    C     C_R   0.555359 0.745360 0.507608 0.849687
C2    C     C_R   0.443770 0.254493 0.494049 0.879144
C3    C     C_R   0.327919 0.489383 0.078091 -0.245004
C4    C     C_R   0.663771 0.707609 0.952029 -0.228187
C5    C     C_R   0.226436 0.461108 0.021271 -0.221765
C6    C     C_R   0.771951 0.723158 0.003168 -0.244062
C7    C     C_2   0.586655 0.884247 0.512033 -0.360785
C8    C     C_2   0.411521 0.115462 0.491530 -0.364529
C9    C     C_2   0.482261 0.930359 0.501911 -0.160564
C10   C     C_2   0.514400 0.069210 0.504436 -0.152236
C11   C     C_2   0.921395 0.488828 0.493433 -0.076156
C12   C     C_2   0.077662 0.509901 0.507040 -0.080700
C13   C     C_R   0.415620 0.494137 0.663412 0.823977
C14   C     C_R   0.588591 0.526054 0.338452 0.818793
C15   C     C_R   0.372980 0.504128 0.757718 -0.138409
C16   C     C_R   0.639219 0.570174 0.249370 -0.124831
C17   C     C_R   0.168890 0.458421 0.876222 0.147705
C18   C     C_R   0.840124 0.661871 0.133035 0.151718
C19   C     C_R   0.221942 0.467722 0.788673 -0.240091
C20   C     C_R   0.788773 0.604174 0.214068 -0.238896
C21   C     C_R   0.478887 0.548629 0.816633 0.086071
C22   C     C_R   0.540090 0.591906 0.201160 0.088297
C23   C     C_R   0.426583 0.556309 0.905958 0.013376
C24   C     C_R   0.581061 0.604039 0.112658 0.026184
C25   C     C_R   0.272643 0.493759 0.934722 0.069916
C26   C     C_R   0.733376 0.661454 0.081969 0.073521
C27   C     C_R   0.522901 0.610567 0.969264 0.083136
C28   C     C_R   0.475862 0.569293 0.054481 0.076150
Cu1   Cu    Cu3+1 0.362980 0.479380 0.485080 0.928355
Cu2   Cu    Cu3+1 0.637020 0.520620 0.514920 0.922706
H1    H     H_    0.112615 0.405587 0.045233 0.139410
H2    H     H_    0.884024 0.785481 0.981019 0.142810
H3    H     H_    0.865026 0.593987 0.252784 0.175845
H4    H     H_    0.144762 0.438322 0.743081 0.183822
H5    H     H_    0.288408 0.449557 0.141323 0.145761
H6    H     H_    0.693924 0.767244 0.897161 0.178305
H7    H     H_    0.623412 0.133983 0.516605 0.179663
H8    H     H_    0.372616 0.865519 0.490879 0.179105
H9    H     H_    0.302752 0.050407 0.479278 0.148192
H10   H     H_    0.696130 0.949312 0.523052 0.151329
H11   H     H_    0.125400 0.578883 0.556101 0.160740
H12   H     H_    0.872756 0.418493 0.445252 0.159299
H13   H     H_    0.109114 0.383436 0.416482 0.184991
H14   H     H_    0.894538 0.619189 0.581093 0.183563
N1    N     N_2   0.842890 0.551600 0.537350 -0.291483
N2    N     N_2   0.157110 0.448400 0.462650 -0.290433
O1    O     O_R   0.426810 0.668300 0.492040 -0.578001
O2    O     O_R   0.573190 0.331700 0.507960 -0.577202
O3    O     O_R   0.658240 0.703130 0.517240 -0.584293
O4    O     O_R   0.341760 0.296870 0.482760 -0.571738
O5    O     O_R   0.319390 0.472820 0.610170 -0.583999
O6    O     O_R   0.680610 0.527180 0.389830 -0.584159
O7    O     O_R   0.550820 0.507640 0.635370 -0.573843
O8    O     O_R   0.449180 0.492360 0.364630 -0.575487
C29   C     C_3   0.419362 0.644390 0.242598 -0.393364
C30   C     C_3   0.484277 0.772574 0.290598 -0.763128
H15   H     H_    0.550939 0.763124 0.337899 0.248563
H16   H     H_    0.556827 0.848845 0.244941 0.237904
H17   H     H_    0.393487 0.803858 0.324095 0.232495
H18   H     H_    0.364940 0.668553 0.193869 0.201554
H19   H     H_    0.328382 0.572639 0.283444 0.223674
C31   C     C_3   0.642503 0.567344 0.787025 -0.338867
C32   C     C_3   0.730428 0.698950 0.743793 -0.824857
H20   H     H_    0.744037 0.690901 0.673728 0.275608
H21   H     H_    0.674449 0.770575 0.761554 0.234550
H22   H     H_    0.843131 0.738707 0.762345 0.217902
H23   H     H_    0.697576 0.556118 0.839799 0.189509
H24   H     H_    0.655220 0.484867 0.746500 0.214915
C33   C     C_3   0.002638 0.407629 0.908240 -0.391432
C34   C     C_3   0.900870 0.399019 0.842534 -0.871933
H25   H     H_    0.933078 0.493993 0.811310 0.252230
H26   H     H_    0.903866 0.321925 0.793907 0.251281
H27   H     H_    0.785187 0.373271 0.875210 0.243289
H28   H     H_    0.971089 0.309603 0.935096 0.199526
H29   H     H_    0.978912 0.473302 0.960334 0.201780
C35   C     C_3   0.004585 0.721125 0.099248 -0.393729
C36   C     C_3   0.110551 0.708237 0.155834 -0.864464
H30   H     H_    0.098933 0.759022 0.218184 0.253340
H31   H     H_    0.090233 0.604322 0.165818 0.247138
H32   H     H_    0.225798 0.754131 0.123624 0.250986
H33   H     H_    0.026852 0.675297 0.036401 0.200249
H34   H     H_    0.032589 0.826412 0.089350 0.200566

loop_
_geom_bond_atom_site_label_1
_geom_bond_atom_site_label_2
_ccdc_geom_bond_type
C6    H2    S    
C29   C30   S    
C4    H6    S    
C17   C33   S    
Cu2   N1    S    
C18   C26   A    
C32   H21   S    
C36   H30   S    
C15   C19   A    
Cu1   Cu2   S    
C31   H23   S    
Cu1   O1    S    
C10   H7    S    
Cu2   O2    S    
C3    C28   A    
C24   C26   A    
Cu1   O8    S    
C30   H15   S    
C11   H12   S    
C2    O4    A    
C13   O5    A    
C14   O6    A    
C16   C22   A    
C7    H10   S    
C34   H25   S    
C8    H9    S    
C23   C27   A    
C9    C10   S    
C32   H22   S    
C29   H18   S    
C13   O7    A    
Cu1   O4    S    
C36   H31   S    
Cu2   O7    S    
C35   C36   S    
C4    C6    A    
C35   H34   S    
C1    O1    A    
C2    O2    A    
C31   C32   S    
C3    H5    S    
C16   C20   A    
C34   H27   S    
C33   H28   S    
C21   C31   S    
C5    C25   A    
C20   H3    S    
C12   N2    D    
C14   O8    A    
Cu2   O3    S    
C13   C15   S    
C22   C24   A    
C11   N1    D    
C4    C27   A    
H14   N1    S    
C12   H11   S    
Cu1   O5    S    
C36   H32   S    
C7    C9    D    
Cu2   O6    S    
C18   C35   S    
C14   C16   S    
C1    C7    S    
C2    C8    S    
C24   C28   A    
C3    C5    A    
C19   H4    S    
C35   H33   S    
C11   C12   S    
C22   C29   S    
C30   H17   S    
C31   H24   S    
Cu1   N2    S    
C17   C25   A    
C21   C23   A    
C6    C26   A    
C29   H19   S    
C9    H8    S    
C17   C19   A    
C30   H16   S    
C33   H29   S    
C18   C20   A    
C23   C25   A    
C33   C34   S    
H13   N2    S    
C32   H20   S    
C15   C21   A    
C8    C10   D    
C27   C28   A    
C34   H26   S    
C1    O3    A    
C5    H1    S    
