data_mof_unit_3936.cif
_audit_creation_date              2012-12-10T17:40:30-0500
_audit_creation_method            fapswitch 2.2
_symmetry_space_group_name_H-M    P1
_symmetry_Int_Tables_number       1
_space_group_crystal_system       triclinic
_cell_length_a                    13.721724
_cell_length_b                    15.051045
_cell_length_c                    15.764526
_cell_angle_alpha                 89.402087
_cell_angle_beta                  69.582345
_cell_angle_gamma                 89.773792
_cell_volume                      3051.0762399

loop_
_atom_site_label
_atom_site_type_symbol
_atom_type_description
_atom_site_fract_x
_atom_site_fract_y
_atom_site_fract_z
_atom_type_partial_charge
C1    C     C_R   0.499287 0.671000 0.500488 0.791255
C2    C     C_R   0.500625 0.329194 0.499078 0.813651
C3    C     C_R   0.378490 0.466431 0.095605 0.205457
C4    C     C_R   0.620755 0.530008 0.904241 0.202508
C5    C     C_R   0.301348 0.480239 0.056626 0.193295
C6    C     C_R   0.697910 0.516360 0.943230 0.192556
C7    C     C_R   0.442021 0.187189 0.579373 0.374788
C8    C     C_R   0.558743 0.815025 0.423115 0.326999
C9    C     C_R   0.500798 0.232905 0.499903 -0.264596
C10   C     C_R   0.496298 0.767530 0.500078 -0.229686
C11   C     C_R   0.553633 0.187983 0.419413 0.187346
C12   C     C_R   0.424077 0.811584 0.573970 0.193090
C13   C     C_R   0.549662 0.094260 0.418044 0.011827
C14   C     C_R   0.423915 0.905756 0.575950 0.030424
C15   C     C_R   0.486735 0.047411 0.497059 -0.159124
C16   C     C_R   0.484540 0.953460 0.497026 -0.134349
C17   C     C_R   0.429677 0.094144 0.577027 0.014720
C18   C     C_R   0.543700 0.907063 0.417718 -0.013344
C19   C     C_R   0.604779 0.046552 0.338754 0.392199
C20   C     C_R   0.363791 0.952783 0.654238 0.328975
C21   C     C_R   0.588438 0.954758 0.335398 0.197524
C22   C     C_R   0.364671 0.046520 0.654084 0.166970
C23   C     C_R   0.436727 0.499581 0.672715 0.805773
C24   C     C_R   0.563219 0.500155 0.327258 0.805731
C25   C     C_R   0.228468 0.557998 0.445711 -0.058014
C26   C     C_R   0.771886 0.441798 0.553918 -0.055447
C27   C     C_R   0.185084 0.443225 0.556829 0.552488
C28   C     C_R   0.814914 0.556721 0.442995 0.603081
C29   C     C_R   0.082715 0.436451 0.552811 -0.214507
C30   C     C_R   0.918403 0.561963 0.444714 -0.142573
C31   C     C_R   0.051991 0.499653 0.499727 -0.033655
C32   C     C_R   0.948822 0.499649 0.498646 -0.070277
C33   C     C_R   0.124957 0.562399 0.447132 -0.038412
C34   C     C_R   0.875466 0.437543 0.552124 -0.075334
C35   C     C_R   0.010822 0.368664 0.598876 0.313938
C36   C     C_R   0.989781 0.629168 0.397301 0.333922
C37   C     C_R   0.907056 0.371680 0.601457 0.237625
C38   C     C_R   0.093833 0.628054 0.397047 0.151349
C39   C     C_R   0.398280 0.500351 0.772104 -0.114803
C40   C     C_R   0.601347 0.498141 0.227848 -0.123133
C41   C     C_R   0.258395 0.512367 0.917803 0.424652
C42   C     C_R   0.741079 0.485481 0.082158 0.425285
C43   C     C_R   0.293490 0.514070 0.822550 -0.265570
C44   C     C_R   0.706199 0.484969 0.177390 -0.278990
C45   C     C_R   0.469165 0.490417 0.816563 -0.168737
C46   C     C_R   0.530048 0.505838 0.183468 -0.179268
C47   C     C_R   0.439371 0.500270 0.910411 -0.006070
C48   C     C_R   0.559926 0.495909 0.089579 -0.005445
C49   C     C_R   0.331470 0.499322 0.962701 0.001072
C50   C     C_R   0.667860 0.497508 0.037241 0.000553
C51   C     C_R   0.515242 0.506010 0.952884 -0.049953
C52   C     C_R   0.484087 0.490129 0.047048 -0.048645
Cu1   Cu    Cu3+1 0.402580 0.500010 0.499990 0.970957
Cu2   Cu    Cu3+1 0.597420 0.499990 0.500010 0.976333
H1    H     H_    0.287460 0.602309 0.402906 0.184218
H2    H     H_    0.713224 0.397255 0.596831 0.182106
H3    H     H_    0.450733 0.522879 0.222937 0.188026
H4    H     H_    0.548172 0.472347 0.777138 0.187725
H5    H     H_    0.761317 0.475691 0.211970 0.153146
H6    H     H_    0.238601 0.524640 0.787941 0.154054
N1    N     N_R   0.256170 0.500070 0.500040 -0.200821
N2    N     N_R   0.743830 0.499930 0.499960 -0.216603
O1    O     O_R   0.417730 0.629750 0.499970 -0.603169
O2    O     O_R   0.582270 0.370250 0.500030 -0.609299
O3    O     O_R   0.582270 0.629730 0.499980 -0.512136
O4    O     O_R   0.417730 0.370270 0.500020 -0.517747
O5    O     O_R   0.371590 0.500020 0.629830 -0.535547
O6    O     O_R   0.628410 0.499980 0.370170 -0.555468
O7    O     O_R   0.536130 0.499990 0.629840 -0.594816
O8    O     O_R   0.463870 0.500010 0.370160 -0.597780
N3    N     N_2   0.196222 0.460385 0.110410 -0.418274
H7    H     H_    0.154497 0.423100 0.080512 0.296639
C53   C     C_3   0.139455 0.532169 0.166810 -0.617425
H8    H     H_    0.129049 0.588326 0.124565 0.268903
H9    H     H_    0.181776 0.556317 0.210539 0.208327
H10   H     H_    0.061768 0.508081 0.211031 0.213679
N4    N     N_2   0.803107 0.535616 0.889187 -0.421743
H11   H     H_    0.845084 0.573314 0.918507 0.296249
C54   C     C_3   0.859425 0.463249 0.833445 -0.612326
H12   H     H_    0.869917 0.407596 0.876216 0.268779
H13   H     H_    0.937074 0.486933 0.788711 0.213133
H14   H     H_    0.816708 0.438518 0.790230 0.208865
O9    O     O_3   0.214630 0.396439 0.619369 -0.691199
H15   H     H_    0.154366 0.394645 0.676828 0.324534
O10   O     O_3   0.783867 0.606560 0.383424 -0.642706
H16   H     H_    0.837940 0.599471 0.322752 0.328915
O11   O     O_3   0.040352 0.294887 0.636669 -0.751599
H17   H     H_    0.110575 0.277088 0.595987 0.344201
O12   O     O_3   0.954475 0.697092 0.355635 -0.710970
H18   H     H_    0.001767 0.748651 0.343503 0.340037
N5    N     N_2   0.835372 0.305137 0.650834 -0.445333
H19   H     H_    0.844868 0.285471 0.710352 0.288270
C55   C     C_3   0.826597 0.230311 0.597039 -0.650682
H20   H     H_    0.901337 0.193309 0.572050 0.246800
H21   H     H_    0.805361 0.252897 0.538444 0.227265
H22   H     H_    0.764782 0.184777 0.639215 0.227224
N6    N     N_2   0.168477 0.691305 0.344691 -0.460821
H23   H     H_    0.164224 0.706910 0.282240 0.256044
C56   C     C_3   0.181931 0.767955 0.394264 -0.710285
H24   H     H_    0.109785 0.808483 0.417346 0.230218
H25   H     H_    0.246523 0.809627 0.349728 0.231306
H26   H     H_    0.201738 0.747100 0.454030 0.232893
O13   O     O_3   0.154491 0.526616 0.966816 -0.750866
H27   H     H_    0.115347 0.534273 0.924909 0.330396
O14   O     O_3   0.845027 0.471361 0.033205 -0.750689
H28   H     H_    0.884284 0.464448 0.075107 0.331827
N7    N     N_2   0.351756 0.417703 0.178862 -0.431194
H29   H     H_    0.279118 0.430210 0.225634 0.277836
C57   C     C_3   0.374951 0.323847 0.167959 -0.670545
H30   H     H_    0.354650 0.291546 0.235535 0.220755
H31   H     H_    0.459157 0.313347 0.130295 0.238396
H32   H     H_    0.328714 0.292306 0.130925 0.232231
N8    N     N_2   0.647622 0.577647 0.820235 -0.436632
H33   H     H_    0.721887 0.568260 0.774984 0.279501
C58   C     C_3   0.616666 0.670041 0.828679 -0.637179
H34   H     H_    0.634773 0.700040 0.760245 0.231670
H35   H     H_    0.659563 0.706925 0.865328 0.223837
H36   H     H_    0.531674 0.676362 0.865511 0.240423
O15   O     O_3   0.397374 0.232040 0.660147 -0.680765
H37   H     H_    0.433007 0.289331 0.658801 0.315787
O16   O     O_3   0.641125 0.775143 0.356609 -0.701033
H38   H     H_    0.627006 0.711273 0.352692 0.340644
N9    N     N_2   0.607621 0.237676 0.339074 -0.356099
H39   H     H_    0.651665 0.289905 0.347463 0.254226
C59   C     C_3   0.545332 0.260996 0.284644 -0.609725
H40   H     H_    0.483121 0.308466 0.321310 0.210948
H41   H     H_    0.509581 0.200669 0.267827 0.234208
H42   H     H_    0.595457 0.292712 0.220421 0.231083
N10   N     N_2   0.354940 0.761007 0.647627 -0.347171
H43   H     H_    0.385233 0.703605 0.664797 0.239969
C60   C     C_3   0.251054 0.749816 0.645318 -0.580498
H44   H     H_    0.252292 0.706745 0.588344 0.212425
H45   H     H_    0.216621 0.815054 0.637843 0.224957
H46   H     H_    0.200740 0.718210 0.709534 0.216806
O17   O     O_3   0.674423 0.090076 0.264709 -0.703020
H47   H     H_    0.720044 0.046088 0.222878 0.351392
O18   O     O_3   0.309066 0.906163 0.732287 -0.704604
H48   H     H_    0.244037 0.938103 0.765467 0.321711
N11   N     N_2   0.605770 0.914650 0.248964 -0.412922
H49   H     H_    0.601489 0.846728 0.247434 0.305622
C61   C     C_3   0.545414 0.952633 0.198107 -0.726737
H50   H     H_    0.565040 0.918325 0.132178 0.235348
H51   H     H_    0.562508 0.024278 0.183600 0.261793
H52   H     H_    0.460958 0.943902 0.236380 0.220772
N12   N     N_2   0.301500 0.092848 0.732668 -0.370674
H53   H     H_    0.299997 0.066801 0.793867 0.257730
C62   C     C_3   0.200554 0.119453 0.731248 -0.566420
H54   H     H_    0.160251 0.160462 0.791522 0.235177
H55   H     H_    0.152119 0.060212 0.732337 0.180156
H56   H     H_    0.209150 0.159894 0.669681 0.257927

loop_
_geom_bond_atom_site_label_1
_geom_bond_atom_site_label_2
_ccdc_geom_bond_type
C36   O12   S    
O11   H17   S    
C55   H20   S    
C5    N3    S    
C27   C29   A    
C34   C37   A    
C11   C13   A    
C53   H8    S    
C23   O7    A    
C62   H54   S    
C60   H46   S    
N12   H53   S    
C24   O8    A    
O17   H47   S    
C47   C49   A    
Cu2   O3    S    
Cu1   Cu2   S    
C40   C46   A    
C62   H55   S    
N10   H43   S    
C61   H51   S    
O10   H16   S    
C3    C52   A    
C8    O16   S    
N9    C59   S    
Cu2   O6    S    
C44   H5    S    
C19   O17   S    
C15   C16   A    
C18   C21   A    
C7    C9    A    
C45   C47   A    
C23   O5    A    
C27   N1    A    
C57   H31   S    
N12   C62   S    
Cu1   N1    S    
C26   C34   A    
C31   C32   A    
C28   C30   A    
C7    C17   A    
C59   H42   S    
C1    O3    A    
N7    H29   S    
C31   C33   A    
C41   C43   A    
C39   C45   A    
N11   C61   S    
C48   C50   A    
C55   H21   S    
N7    C57   S    
C5    C49   A    
C42   C44   A    
C38   N6    S    
Cu1   O8    S    
C1    O1    A    
C41   C49   A    
N6    C56   S    
C2    O2    A    
N6    H23   S    
N4    C54   S    
C46   C48   A    
C45   H4    S    
C12   N10   S    
C37   N5    S    
C4    C51   A    
C51   C52   A    
C7    O15   S    
C4    N8    S    
N9    H39   S    
C62   H56   S    
C4    C6    A    
C61   H52   S    
N5    H19   S    
C54   H13   S    
C13   C19   A    
C6    N4    S    
C39   C43   A    
Cu2   N2    S    
C3    N7    S    
N4    H11   S    
C8    C18   A    
C41   O13   S    
C32   C34   A    
C20   O18   S    
C14   C20   A    
N5    C55   S    
O9    H15   S    
C22   N12   S    
C40   C44   A    
O15   H37   S    
C58   H36   S    
C25   N1    A    
C6    C50   A    
Cu1   O4    S    
C9    C11   A    
O16   H38   S    
C10   C12   A    
C43   H6    S    
C42   C50   A    
C16   C18   A    
C56   H25   S    
C12   C14   A    
C55   H22   S    
C13   C15   A    
C46   H3    S    
C59   H40   S    
C53   H10   S    
C14   C16   A    
C57   H32   S    
C53   H9    S    
C60   H44   S    
C3    C5    A    
C28   O10   S    
C35   C37   A    
N3    C53   S    
N8    H33   S    
O18   H48   S    
C35   O11   S    
C15   C17   A    
C58   H35   S    
C19   C21   A    
C11   N9    S    
C1    C10   S    
C25   H1    S    
C20   C22   A    
C60   H45   S    
C26   H2    S    
C54   H14   S    
C47   C51   A    
N11   H49   S    
C2    O4    A    
O14   H28   S    
C29   C35   A    
C17   C22   A    
C56   H24   S    
C30   C36   A    
C27   O9    S    
C26   N2    A    
N3    H7    S    
C29   C31   A    
C57   H30   S    
C30   C32   A    
Cu1   O1    S    
Cu2   O7    S    
Cu2   O2    S    
C23   C39   S    
C36   C38   A    
C24   C40   S    
Cu1   O5    S    
C42   O14   S    
C24   O6    A    
C54   H12   S    
C48   C52   A    
C56   H26   S    
C8    C10   A    
O13   H27   S    
C59   H41   S    
C21   N11   S    
C33   C38   A    
N10   C60   S    
O12   H18   S    
C61   H50   S    
C2    C9    S    
C58   H34   S    
C25   C33   A    
N8    C58   S    
C28   N2    A    
