data_mof_unit_2288.cif
_audit_creation_date              2012-12-10T17:31:12-0500
_audit_creation_method            fapswitch 2.2
_symmetry_space_group_name_H-M    P1
_symmetry_Int_Tables_number       1
_space_group_crystal_system       triclinic
_cell_length_a                    11.989488
_cell_length_b                    12.832625
_cell_length_c                    15.430203
_cell_angle_alpha                 86.953181
_cell_angle_beta                  116.504113
_cell_angle_gamma                 94.542554
_cell_volume                      2117.4370623

loop_
_atom_site_label
_atom_site_type_symbol
_atom_type_description
_atom_site_fract_x
_atom_site_fract_y
_atom_site_fract_z
_atom_type_partial_charge
C1    C     C_R   0.475346 0.299313 0.497279 0.925369
C2    C     C_R   0.524656 0.700699 0.502718 0.929388
C3    C     C_R   0.600491 0.376690 0.099529 -0.237283
C4    C     C_R   0.336982 0.472540 0.878062 -0.257054
C5    C     C_R   0.686827 0.359907 0.065343 -0.115761
C6    C     C_R   0.251359 0.491941 0.911950 -0.103742
C7    C     C_R   0.542634 0.812484 0.506806 -0.146937
C8    C     C_R   0.457363 0.187557 0.493176 -0.146929
C9    C     C_R   0.333479 0.028834 0.426115 -0.228022
C10   C     C_R   0.666535 0.971240 0.573799 -0.226651
C11   C     C_R   0.340355 0.136134 0.436467 0.377104
C12   C     C_R   0.659685 0.863955 0.563337 0.376949
C13   C     C_R   0.564464 0.131989 0.540884 -0.293580
C14   C     C_R   0.435506 0.868045 0.459217 -0.293579
C15   C     C_R   0.558095 0.025916 0.529065 0.115543
C16   C     C_R   0.441890 0.974131 0.470981 0.116679
C17   C     C_R   0.015971 0.617745 0.427766 0.017892
C18   C     C_R   0.985090 0.383286 0.573655 0.011641
C19   C     C_R   0.134423 0.602069 0.432856 0.071307
C20   C     C_R   0.865861 0.398138 0.567443 0.063168
C21   C     C_R   0.154619 0.448617 0.529206 -0.027962
C22   C     C_R   0.845819 0.551833 0.471402 -0.021643
C23   C     C_R   0.577205 0.491624 0.681262 0.944929
C24   C     C_R   0.421953 0.504940 0.318577 0.941406
C25   C     C_R   0.035472 0.457445 0.526314 0.002275
C26   C     C_R   0.965203 0.543252 0.474624 0.004920
C27   C     C_R   0.622236 0.468107 0.785442 -0.210025
C28   C     C_R   0.368751 0.499756 0.212467 -0.214507
C29   C     C_R   0.757083 0.383480 0.938110 0.369905
C30   C     C_R   0.206944 0.525446 0.047865 0.379756
C31   C     C_R   0.732946 0.417328 0.843338 0.372269
C32   C     C_R   0.248020 0.530449 0.148422 0.357557
C33   C     C_R   0.539389 0.484572 0.823164 -0.310290
C34   C     C_R   0.444240 0.462002 0.175533 -0.312004
C35   C     C_R   0.553939 0.440923 0.911731 0.041304
C36   C     C_R   0.405928 0.456132 0.076284 0.048799
C37   C     C_R   0.667046 0.394439 0.972299 -0.015258
C38   C     C_R   0.286588 0.490432 0.011524 -0.011780
C39   C     C_R   0.459703 0.446965 0.942515 0.117446
C40   C     C_R   0.488703 0.425632 0.040533 0.116890
H1    H     H_    0.770284 0.321732 0.113671 0.212956
H2    H     H_    0.159388 0.512609 0.859273 0.221263
H3    H     H_    0.823961 0.344064 0.601949 0.154118
H4    H     H_    0.176081 0.655721 0.397839 0.146366
H5    H     H_    0.536961 0.442331 0.226147 0.188035
H6    H     H_    0.461554 0.531794 0.781246 0.191056
H7    H     H_    0.622041 0.347348 0.171739 0.154872
H8    H     H_    0.304082 0.476099 0.800452 0.147295
H9    H     H_    0.345992 0.827994 0.414714 0.166262
H10   H     H_    0.653957 0.172038 0.585464 0.169723
H11   H     H_    0.244259 0.988662 0.381613 0.170613
H12   H     H_    0.755786 0.011439 0.618202 0.171503
H13   H     H_    0.788172 0.614989 0.431853 0.139506
H14   H     H_    0.212340 0.385506 0.568769 0.138978
N1    N     N_R   0.799120 0.480200 0.517090 -0.107221
N2    N     N_R   0.200880 0.519800 0.482910 -0.106032
O1    O     O_R   0.580150 0.341050 0.504560 -0.641441
O2    O     O_R   0.419850 0.658950 0.495440 -0.640790
O3    O     O_R   0.388090 0.353760 0.493600 -0.575695
O4    O     O_R   0.611910 0.646240 0.506400 -0.574755
O5    O     O_R   0.650890 0.490020 0.640860 -0.542865
O6    O     O_R   0.349110 0.509980 0.359140 -0.546136
O7    O     O_R   0.458830 0.502730 0.629890 -0.641545
O8    O     O_R   0.541170 0.497270 0.370110 -0.641233
Zn1   Zn    Zn3+2 0.628240 0.491510 0.507320 1.004361
Zn2   Zn    Zn3+2 0.371760 0.508490 0.492680 1.004381
C41   C     C_3   0.944042 0.712779 0.374654 -0.431647
C42   C     C_3   0.010890 0.792100 0.332487 -0.374785
C43   C     C_3   0.932626 0.885729 0.285347 -0.767132
H15   H     H_    0.841530 0.859801 0.225303 0.265205
H16   H     H_    0.915948 0.926882 0.339649 0.263216
H17   H     H_    0.983103 0.941349 0.255489 0.269827
H18   H     H_    0.101678 0.821182 0.391211 0.215559
H19   H     H_    0.027798 0.754230 0.276635 0.265836
H20   H     H_    0.854051 0.684647 0.314463 0.215146
H21   H     H_    0.923322 0.754909 0.426449 0.226506
C44   C     C_3   0.058649 0.289751 0.628834 -0.441699
C45   C     C_3   0.994179 0.212124 0.674162 -0.367343
C46   C     C_3   0.075273 0.121007 0.724939 -0.764635
H22   H     H_    0.093126 0.077672 0.672391 0.262914
H23   H     H_    0.165749 0.150010 0.783912 0.263739
H24   H     H_    0.026389 0.066421 0.756887 0.270255
H25   H     H_    0.976668 0.252396 0.728500 0.274329
H26   H     H_    0.903931 0.180102 0.616814 0.215170
H27   H     H_    0.079033 0.245814 0.577854 0.228282
H28   H     H_    0.148759 0.319755 0.687768 0.207638
Cl1   Cl    Cl    0.149029 0.581031 0.191299 -0.537415
Cl2   Cl    Cl    0.840510 0.391749 0.798760 -0.556509
Cl3   Cl    Cl    0.898933 0.324797 0.011890 -0.481601
Cl4   Cl    Cl    0.058396 0.570036 0.968578 -0.458324
Cl5   Cl    Cl    0.797732 0.797785 0.627509 -0.578294
Cl6   Cl    Cl    0.202458 0.202399 0.371841 -0.577304

loop_
_geom_bond_atom_site_label_1
_geom_bond_atom_site_label_2
_ccdc_geom_bond_type
C19   N2    A    
C8    C13   A    
C5    C37   A    
C1    C8    S    
C12   Cl5   S    
C2    C7    S    
C9    H11   S    
C30   Cl4   S    
C10   H12   S    
C29   Cl3   S    
C44   C45   S    
C27   C33   A    
C17   C26   A    
C35   C37   A    
C9    C16   A    
C10   C15   A    
C1    O3    A    
O3    Zn2   S    
C21   H14   S    
C2    O4    A    
C14   H9    S    
C42   H19   S    
C15   C16   A    
C30   C38   A    
C43   H16   S    
C5    H1    S    
C17   C19   A    
C11   Cl6   S    
O2    Zn2   S    
C7    C14   A    
C42   C43   S    
C6    C38   A    
C8    C11   A    
C23   C27   S    
C34   C36   A    
C23   O7    A    
O7    Zn2   S    
C44   H27   S    
C24   O8    A    
C33   H6    S    
C18   C25   A    
C20   N1    A    
C45   H25   S    
N1    Zn1   S    
C22   H13   S    
C7    C12   A    
C17   C41   S    
O6    Zn2   S    
C27   C31   A    
C41   C42   S    
C36   C40   A    
C4    C6    A    
C39   C40   A    
C46   H23   S    
C45   C46   S    
C42   H18   S    
C32   Cl1   S    
C45   H26   S    
C46   H22   S    
C43   H17   S    
C35   C39   A    
C1    O1    A    
C46   H24   S    
O4    Zn1   S    
C4    C39   A    
C28   C32   A    
C34   H5    S    
C9    C11   A    
C10   C12   A    
C3    C40   A    
C13   C15   A    
C6    H2    S    
C14   C16   A    
C41   H20   S    
C20   H3    S    
C19   H4    S    
C4    H8    S    
C21   C25   A    
C24   O6    A    
C31   Cl2   S    
C24   C28   S    
O1    Zn1   S    
C3    C5    A    
C44   H28   S    
C21   N2    A    
C2    O2    A    
C22   N1    A    
O8    Zn1   S    
C36   C38   A    
C25   C26   A    
C29   C31   A    
C30   C32   A    
C18   C44   S    
N2    Zn2   S    
C3    H7    S    
C33   C35   A    
C18   C20   A    
C43   H15   S    
C28   C34   A    
C13   H10   S    
O5    Zn1   S    
C23   O5    A    
C22   C26   A    
C29   C37   A    
C41   H21   S    
