data_mof_unit_4463.cif
_audit_creation_date              2012-12-10T16:58:31-0500
_audit_creation_method            fapswitch 2.2
_symmetry_space_group_name_H-M    P1
_symmetry_Int_Tables_number       1
_space_group_crystal_system       triclinic
_cell_length_a                    7.735586
_cell_length_b                    8.575886
_cell_length_c                    23.454118
_cell_angle_alpha                 91.073017
_cell_angle_beta                  85.898222
_cell_angle_gamma                 93.551867
_cell_volume                      1548.80831618

loop_
_atom_site_label
_atom_site_type_symbol
_atom_type_description
_atom_site_fract_x
_atom_site_fract_y
_atom_site_fract_z
_atom_type_partial_charge
C1    C     C_R   0.545832 0.794857 0.498501 0.969239
C2    C     C_R   0.340354 0.444196 0.304206 -0.141252
C3    C     C_R   0.345507 0.528957 0.765508 0.018949
C4    C     C_R   0.326595 0.439003 0.245244 0.029023
C5    C     C_R   0.493407 0.491273 0.792783 0.144850
C6    C     C_R   0.469077 0.496445 0.209641 0.165904
C7    C     C_2   0.570152 0.958160 0.497615 -0.375853
C8    C     C_2   0.429878 0.041840 0.502343 -0.362357
C9    C     C_R   0.501716 0.495187 0.610758 0.873754
C10   C     C_R   0.498440 0.504212 0.389484 0.859010
C11   C     C_R   0.499152 0.358283 0.119881 0.496292
C12   C     C_R   0.454176 0.205143 0.501479 0.972693
C13   C     C_R   0.471277 0.630125 0.883246 0.500002
C14   C     C_R   0.430478 0.626794 0.122285 0.506037
C15   C     C_R   0.514607 0.356167 0.881036 0.503509
C16   C     C_R   0.436435 0.629758 0.062731 -0.013618
C17   C     C_R   0.514819 0.354559 0.940511 -0.009765
C18   C     C_R   0.474041 0.492416 0.031601 -0.020309
C19   C     C_R   0.482094 0.492836 0.971620 -0.019797
C20   C     C_R   0.504477 0.354884 0.060279 -0.012161
C21   C     C_R   0.457917 0.631645 0.942893 -0.015325
C22   C     C_R   0.407528 0.766354 0.033744 -0.160864
C23   C     C_R   0.642674 0.448344 0.760656 0.001426
C24   C     C_R   0.545703 0.218351 0.969427 -0.163471
C25   C     C_R   0.419596 0.767603 0.974273 -0.166404
C26   C     C_R   0.541699 0.218757 0.028840 -0.167268
C27   C     C_2   0.797852 0.365545 0.670489 0.451462
C28   C     C_2   0.787613 0.655942 0.313711 0.476148
C29   C     C_2   0.180058 0.560886 0.798612 0.524555
C30   C     C_2   0.164274 0.374911 0.221060 0.528618
C31   C     C_R   0.619579 0.561190 0.232448 -0.026673
C32   C     C_R   0.647583 0.438408 0.701110 -0.050160
C33   C     C_R   0.632341 0.571149 0.291405 -0.043078
C34   C     C_R   0.503784 0.487769 0.673263 -0.198230
C35   C     C_R   0.491904 0.507896 0.327535 -0.172243
C36   C     C_R   0.354916 0.532184 0.706017 -0.122638
H1    H     H_    0.376204 0.872519 0.056879 0.194402
H2    H     H_    0.232927 0.397106 0.332216 0.192542
H3    H     H_    0.161276 0.533411 0.843657 0.043402
H4    H     H_    0.152270 0.373550 0.175256 0.055844
H5    H     H_    0.702703 0.009011 0.493094 0.182338
H6    H     H_    0.297329 0.990987 0.506862 0.183649
H7    H     H_    0.014352 0.383059 0.456795 0.198496
H8    H     H_    0.985632 0.616878 0.543225 0.199720
H9    H     H_    0.575157 0.111908 0.946211 0.197679
H10   H     H_    0.396131 0.874344 0.952992 0.192083
H11   H     H_    0.568078 0.112551 0.049995 0.193203
H12   H     H_    0.752692 0.415519 0.782917 0.201801
H13   H     H_    0.725015 0.607627 0.203508 0.178649
H14   H     H_    0.784424 0.304423 0.630076 0.088877
H15   H     H_    0.784431 0.701353 0.357169 0.075542
H16   H     H_    0.243322 0.567014 0.685091 0.227339
N1    N     N_R   0.462816 0.492834 0.149209 -0.373539
N2    N     N_R   0.493005 0.492635 0.853739 -0.364066
N3    N     N_2   0.950330 0.457950 0.484560 -0.176092
N4    N     N_2   0.049670 0.542050 0.515440 -0.171327
O1    O     O_R   0.389250 0.738570 0.503790 -0.608894
O2    O     O_2   0.461407 0.764332 0.854793 -0.515833
O3    O     O_2   0.394228 0.756534 0.153228 -0.509663
O4    O     O_2   0.534068 0.222355 0.850652 -0.522790
O5    O     O_2   0.938259 0.367761 0.691285 -0.559597
O6    O     O_2   0.921040 0.679207 0.283176 -0.541245
O7    O     O_2   0.062112 0.618186 0.775943 -0.545931
O8    O     O_2   0.041183 0.323203 0.252032 -0.543891
O9    O     O_R   0.610750 0.261430 0.496210 -0.615336
O10   O     O_R   0.678390 0.711620 0.493890 -0.634650
O11   O     O_R   0.321610 0.288380 0.506110 -0.626067
O12   O     O_R   0.355400 0.513520 0.588790 -0.600103
O13   O     O_R   0.644600 0.486480 0.411210 -0.621576
O14   O     O_R   0.644550 0.486570 0.578900 -0.647313
O15   O     O_R   0.355450 0.513430 0.421100 -0.618030
O16   O     O_2   0.530976 0.229127 0.148471 -0.515762
Zn1   Zn    Zn3+2 0.306930 0.518000 0.506610 0.972567
Zn2   Zn    Zn3+2 0.693070 0.482000 0.493390 0.953563

loop_
_geom_bond_atom_site_label_1
_geom_bond_atom_site_label_2
_ccdc_geom_bond_type
C2    C35   A    
O14   Zn2   S    
C11   O16   S    
C2    C4    A    
N3    N4    D    
C31   C33   A    
C32   C34   A    
C10   C35   S    
C23   H12   S    
C11   N1    A    
C1    O1    A    
C15   O4    S    
C2    H2    S    
C34   C36   A    
C28   H15   S    
C5    C23   A    
C27   H14   S    
C8    C12   S    
C23   C32   A    
C29   H3    S    
C29   O7    D    
C1    O10   A    
O12   Zn1   S    
C9    O12   A    
C30   H4    S    
O13   Zn2   S    
C16   C18   A    
C10   O15   A    
C14   O3    S    
C22   H1    S    
C3    C29   S    
C30   O8    D    
C20   C26   A    
C26   H11   S    
C31   H13   S    
O11   Zn1   S    
C24   H9    S    
C3    C36   A    
H7    N3    S    
C33   C35   A    
C8    H6    S    
C28   C33   S    
C6    C31   A    
C18   C20   A    
C7    H5    S    
N4    Zn1   S    
C9    C34   S    
C12   O11   A    
C14   C16   A    
C11   C20   A    
C17   C24   A    
C36   H16   S    
C6    N1    S    
C13   C21   A    
O10   Zn2   S    
C15   N2    A    
C3    C5    A    
C5    N2    S    
C7    C8    D    
C14   N1    A    
C9    O14   A    
C4    C6    A    
C13   N2    A    
C12   O9    A    
O15   Zn1   S    
C15   C17   A    
C21   C25   A    
C10   O13   A    
C18   C19   A    
H8    N4    S    
C16   C22   A    
C13   O2    S    
C27   O5    D    
C17   C19   A    
C27   C32   S    
C1    C7    S    
N3    Zn2   S    
O1    Zn1   S    
C25   H10   S    
C4    C30   S    
O9    Zn2   S    
C24   C26   A    
C19   C21   A    
C22   C25   A    
C28   O6    D    
