data_mof_unit_4592.cif
_audit_creation_date              2012-12-11T14:46:06-0500
_audit_creation_method            fapswitch 2.2
_symmetry_space_group_name_H-M    P1
_symmetry_Int_Tables_number       1
_space_group_crystal_system       triclinic
_cell_length_a                    10.978706
_cell_length_b                    11.006813
_cell_length_c                    18.860375
_cell_angle_alpha                 89.864572
_cell_angle_beta                  89.616286
_cell_angle_gamma                 120.177353
_cell_volume                      1970.13279975

loop_
_atom_site_label
_atom_site_type_symbol
_atom_type_description
_atom_site_fract_x
_atom_site_fract_y
_atom_site_fract_z
_atom_type_partial_charge
C1    C     C_R   0.865256 0.636744 0.603922 0.614857
C2    C     C_R   0.292126 0.553868 0.795158 -0.164552
C3    C     C_R   0.287700 0.539331 0.722570 0.068745
C4    C     C_R   0.308290 0.653732 0.679144 0.010655
C5    C     C_R   0.862091 0.172671 0.824084 -0.000003
C6    C     C_R   0.049557 0.108889 0.808516 0.114632
C7    C     C_R   0.099320 0.034845 0.767787 0.218007
C8    C     C_R   0.063002 0.007400 0.696864 -0.086132
C9    C     C_R   0.976779 0.050986 0.664605 0.230413
C10   C     C_R   0.918313 0.116519 0.706009 0.005659
C11   C     C_R   0.943495 0.132848 0.780476 -0.031940
C12   C     C_R   0.267013 0.629011 0.604869 0.584241
C13   C     C_R   0.739046 0.183584 0.720566 0.010277
C14   C     C_R   0.778519 0.219717 0.791298 -0.047236
C15   C     C_R   0.613858 0.178492 0.697108 0.328794
C16   C     C_R   0.559481 0.251123 0.735820 0.155155
C17   C     C_R   0.616705 0.309147 0.801194 -0.073722
C18   C     C_R   0.722365 0.290290 0.829782 -0.120851
C19   C     C_R   0.828070 0.158149 0.675247 0.042921
C20   C     C_R   0.739986 0.681646 0.701226 0.196460
C21   C     C_R   0.722085 0.691002 0.774249 -0.125057
C22   C     C_R   0.802877 0.665061 0.822804 -0.016428
C23   C     C_R   0.858218 0.223571 0.602804 0.612395
C24   C     C_R   0.898356 0.626177 0.799990 -0.118170
C25   C     C_R   0.911323 0.608143 0.727926 0.059900
C26   C     C_R   0.836502 0.641999 0.678548 0.106566
C27   C     C_R   0.267500 0.539433 0.275924 0.101948
C28   C     C_R   0.262106 0.554613 0.202716 0.252912
C29   C     C_R   0.335390 0.689445 0.173743 0.004048
C30   C     C_R   0.388820 0.808465 0.217322 -0.143620
C31   C     C_R   0.377084 0.794514 0.290710 0.206202
C32   C     C_R   0.313455 0.658407 0.320754 0.059411
C33   C     C_R   0.804138 0.265051 0.274001 0.207941
C34   C     C_R   0.869047 0.639197 0.396654 0.572696
C35   C     C_R   0.807663 0.247204 0.200946 0.050094
C36   C     C_R   0.846848 0.153213 0.175297 0.016633
C37   C     C_R   0.896345 0.086397 0.222274 0.164223
C38   C     C_R   0.893350 0.104842 0.295236 0.043798
C39   C     C_R   0.849432 0.195437 0.320761 0.047161
C40   C     C_R   0.961162 0.721311 0.276643 0.216403
C41   C     C_R   0.940447 0.714858 0.204385 -0.143836
C42   C     C_R   0.805572 0.654098 0.177144 -0.051155
C43   C     C_R   0.686247 0.587822 0.223079 0.251995
C44   C     C_R   0.705055 0.595569 0.296248 0.240962
C45   C     C_R   0.269579 0.631972 0.395422 0.556382
C46   C     C_R   0.842996 0.657581 0.323097 0.027215
C47   C     C_R   0.811636 0.106796 0.895642 0.574395
C48   C     C_R   0.394593 0.701558 0.896971 0.537123
C49   C     C_R   0.795465 0.693545 0.896550 0.538954
C50   C     C_R   0.806451 0.102323 0.103396 0.615320
C51   C     C_R   0.393574 0.704424 0.102899 0.598443
C52   C     C_R   0.794987 0.694004 0.105073 0.577446
C53   C     C_R   0.862762 0.232515 0.395121 0.624351
C54   C     C_R   0.339180 0.780977 0.710327 -0.056005
C55   C     C_R   0.356598 0.798953 0.783204 0.237028
C56   C     C_R   0.336049 0.683991 0.826098 -0.029868
Cr1   Cr    Cr6+3 0.791660 0.390250 0.499930 1.090273
Cr2   Cr    Cr6+3 0.098520 0.708290 0.500540 1.070342
Cr3   Cr    Cr6+3 0.109770 0.401430 0.499480 1.092300
Cr4   Cr    Cr6+3 0.874790 0.925890 0.000070 1.023302
Cr5   Cr    Cr6+3 0.574120 0.948670 0.999300 1.030092
Cr6   Cr    Cr6+3 0.551420 0.625320 0.000920 1.046566
H1    H     H_    0.346343 0.865554 0.678158 0.192319
H2    H     H_    0.575795 0.364953 0.831101 0.142074
H3    H     H_    0.649798 0.723941 0.793263 0.118851
H4    H     H_    0.960274 0.607356 0.838347 0.114425
H5    H     H_    0.447761 0.913284 0.194723 0.169642
H6    H     H_    0.031269 0.764042 0.169093 0.132155
H7    H     H_    0.271985 0.464446 0.827531 0.164038
H8    H     H_    0.104657 0.953014 0.666361 0.147930
H9    H     H_    0.760224 0.330569 0.882338 0.128538
O1    O     O_R   0.766500 0.250040 0.579790 -0.488739
O2    O     O_R   0.218690 0.701900 0.425960 -0.468951
O3    O     O_R   0.249490 0.516440 0.419420 -0.470000
O4    O     O_R   0.982880 0.281910 0.424890 -0.485718
O5    O     O_3   0.999980 0.499990 0.499980 -0.294383
O6    O     O_R   0.895110 0.806860 0.920430 -0.522015
O7    O     O_R   0.872260 0.046970 0.925000 -0.487274
O8    O     O_R   0.691430 0.085060 0.918550 -0.497848
O9    O     O_R   0.451490 0.822460 0.925250 -0.498054
O10   O     O_R   0.413330 0.603360 0.920440 -0.525272
O11   O     O_R   0.676110 0.626250 0.926750 -0.513859
O12   O     O_R   0.798570 0.516780 0.574780 -0.518532
O13   O     O_R   0.895350 0.809870 0.080950 -0.501486
O14   O     O_R   0.872490 0.049760 0.073800 -0.497598
O15   O     O_R   0.691680 0.088070 0.079070 -0.497590
O16   O     O_R   0.451720 0.825250 0.074050 -0.538678
O17   O     O_R   0.413580 0.606370 0.080960 -0.421728
O18   O     O_R   0.676340 0.629040 0.075550 -0.498421
O19   O     O_3   0.666780 0.833290 0.000090 -0.264709
O20   O     O_R   0.984000 0.732950 0.581090 -0.532218
O21   O     O_R   0.218600 0.700890 0.574760 -0.505890
O22   O     O_R   0.249390 0.515350 0.579940 -0.485152
O23   O     O_R   0.982790 0.280900 0.573700 -0.458517
O24   O     O_R   0.766600 0.251130 0.419260 -0.446198
O25   O     O_R   0.798660 0.517790 0.425980 -0.466246
O26   O     O_R   0.984100 0.734040 0.420570 -0.451354
N1    N     N_3   0.451107 0.272787 0.708376 -0.662271
H10   H     H_    0.360068 0.175534 0.702233 0.262673
H11   H     H_    0.484280 0.320383 0.658493 0.225531
O27   O     O_3   0.543999 0.094852 0.639594 -0.686362
H12   H     H_    0.462240 0.104514 0.626775 0.311866
O28   O     O_3   0.667605 0.712989 0.651724 -0.684362
H13   H     H_    0.608090 0.743545 0.676893 0.329995
N2    N     N_3   0.000539 0.555652 0.704424 -0.599564
H14   H     H_    0.938456 0.464204 0.675899 0.222683
H15   H     H_    0.035429 0.523473 0.748139 0.226096
N3    N     N_3   0.236564 0.405716 0.304325 -0.543017
H16   H     H_    0.129774 0.335454 0.298679 0.209612
H17   H     H_    0.294536 0.369234 0.276579 0.289018
O29   O     O_3   0.200047 0.440774 0.157324 -0.679785
H18   H     H_    0.139997 0.353304 0.184124 0.308897
O30   O     O_3   0.398471 0.930532 0.809507 -0.642464
H19   H     H_    0.351180 0.918470 0.855919 0.345732
O31   O     O_3   0.434242 0.915811 0.330465 -0.666195
H20   H     H_    0.448709 0.894038 0.379569 0.339053
O32   O     O_3   0.761146 0.353700 0.300856 -0.669048
H21   H     H_    0.683105 0.345025 0.271388 0.337895
N4    N     N_3   0.777507 0.328195 0.151751 -0.612491
H22   H     H_    0.672709 0.303098 0.157765 0.226209
H23   H     H_    0.844819 0.434417 0.162319 0.237763
O33   O     O_3   0.945531 0.000763 0.198714 -0.685254
H24   H     H_    0.022859 0.057422 0.164590 0.341187
N5    N     N_3   0.938064 0.034561 0.343633 -0.581468
H25   H     H_    0.873032 0.926399 0.336836 0.261004
H26   H     H_    0.041237 0.061197 0.330376 0.276012
O34   O     O_3   0.096854 0.789274 0.302596 -0.644986
H27   H     H_    0.163540 0.846447 0.264257 0.332938
O35   O     O_3   0.550074 0.519087 0.198600 -0.634110
H28   H     H_    0.545673 0.455282 0.160469 0.325613
O36   O     O_3   0.586365 0.537653 0.339256 -0.635893
H29   H     H_    0.613214 0.575905 0.387707 0.322230
N6    N     N_3   0.258445 0.406878 0.693437 -0.574326
H30   H     H_    0.349346 0.425674 0.666195 0.269703
H31   H     H_    0.242746 0.334447 0.733239 0.233729
O37   O     O_3   0.187836 0.991643 0.794394 -0.687860
H32   H     H_    0.188187 0.996335 0.846658 0.325914
N7    N     N_3   0.122815 0.180357 0.871809 -0.615493
H33   H     H_    0.113168 0.107247 0.910097 0.244902
H34   H     H_    0.230014 0.242144 0.859475 0.219654
O38   O     O_3   0.938220 0.018745 0.594502 -0.657720
H35   H     H_    0.991908 0.977744 0.572897 0.336153

loop_
_geom_bond_atom_site_label_1
_geom_bond_atom_site_label_2
_ccdc_geom_bond_type
C55   C56   A    
C33   O32   S    
O27   H12   S    
C53   O24   A    
O32   H21   S    
C41   C42   A    
C14   C18   A    
C35   N4    S    
O29   H18   S    
C47   O8    A    
Cr2   O5    S    
C7    C8    A    
C20   O28   S    
C39   C53   S    
N3    H16   S    
C44   O36   S    
C40   C46   A    
N2    H15   S    
Cr4   O7    S    
C33   C39   A    
Cr1   O5    S    
C36   C37   A    
C34   O25   A    
C5    C11   A    
C17   H2    S    
C29   C51   S    
C38   C39   A    
C54   H1    S    
Cr5   O9    S    
C15   C16   A    
Cr6   O18   S    
C34   O26   A    
C48   O10   A    
C45   O2    A    
C32   C45   S    
C52   O13   A    
Cr5   O16   S    
C50   O14   A    
C35   C36   A    
C49   O6    A    
C8    C9    A    
Cr1   O25   S    
Cr1   O12   S    
C34   C46   S    
Cr3   O23   S    
C4    C12   S    
C2    H7    S    
C9    C10   A    
C30   H5    S    
C24   H4    S    
C21   H3    S    
Cr6   O11   S    
C1    O20   A    
C13   C14   A    
C52   O18   A    
C53   O4    A    
Cr2   O26   S    
C31   O31   S    
C44   C46   A    
C41   H6    S    
N4    H23   S    
C28   O29   S    
Cr4   O6    S    
C1    C26   S    
C13   C19   A    
C25   N2    S    
C43   O35   S    
C24   C25   A    
Cr5   O15   S    
C51   O16   A    
C6    C11   A    
C9    O38   S    
C16   C17   A    
C55   O30   S    
C25   C26   A    
C40   O34   S    
Cr6   O17   S    
C45   O3    A    
C3    N6    S    
C49   O11   A    
C6    N7    S    
C19   C23   S    
C43   C44   A    
C37   C38   A    
C5    C47   S    
C31   C32   A    
C10   C19   A    
Cr4   O14   S    
C17   C18   A    
C15   O27   S    
Cr3   O3    S    
C5    C14   A    
N7    H34   S    
C22   C49   S    
C40   C41   A    
Cr6   O10   S    
N1    H11   S    
C10   C11   A    
C13   C15   A    
N6    H30   S    
C22   C24   A    
C12   O22   A    
C42   C43   A    
C3    C4    A    
Cr3   O4    S    
O28   H13   S    
C36   C50   S    
Cr5   O19   S    
N5    H26   S    
O30   H19   S    
Cr2   O20   S    
C18   H9    S    
C48   C56   S    
C54   C55   A    
C28   C29   A    
C4    C54   A    
C27   C32   A    
C23   O1    A    
C12   O21   A    
O37   H32   S    
C51   O17   A    
N4    H22   S    
C6    C7    A    
Cr4   O19   S    
C1    O12   A    
N2    H14   S    
C8    H8    S    
C23   O23   A    
C48   O9    A    
C2    C3    A    
O35   H28   S    
C7    O37   S    
C2    C56   A    
O38   H35   S    
Cr4   O13   S    
C16   N1    S    
O31   H20   S    
C30   C31   A    
C20   C26   A    
C27   N3    S    
Cr5   O8    S    
Cr6   O19   S    
C33   C35   A    
N3    H17   S    
Cr1   O1    S    
O36   H29   S    
N7    H33   S    
C50   O15   A    
C29   C30   A    
C37   O33   S    
C20   C21   A    
N1    H10   S    
Cr1   O24   S    
C27   C28   A    
N6    H31   S    
Cr3   O22   S    
C47   O7    A    
O33   H24   S    
C21   C22   A    
Cr2   O21   S    
Cr3   O5    S    
C38   N5    S    
O34   H27   S    
Cr2   O2    S    
C42   C52   S    
N5    H25   S    
