data_mof_unit_1223.cif
_audit_creation_date              2012-12-10T18:35:24-0500
_audit_creation_method            fapswitch 2.2
_symmetry_space_group_name_H-M    P1
_symmetry_Int_Tables_number       1
_space_group_crystal_system       triclinic
_cell_length_a                    15.129847
_cell_length_b                    13.976741
_cell_length_c                    10.774793
_cell_angle_alpha                 89.686595
_cell_angle_beta                  91.838884
_cell_angle_gamma                 90.242102
_cell_volume                      2277.27570532

loop_
_atom_site_label
_atom_site_type_symbol
_atom_type_description
_atom_site_fract_x
_atom_site_fract_y
_atom_site_fract_z
_atom_type_partial_charge
C1    C     C_R   0.330027 0.499888 0.499752 0.769159
C2    C     C_R   0.669921 0.500185 0.500680 0.767806
C3    C     C_R   0.048480 0.500722 0.501289 0.084445
C4    C     C_R   0.951338 0.500970 0.501687 0.086516
C5    C     C_R   0.541221 0.108269 0.599329 0.288259
C6    C     C_R   0.457572 0.891390 0.401014 0.286577
C7    C     C_R   0.430430 0.108713 0.438315 0.292590
C8    C     C_R   0.569903 0.891492 0.559993 0.289078
C9    C     C_R   0.549472 0.208757 0.587504 0.422636
C10   C     C_R   0.449377 0.790984 0.413587 0.419534
C11   C     C_R   0.439578 0.209114 0.427095 0.428235
C12   C     C_R   0.561341 0.791001 0.571233 0.426444
C13   C     C_R   0.494638 0.054749 0.506720 -0.091230
C14   C     C_R   0.504910 0.945177 0.492621 -0.091251
C15   C     C_R   0.500230 0.500226 0.263080 0.794137
C16   C     C_R   0.499781 0.499779 0.736923 0.792999
C17   C     C_R   0.663423 0.508179 0.136038 -0.123014
C18   C     C_R   0.336565 0.492509 0.863968 -0.122914
C19   C     C_R   0.663164 0.505910 0.877536 -0.046662
C20   C     C_R   0.336855 0.493892 0.122485 -0.045091
C21   C     C_R   0.743090 0.511090 0.074655 -0.114182
C22   C     C_R   0.256899 0.489586 0.925355 -0.113179
C23   C     C_R   0.742960 0.509859 0.945633 -0.087615
C24   C     C_R   0.257049 0.490254 0.054386 -0.088145
C25   C     C_R   0.581400 0.503146 0.938038 0.084003
C26   C     C_R   0.418611 0.496848 0.061973 0.084145
C27   C     C_R   0.581532 0.504068 0.068750 0.066694
C28   C     C_R   0.418471 0.496170 0.931258 0.066039
C29   C     C_R   0.499871 0.499347 0.870782 -0.133228
C30   C     C_R   0.500139 0.500688 0.129226 -0.133567
C31   C     C_R   0.096571 0.582990 0.535661 -0.150110
C32   C     C_R   0.905374 0.420156 0.543390 -0.155314
C33   C     C_R   0.903964 0.581773 0.460051 -0.148421
C34   C     C_R   0.093720 0.418044 0.466760 -0.154758
C35   C     C_R   0.188410 0.582789 0.534529 -0.143098
C36   C     C_R   0.813539 0.419736 0.542229 -0.152337
C37   C     C_R   0.812079 0.581837 0.460668 -0.142398
C38   C     C_R   0.185568 0.417440 0.467385 -0.150192
C39   C     C_R   0.233467 0.499947 0.500550 -0.060144
C40   C     C_R   0.766401 0.500628 0.501241 -0.054295
Cu1   Cu    Cu3+1 0.500000 0.596430 0.500000 1.054591
Cu2   Cu    Cu3+1 0.500000 0.403570 0.500000 1.056425
H1    H     H_    0.195129 0.488008 0.101984 0.149398
H2    H     H_    0.804885 0.511968 0.898039 0.149788
H3    H     H_    0.194859 0.486830 0.872524 0.148442
H4    H     H_    0.805116 0.514231 0.127483 0.147429
H5    H     H_    0.666753 0.509217 0.236353 0.110643
H6    H     H_    0.333218 0.491864 0.763650 0.112032
H7    H     H_    0.666322 0.504962 0.777392 0.139254
H8    H     H_    0.333709 0.494475 0.222639 0.139738
H9    H     H_    0.063274 0.647105 0.564813 0.154700
H10   H     H_    0.940399 0.357605 0.578087 0.155061
H11   H     H_    0.937847 0.644392 0.425474 0.153827
H12   H     H_    0.058115 0.354147 0.437921 0.157355
H13   H     H_    0.224112 0.647063 0.561740 0.182548
H14   H     H_    0.779579 0.356578 0.574833 0.207323
H15   H     H_    0.776788 0.644746 0.427585 0.182285
H16   H     H_    0.218849 0.352791 0.440511 0.213936
N1    N     N_R   0.500000 0.258690 0.500000 -0.290808
N2    N     N_R   0.500000 0.741310 0.500000 -0.295702
O1    O     O_R   0.371460 0.581430 0.500010 -0.549518
O2    O     O_R   0.628540 0.418570 0.499990 -0.551945
O3    O     O_R   0.628540 0.581430 0.499990 -0.549812
O4    O     O_R   0.371460 0.418570 0.500010 -0.553777
O5    O     O_R   0.499990 0.581440 0.319660 -0.536868
O6    O     O_R   0.500010 0.418560 0.680340 -0.532686
O7    O     O_R   0.500010 0.581440 0.680340 -0.537834
O8    O     O_R   0.499990 0.418560 0.319660 -0.532690
Cl1   Cl    Cl    0.559187 0.059398 0.750125 -0.385665
Cl2   Cl    Cl    0.439375 0.939290 0.249763 -0.385728
Cl3   Cl    Cl    0.323068 0.061019 0.409409 -0.432762
Cl4   Cl    Cl    0.676908 0.940212 0.588655 -0.429720
Cl5   Cl    Cl    0.623229 0.268162 0.691098 -0.511275
Cl6   Cl    Cl    0.374354 0.731208 0.312055 -0.487220
Cl7   Cl    Cl    0.369137 0.268899 0.319267 -0.512781
Cl8   Cl    Cl    0.633754 0.731143 0.676540 -0.486130

loop_
_geom_bond_atom_site_label_1
_geom_bond_atom_site_label_2
_ccdc_geom_bond_type
Cu1   Cu2   S    
C35   C39   A    
Cu1   O1    S    
Cu1   O7    S    
C7    C11   A    
C32   C36   A    
C28   C29   A    
C37   C40   A    
C7    Cl3   S    
C38   C39   A    
C15   O5    A    
C25   C29   A    
C32   H10   S    
C20   H8    S    
C38   H16   S    
C20   C24   A    
C5    Cl1   S    
Cu2   O2    S    
C5    C13   A    
C34   C38   A    
C13   C14   S    
C27   C30   A    
Cu2   O8    S    
C9    Cl5   S    
C11   N1    A    
C33   H11   S    
C8    Cl4   S    
C35   H13   S    
C17   C27   A    
C36   C40   A    
C18   C28   A    
C19   C23   A    
Cu1   O5    S    
C3    C34   A    
C16   C29   S    
C33   C37   A    
C23   H2    S    
C1    O1    A    
C9    N1    A    
C10   N2    A    
C5    C9    A    
C36   H14   S    
C6    C14   A    
C19   H7    S    
C8    C12   A    
C16   O7    A    
C3    C31   A    
C4    C32   A    
C34   H12   S    
C12   Cl8   S    
C31   C35   A    
C16   O6    A    
Cu1   O3    S    
C3    C4    S    
C1    O4    A    
Cu2   O4    S    
C2    O3    A    
C15   C30   S    
C21   H4    S    
C6    Cl2   S    
C4    C33   A    
C8    C14   A    
C18   C22   A    
C17   H5    S    
Cu1   N2    S    
C31   H9    S    
C18   H6    S    
Cu2   N1    S    
C6    C10   A    
C26   C30   A    
C25   C27   A    
C26   C28   A    
C21   C23   A    
C11   Cl7   S    
C10   Cl6   S    
C20   C26   A    
C15   O8    A    
C22   C24   A    
C19   C25   A    
C17   C21   A    
C1    C39   S    
C12   N2    A    
C2    C40   S    
C7    C13   A    
C22   H3    S    
Cu2   O6    S    
C24   H1    S    
C37   H15   S    
C2    O2    A    
