data_mof_unit_1962.cif
_audit_creation_date              2012-12-10T20:04:56-0500
_audit_creation_method            fapswitch 2.2
_symmetry_space_group_name_H-M    P1
_symmetry_Int_Tables_number       1
_space_group_crystal_system       triclinic
_cell_length_a                    15.893371
_cell_length_b                    15.893377
_cell_length_c                    25.984317
_cell_angle_alpha                 90.000031
_cell_angle_beta                  90.000016
_cell_angle_gamma                 89.860368
_cell_volume                      6563.60175812

loop_
_atom_site_label
_atom_site_type_symbol
_atom_type_description
_atom_site_fract_x
_atom_site_fract_y
_atom_site_fract_z
_atom_type_partial_charge
C1    C     C_R   1.000000 0.500000 0.446140 0.013067
C2    C     C_R   0.500000 1.000000 0.609816 0.633725
C3    C     C_R   0.000000 0.500000 0.390184 0.633724
C4    C     C_R   1.000000 0.500000 0.609896 0.641388
C5    C     C_R   1.000000 0.500000 0.890104 0.641387
C6    C     C_R   0.000000 0.500000 0.109816 0.633718
C7    C     C_R   0.500000 0.000000 0.890184 0.633724
C8    C     C_R   0.500000 1.000000 0.109896 0.641388
C9    C     C_R   0.339971 0.160029 0.250000 0.539978
C10   C     C_R   0.660032 0.839968 0.750000 0.598994
C11   C     C_R   0.839905 0.339905 0.250000 0.500027
C12   C     C_R   1.000000 0.500000 0.554208 0.022415
C13   C     C_R   0.160076 0.660076 0.750000 0.581266
C14   C     C_R   0.660029 0.839971 0.250000 0.539975
C15   C     C_R   0.339968 0.160032 0.750000 0.598995
C16   C     C_R   0.160095 0.660095 0.250000 0.500033
C17   C     C_R   0.839924 0.339924 0.750000 0.581265
C18   C     C_R   0.339905 0.839905 0.750000 0.500030
C19   C     C_R   0.660076 0.160076 0.250000 0.581266
C20   C     C_R   0.839971 0.660029 0.750000 0.539977
C21   C     C_R   0.160032 0.339968 0.250000 0.598998
C22   C     C_R   0.660095 0.160095 0.750000 0.500027
C23   C     C_R   0.500000 0.000000 0.445792 0.022415
C24   C     C_R   0.339924 0.839924 0.250000 0.581265
C25   C     C_R   0.160029 0.339971 0.750000 0.539976
C26   C     C_R   0.839968 0.660032 0.250000 0.598997
C27   C     C_1   0.276653 0.776652 0.250000 0.010865
C28   C     C_1   0.723364 0.223364 0.750000 -0.014821
C29   C     C_1   0.223330 0.276670 0.250000 0.037407
C30   C     C_1   0.776674 0.723326 0.750000 0.006232
C31   C     C_1   0.723347 0.223347 0.250000 0.010865
C32   C     C_1   0.276636 0.776636 0.750000 -0.014820
C33   C     C_1   0.776670 0.723330 0.250000 0.037407
C34   C     C_R   0.500000 0.000000 0.553859 0.013066
C35   C     C_1   0.223326 0.276674 0.750000 0.006232
C36   C     C_1   0.276670 0.223330 0.750000 0.037407
C37   C     C_1   0.723326 0.776674 0.250000 0.006232
C38   C     C_1   0.223347 0.723347 0.750000 0.010865
C39   C     C_1   0.776636 0.276636 0.250000 -0.014820
C40   C     C_1   0.723330 0.776670 0.750000 0.037406
C41   C     C_1   0.276674 0.223326 0.250000 0.006233
C42   C     C_1   0.776653 0.276653 0.750000 0.010864
C43   C     C_1   0.223364 0.723364 0.250000 -0.014818
C44   C     C_R   0.464738 0.845203 0.053184 0.249853
C45   C     C_R   0.500000 0.000000 0.946141 0.013066
C46   C     C_R   0.529671 0.155115 0.946973 0.211395
C47   C     C_R   0.844884 0.470329 0.053027 0.211395
C48   C     C_R   0.154797 0.535261 0.946816 0.249853
C49   C     C_R   0.535261 0.154797 0.053184 0.249852
C50   C     C_R   0.470329 0.844885 0.946973 0.211395
C51   C     C_R   0.155116 0.529670 0.053027 0.211376
C52   C     C_R   0.845203 0.464738 0.946816 0.249852
C53   C     C_R   0.964738 0.345203 0.553184 0.249853
C54   C     C_R   0.029671 0.655116 0.446973 0.211392
C55   C     C_R   0.344884 0.970329 0.553027 0.211391
C56   C     C_R   0.500000 1.000000 0.054208 0.022414
C57   C     C_R   0.654797 0.035262 0.446816 0.249852
C58   C     C_R   0.035261 0.654797 0.553184 0.249853
C59   C     C_R   0.970328 0.344885 0.446973 0.211400
C60   C     C_R   0.655115 0.029671 0.553027 0.211404
C61   C     C_R   0.345203 0.964738 0.446816 0.249853
C62   C     C_R   0.422346 0.782755 0.025782 -0.107763
C63   C     C_R   0.574264 0.217757 0.972658 -0.122933
C64   C     C_R   0.782243 0.425736 0.027342 -0.122933
C65   C     C_R   0.217245 0.577653 0.974218 -0.107760
C66   C     C_R   0.577653 0.217245 0.025782 -0.107762
C67   C     C_R   1.000000 0.500000 0.945792 0.022414
C68   C     C_R   0.425736 0.782243 0.972657 -0.122933
C69   C     C_R   0.217758 0.574263 0.027342 -0.122937
C70   C     C_R   0.782755 0.422347 0.974218 -0.107762
C71   C     C_R   0.922345 0.282756 0.525782 -0.107763
C72   C     C_R   0.074264 0.717758 0.472658 -0.122933
C73   C     C_R   0.282242 0.925736 0.527342 -0.122933
C74   C     C_R   0.717244 0.077654 0.474218 -0.107764
C75   C     C_R   0.077653 0.717245 0.525782 -0.107762
C76   C     C_R   0.925735 0.282243 0.472657 -0.122931
C77   C     C_R   0.717757 0.074265 0.527343 -0.122931
C78   C     C_R   0.000000 0.500000 0.053859 0.013068
C79   C     C_R   0.282755 0.922346 0.474218 -0.107762
C80   C     C_R   0.985134 0.423228 0.472842 -0.028454
C81   C     C_R   0.016398 0.576696 0.527583 -0.025721
C82   C     C_R   0.423304 0.983602 0.472417 -0.025720
C83   C     C_R   0.576772 0.014866 0.527158 -0.028454
C84   C     C_R   0.014865 0.576772 0.472842 -0.028454
C85   C     C_R   0.983602 0.423305 0.527583 -0.025721
C86   C     C_R   0.576696 0.016398 0.472417 -0.025721
C87   C     C_R   0.423227 0.985135 0.527158 -0.028454
C88   C     C_R   0.485135 0.923228 0.972842 -0.028454
C89   C     C_R   0.500000 0.000000 0.390104 0.641388
C90   C     C_R   0.516398 0.076695 0.027583 -0.025721
C91   C     C_R   0.923304 0.483602 0.972417 -0.025721
C92   C     C_R   0.076773 0.514865 0.027158 -0.028452
C93   C     C_R   0.514865 0.076772 0.972842 -0.028454
C94   C     C_R   0.483602 0.923304 0.027583 -0.025721
C95   C     C_R   0.076696 0.516397 0.972417 -0.025719
C96   C     C_R   0.923228 0.485135 0.027158 -0.028453
H1    H     H_    0.600177 0.273291 0.045019 0.165882
H2    H     H_    0.906306 0.225740 0.452648 0.161025
H3    H     H_    0.774260 0.093693 0.547352 0.161025
H4    H     H_    0.226709 0.899822 0.454981 0.165882
H5    H     H_    0.899821 0.226709 0.545019 0.165881
H6    H     H_    0.093692 0.774260 0.452648 0.161025
H7    H     H_    0.225740 0.906307 0.547351 0.161024
H8    H     H_    0.773291 0.100179 0.454981 0.165882
H9    H     H_    0.648636 0.802426 0.131195 0.377648
H10   H     H_    0.566229 0.202966 0.836167 0.330850
H11   H     H_    0.797036 0.433772 0.163833 0.330849
H12   H     H_    0.406307 0.725740 0.952648 0.161025
H13   H     H_    0.197575 0.351363 0.868807 0.377650
H14   H     H_    0.351363 0.197576 0.131193 0.377650
H15   H     H_    0.433772 0.797035 0.836167 0.330850
H16   H     H_    0.202945 0.566244 0.163824 0.330842
H17   H     H_    0.802424 0.648636 0.868807 0.377650
H18   H     H_    0.148635 0.302426 0.631195 0.377647
H19   H     H_    0.066230 0.702961 0.336168 0.330849
H20   H     H_    0.297039 0.933768 0.663831 0.330847
H21   H     H_    0.697576 0.851364 0.368807 0.377650
H22   H     H_    0.851363 0.697574 0.631193 0.377649
H23   H     H_    0.274261 0.593691 0.047351 0.161024
H24   H     H_    0.933777 0.297031 0.336164 0.330854
H25   H     H_    0.702974 0.066219 0.663839 0.330855
H26   H     H_    0.302425 0.148637 0.368807 0.377649
H27   H     H_    0.726708 0.399822 0.954981 0.165882
H28   H     H_    0.399822 0.726709 0.045019 0.165882
H29   H     H_    0.593692 0.274260 0.952649 0.161025
H30   H     H_    0.725740 0.406308 0.047352 0.161025
H31   H     H_    0.273292 0.600177 0.954981 0.165882
H32   H     H_    0.100177 0.773292 0.545019 0.165882
O1    O     O_3   0.500000 0.000000 0.250000 -0.458082
O2    O     O_R   0.500000 0.930770 0.634140 -0.471108
O3    O     O_3   0.342494 0.117334 0.390896 -0.489321
O4    O     O_R   0.930770 0.500000 0.365860 -0.471105
O5    O     O_R   0.069230 0.500000 0.634140 -0.469929
O6    O     O_R   0.000000 0.430770 0.865860 -0.469926
O7    O     O_R   0.000000 0.569230 0.134140 -0.471116
O8    O     O_R   0.569230 0.000000 0.865860 -0.471106
O9    O     O_R   0.430770 0.000000 0.134140 -0.469927
O10   O     O_R   0.000000 0.569230 0.865860 -0.469927
O11   O     O_R   1.000000 0.430770 0.134140 -0.471107
O12   O     O_R   0.430770 0.000000 0.865860 -0.471108
O13   O     O_3   0.500000 0.000000 0.750000 -0.436020
O14   O     O_R   0.569230 0.000000 0.134140 -0.469928
O15   O     O_R   0.402550 0.166630 0.280410 -0.512147
O16   O     O_R   0.597450 0.833370 0.719590 -0.488794
O17   O     O_R   0.833370 0.402550 0.280410 -0.523603
O18   O     O_R   0.166630 0.597450 0.719590 -0.506097
O19   O     O_R   0.597450 0.833370 0.280410 -0.512147
O20   O     O_R   0.402550 0.166630 0.719590 -0.488795
O21   O     O_R   0.166630 0.597450 0.280410 -0.523602
O22   O     O_R   0.833370 0.402550 0.719590 -0.506097
O23   O     O_R   0.402550 0.833370 0.719590 -0.523609
O24   O     O_3   0.000000 0.500000 0.250000 -0.436020
O25   O     O_R   0.597450 0.166630 0.280410 -0.506097
O26   O     O_R   0.833370 0.597450 0.719590 -0.512147
O27   O     O_R   0.166630 0.402550 0.280410 -0.488791
O28   O     O_R   0.597450 0.166630 0.719590 -0.523601
O29   O     O_R   0.402550 0.833370 0.280410 -0.506096
O30   O     O_R   0.166630 0.402550 0.719590 -0.512150
O31   O     O_R   0.833370 0.597450 0.280410 -0.488794
O32   O     O_R   0.902550 0.666630 0.780410 -0.512147
O33   O     O_R   0.097450 0.333370 0.219590 -0.488795
O34   O     O_R   0.333370 0.902550 0.780410 -0.523606
O35   O     O_3   0.000000 0.500000 0.750000 -0.458082
O36   O     O_R   0.666630 0.097450 0.219590 -0.506098
O37   O     O_R   0.097450 0.333370 0.780410 -0.512147
O38   O     O_R   0.902550 0.666630 0.219590 -0.488792
O39   O     O_R   0.666630 0.097450 0.780410 -0.523610
O40   O     O_R   0.333370 0.902550 0.219590 -0.506098
O41   O     O_R   0.902550 0.333370 0.219590 -0.523610
O42   O     O_R   0.097450 0.666630 0.780410 -0.506098
O43   O     O_R   0.333370 0.097450 0.219590 -0.512147
O44   O     O_R   0.666630 0.902550 0.780410 -0.488796
O45   O     O_R   0.097450 0.666630 0.219590 -0.523619
O46   O     O_R   0.500000 0.930770 0.365860 -0.469927
O47   O     O_R   0.902550 0.333370 0.780410 -0.506097
O48   O     O_R   0.666630 0.902550 0.219590 -0.512150
O49   O     O_R   0.333370 0.097450 0.780410 -0.488794
O50   O     O_2   0.473488 0.837743 0.157425 -0.328280
O51   O     O_2   0.518395 0.713646 0.109750 -0.247170
O52   O     O_3   0.617333 0.842494 0.109105 -0.489319
O53   O     O_2   0.382894 0.153895 0.895138 -0.224023
O54   O     O_2   0.460830 0.285363 0.895482 -0.236376
O55   O     O_3   0.516711 0.165411 0.837868 -0.548739
O56   O     O_2   0.846104 0.617107 0.104861 -0.224020
O57   O     O_R   0.500000 0.069230 0.634140 -0.471103
O58   O     O_2   0.714637 0.539171 0.104518 -0.236374
O59   O     O_3   0.834590 0.483291 0.162132 -0.548738
O60   O     O_2   0.162257 0.526511 0.842574 -0.328279
O61   O     O_2   0.286353 0.481604 0.890249 -0.247173
O62   O     O_3   0.157505 0.382666 0.890895 -0.489322
O63   O     O_2   0.526511 0.162257 0.157426 -0.328278
O64   O     O_2   0.481604 0.286353 0.109750 -0.247173
O65   O     O_3   0.382666 0.157505 0.109105 -0.489322
O66   O     O_2   0.617107 0.846104 0.895138 -0.224021
O67   O     O_2   0.539171 0.714637 0.895482 -0.236375
O68   O     O_R   0.069230 0.500000 0.365860 -0.471109
O69   O     O_3   0.483290 0.834589 0.837868 -0.548740
O70   O     O_2   0.153896 0.382893 0.104862 -0.224021
O71   O     O_2   0.285364 0.460829 0.104518 -0.236360
O72   O     O_3   0.165411 0.516710 0.162131 -0.548733
O73   O     O_2   0.837743 0.473488 0.842574 -0.328279
O74   O     O_2   0.713646 0.518395 0.890250 -0.247173
O75   O     O_3   0.842494 0.617333 0.890895 -0.489322
O76   O     O_2   0.973489 0.337743 0.657425 -0.328282
O77   O     O_2   0.018395 0.213646 0.609750 -0.247171
O78   O     O_3   0.117333 0.342494 0.609104 -0.489318
O79   O     O_R   0.930770 0.500000 0.634140 -0.469926
O80   O     O_2   0.882893 0.653896 0.395138 -0.224022
O81   O     O_2   0.960830 0.785363 0.395482 -0.236373
O82   O     O_3   0.016709 0.665410 0.337868 -0.548740
O83   O     O_2   0.346104 0.117107 0.604862 -0.224021
O84   O     O_2   0.214636 0.039170 0.604518 -0.236372
O85   O     O_3   0.334589 0.983290 0.662132 -0.548738
O86   O     O_2   0.662257 0.026512 0.342575 -0.328279
O87   O     O_2   0.786354 0.981606 0.390250 -0.247173
O88   O     O_3   0.657506 0.882667 0.390896 -0.489322
O89   O     O_2   0.026513 0.662258 0.657425 -0.328279
O90   O     O_R   0.500000 0.069230 0.365860 -0.469927
O91   O     O_2   0.981602 0.786354 0.609750 -0.247172
O92   O     O_3   0.882666 0.657503 0.609105 -0.489322
O93   O     O_2   0.117107 0.346104 0.395139 -0.224022
O94   O     O_2   0.039170 0.214636 0.395482 -0.236378
O95   O     O_3   0.983291 0.334589 0.337868 -0.548745
O96   O     O_2   0.653896 0.882893 0.604861 -0.224022
O97   O     O_2   0.785363 0.960830 0.604518 -0.236382
O98   O     O_3   0.665410 0.016709 0.662132 -0.548745
O99   O     O_2   0.337743 0.973489 0.342574 -0.328279
O100  O     O_2   0.213646 0.018395 0.390250 -0.247173
S1    S     S_3+6 0.517245 0.808318 0.109493 0.022114
S2    S     S_3+6 0.969639 0.691154 0.393479 0.028914
S3    S     S_3+6 0.308845 0.030360 0.606521 0.028915
S4    S     S_3+6 0.691682 0.982755 0.390507 0.022113
S5    S     S_3+6 0.982754 0.691681 0.609493 0.022112
S6    S     S_3+6 0.030360 0.308845 0.393479 0.028913
S7    S     S_3+6 0.691154 0.969639 0.606521 0.028913
S8    S     S_3+6 0.308318 0.017245 0.390507 0.022113
S9    S     S_3+6 0.469640 0.191154 0.893479 0.028914
S10   S     S_3+6 0.808846 0.530361 0.106521 0.028916
S11   S     S_3+6 0.191682 0.482754 0.890507 0.022113
S12   S     S_3+6 0.482754 0.191681 0.109493 0.022113
S13   S     S_3+6 0.530361 0.808846 0.893479 0.028914
S14   S     S_3+6 0.191155 0.469639 0.106521 0.028917
S15   S     S_3+6 0.808318 0.517245 0.890507 0.022113
S16   S     S_3+6 0.017245 0.308318 0.609493 0.022113
Zn1   Zn    Zn3+2 0.401050 0.000000 0.206670 1.112444
Zn2   Zn    Zn3+2 0.098950 0.500000 0.293330 1.108594
Zn3   Zn    Zn3+2 0.500000 0.901050 0.706670 1.108588
Zn4   Zn    Zn3+2 0.500000 0.098950 0.293330 1.112445
Zn5   Zn    Zn3+2 0.098950 0.500000 0.706670 1.112443
Zn6   Zn    Zn3+2 0.901050 0.500000 0.293330 1.108591
Zn7   Zn    Zn3+2 0.500000 0.098950 0.706670 1.108593
Zn8   Zn    Zn3+2 0.500000 0.901050 0.293330 1.112444
Zn9   Zn    Zn3+2 0.598950 0.000000 0.793330 1.108587
Zn10  Zn    Zn3+2 0.000000 0.401050 0.206670 1.108587
Zn11  Zn    Zn3+2 0.000000 0.598950 0.793330 1.112444
Zn12  Zn    Zn3+2 0.598950 0.000000 0.206670 1.112442
Zn13  Zn    Zn3+2 0.401050 0.000000 0.793330 1.108590
Zn14  Zn    Zn3+2 1.000000 0.598950 0.206670 1.108582
Zn15  Zn    Zn3+2 0.000000 0.401050 0.793330 1.112444
Zn16  Zn    Zn3+2 0.901050 0.500000 0.706670 1.112444

loop_
_geom_bond_atom_site_label_1
_geom_bond_atom_site_label_2
_ccdc_geom_bond_type
C16   O45   A    
O52   S1    S    
O21   Zn2   S    
O39   Zn9   S    
C23   C82   A    
O5    Zn5   S    
O93   S6    D    
O91   S5    D    
O79   Zn16  S    
C35   C36   T    
O30   Zn5   S    
C49   C90   A    
C5    C67   S    
C58   S5    S    
C19   C31   S    
C8    C56   S    
O24   Zn6   S    
O80   S2    D    
C9    O15   A    
O28   Zn7   S    
O4    Zn6   S    
C5    O10   A    
C20   C30   S    
O70   S14   D    
C1    C84   A    
C56   C94   A    
O99   S8    D    
O69   S13   S    
C80   C85   A    
O83   S3    D    
C12   C85   A    
O43   Zn1   S    
C7    C45   S    
O32   Zn11  S    
O51   S1    D    
O66   S13   D    
O96   S7    D    
C19   O36   A    
C61   C82   A    
C49   S12   S    
O23   Zn3   S    
C7    O12   A    
C60   C83   A    
O64   S12   D    
O57   Zn7   S    
O19   Zn8   S    
C17   O47   A    
C10   O44   A    
C82   C87   A    
O25   Zn4   S    
H11   O59   S    
O14   Zn12  S    
C57   C86   A    
C19   O25   A    
C10   C40   S    
C75   H32   S    
C46   S9    S    
C6    O11   A    
C17   C42   S    
C14   O48   A    
C61   S8    S    
C2    O2    A    
C91   C96   A    
O58   S10   D    
C70   H27   S    
C26   O38   A    
C17   O22   A    
O34   Zn13  S    
C78   C96   A    
O6    Zn15  S    
O7    Zn14  S    
C74   C77   A    
C89   O46   A    
C47   C96   A    
C24   C27   S    
C16   O21   A    
C64   C70   A    
C48   C65   A    
C4    C12   S    
O77   S16   D    
O24   Zn2   S    
O38   Zn14  S    
C50   C88   A    
C34   C87   A    
C53   S16   S    
C29   C41   T    
C50   S13   S    
C56   C90   A    
O40   Zn1   S    
C71   H5    S    
O1    Zn8   S    
O86   S4    D    
C22   C28   S    
C67   C95   A    
O45   Zn14  S    
O36   Zn12  S    
C60   S7    S    
C13   O18   A    
C72   C75   A    
O56   S10   D    
O33   Zn10  S    
O76   S16   D    
C58   C75   A    
C21   O27   A    
C5    O6    A    
C89   O90   A    
C88   C94   A    
O44   Zn9   S    
C21   O33   A    
O12   Zn13  S    
O62   S11   S    
O18   Zn5   S    
O87   S4    D    
O97   S7    D    
C55   S3    S    
O8    Zn9   S    
O35   Zn5   S    
C45   C88   A    
C52   C70   A    
O50   S1    D    
C79   H4    S    
C49   C66   A    
C52   S15   S    
O89   S5    D    
C60   C77   A    
O84   S3    D    
C24   O29   A    
C11   O17   A    
C22   O28   A    
C54   C72   A    
C44   C62   A    
C21   C29   S    
C14   O19   A    
C23   C86   A    
C92   C95   A    
C33   C37   T    
H25   O98   S    
H18   O78   S    
C8    O9    A    
C1    C3    S    
O90   Zn4   S    
C57   C74   A    
H21   O88   S    
O35   Zn11  S    
C44   S1    S    
O65   S12   S    
C6    O7    A    
O95   S6    S    
C27   C43   T    
C51   C92   A    
O48   Zn12  S    
C47   S10   S    
O9    Zn1   S    
C78   C92   A    
O17   Zn6   S    
C26   C33   S    
O46   Zn8   S    
O1    Zn12  S    
C73   H7    S    
H13   O62   S    
O2    Zn3   S    
C55   C73   A    
O11   Zn10  S    
H14   O65   S    
C67   C91   A    
C23   C89   S    
O82   S2    S    
C30   C40   T    
C26   O31   A    
C10   O16   A    
C11   C39   S    
C16   C43   S    
C13   C38   S    
C63   H29   S    
C20   O26   A    
C25   C35   S    
C55   C87   A    
C22   O39   A    
O42   Zn11  S    
C13   O42   A    
O37   Zn15  S    
C45   C93   A    
C11   O41   A    
H24   O95   S    
C32   C38   T    
C15   O49   A    
H22   O92   S    
C48   C95   A    
O13   Zn7   S    
C58   C81   A    
C59   S6    S    
C18   C32   S    
C34   C83   A    
H9    O52   S    
O49   Zn13  S    
C18   O23   A    
C53   C71   A    
O29   Zn8   S    
O72   S14   S    
C15   C36   S    
C47   C64   A    
C48   S11   S    
O26   Zn16  S    
C66   H1    S    
C90   C93   A    
C74   H8    S    
O27   Zn2   S    
O53   S9    D    
O63   S12   D    
C57   S4    S    
C9    O43   A    
O94   S6    D    
O20   Zn7   S    
O59   S10   S    
H19   O82   S    
C24   O40   A    
C54   S2    S    
C9    C41   S    
O41   Zn10  S    
C65   H31   S    
O78   S16   S    
C62   H28   S    
O31   Zn6   S    
H20   O85   S    
C73   C79   A    
O85   S3    S    
C59   C80   A    
C8    O14   A    
C3    O4    A    
C81   C84   A    
C15   O20   A    
C44   C94   A    
O35   Zn15  S    
O3    S8    S    
C68   H12   S    
C64   H30   S    
C3    O68   A    
O73   S15   D    
C62   C68   A    
C46   C63   A    
C25   O37   A    
C2    O57   A    
O13   Zn9   S    
C7    O8    A    
O60   S11   D    
O55   S9    S    
C14   C37   S    
O24   Zn10  S    
C18   O34   A    
C2    C34   S    
H26   O3    S    
C71   C76   A    
C46   C93   A    
C72   H6    S    
C61   C79   A    
C65   C69   A    
O74   S15   D    
O35   Zn16  S    
C28   C42   T    
O13   Zn3   S    
C69   H23   S    
C12   C81   A    
C77   H3    S    
C76   H2    S    
O68   Zn2   S    
O81   S2    D    
H17   O75   S    
O67   S13   D    
C54   C84   A    
H10   O55   S    
O100  S8    D    
C6    C78   S    
O98   S7    S    
C51   S14   S    
O24   Zn14  S    
O1    Zn1   S    
C83   C86   A    
O75   S15   S    
O54   S9    D    
O15   Zn4   S    
C20   O32   A    
O16   Zn3   S    
O47   Zn15  S    
C25   O30   A    
C31   C39   T    
C1    C80   A    
O13   Zn13  S    
C4    O79   A    
O88   S4    S    
C52   C91   A    
C53   C85   A    
O92   S5    S    
C51   C69   A    
C50   C68   A    
C59   C76   A    
H16   O72   S    
H15   O69   S    
C63   C66   A    
O10   Zn11  S    
O71   S14   D    
O22   Zn16  S    
C4    O5    A    
O1    Zn4   S    
O61   S11   D    
