data_mof_unit_3383.cif
_audit_creation_date              2012-12-11T15:59:32-0500
_audit_creation_method            fapswitch 2.2
_symmetry_space_group_name_H-M    P1
_symmetry_Int_Tables_number       1
_space_group_crystal_system       triclinic
_cell_length_a                    10.752351
_cell_length_b                    10.758799
_cell_length_c                    17.107534
_cell_angle_alpha                 99.639797
_cell_angle_beta                  99.544753
_cell_angle_gamma                 60.721114
_cell_volume                      1693.71898588

loop_
_atom_site_label
_atom_site_type_symbol
_atom_type_description
_atom_site_fract_x
_atom_site_fract_y
_atom_site_fract_z
_atom_type_partial_charge
C1    C     C_R   0.356266 0.771268 0.398505 0.539437
C2    C     C_R   0.840738 0.217144 0.199385 0.012198
C3    C     C_R   0.861461 0.205489 0.282442 0.048998
C4    C     C_R   0.887482 0.420795 0.307021 -0.148260
C5    C     C_R   0.890581 0.418715 0.226878 -0.143331
C6    C     C_R   0.805776 0.120098 0.147228 -0.079213
C7    C     C_R   0.820521 0.998593 0.174307 -0.117779
C8    C     C_R   0.866849 0.974129 0.253708 -0.105078
C9    C     C_R   0.883672 0.077079 0.309098 0.030658
C10   C     C_R   0.859393 0.323082 0.334709 -0.006538
C11   C     C_R   0.342161 0.815691 0.156111 -0.004132
C12   C     C_R   0.369980 0.346581 0.357426 0.566265
C13   C     C_R   0.461696 0.807771 0.206989 0.026645
C14   C     C_R   0.457861 0.819819 0.290366 0.026301
C15   C     C_R   0.239286 0.797397 0.264643 -0.146120
C16   C     C_R   0.239491 0.796034 0.184898 -0.142275
C17   C     C_R   0.586738 0.781450 0.176456 -0.079067
C18   C     C_R   0.703555 0.774737 0.227753 -0.121823
C19   C     C_R   0.693401 0.806590 0.309566 -0.113679
C20   C     C_R   0.569905 0.833283 0.340674 -0.066613
C21   C     C_R   0.344909 0.812265 0.319240 0.000423
C22   C     C_R   0.299737 0.276556 0.799608 -0.005096
C23   C     C_R   0.781497 0.373566 0.405660 0.547930
C24   C     C_R   0.426214 0.176698 0.763040 0.034000
C25   C     C_R   0.477893 0.225701 0.712159 0.034706
C26   C     C_R   0.248055 0.444873 0.706329 -0.148960
C27   C     C_R   0.210386 0.409220 0.769669 -0.148289
C28   C     C_R   0.506860 0.031356 0.778828 -0.086979
C29   C     C_R   0.645198 0.945656 0.756589 -0.111565
C30   C     C_R   0.706056 0.003541 0.718469 -0.116260
C31   C     C_R   0.623510 0.142219 0.696541 -0.088591
C32   C     C_R   0.380606 0.353230 0.676259 -0.004389
C33   C     C_1   0.818411 0.341955 0.708930 -0.061187
C34   C     C_R   0.358179 0.768604 0.627517 0.548365
C35   C     C_1   0.845950 0.313564 0.776555 -0.051111
C36   C     C_1   0.339027 0.809096 0.709503 -0.054149
C37   C     C_1   0.313242 0.837102 0.777552 -0.061819
C38   C     C_R   0.897497 0.307791 0.090306 0.539932
C39   C     C_R   0.318843 0.299718 0.120146 0.562974
C40   C     C_R   0.297000 0.885436 0.082898 0.544601
C41   C     C_R   0.887300 0.297031 0.858820 0.548886
C42   C     C_R   0.279330 0.252910 0.877279 0.544177
C43   C     C_R   0.279104 0.884624 0.857300 0.538394
C44   C     C_R   0.407133 0.375222 0.599864 0.547537
C45   C     C_R   0.773083 0.380790 0.629781 0.537339
C46   C     C_1   0.343287 0.336359 0.274129 -0.034291
C47   C     C_1   0.331319 0.326597 0.203398 -0.034813
C48   C     C_R   0.861001 0.322319 0.171439 -0.000135
Cr1   Cr    Cr6+3 0.608100 0.610860 0.522250 1.015444
Cr2   Cr    Cr6+3 0.288890 0.599990 0.488420 1.000411
Cr3   Cr    Cr6+3 0.603040 0.289190 0.489390 0.994508
Cr4   Cr    Cr6+3 0.053960 0.052250 0.967380 1.018703
Cr5   Cr    Cr6+3 0.059890 0.373160 0.992710 1.010846
Cr6   Cr    Cr6+3 0.373370 0.061690 0.991710 1.004435
H1    H     H_    0.897999 0.505461 0.346855 0.142998
H2    H     H_    0.801884 0.743868 0.203132 0.091884
H3    H     H_    0.782399 0.807177 0.349508 0.093251
H4    H     H_    0.564892 0.863084 0.403991 0.137439
H5    H     H_    0.173663 0.544258 0.681064 0.145534
H6    H     H_    0.464801 0.983476 0.809366 0.152553
H7    H     H_    0.111949 0.485712 0.795457 0.145449
H8    H     H_    0.706349 0.835942 0.771106 0.121593
H9    H     H_    0.815825 0.940073 0.704033 0.118311
H10   H     H_    0.674532 0.182269 0.666728 0.154177
H11   H     H_    0.769347 0.135567 0.085085 0.137236
H12   H     H_    0.918312 0.492866 0.208725 0.143142
H13   H     H_    0.802359 0.920208 0.132674 0.106104
H14   H     H_    0.894813 0.872551 0.272644 0.091613
H15   H     H_    0.157314 0.780567 0.282512 0.140425
H16   H     H_    0.597998 0.757232 0.113195 0.124737
H17   H     H_    0.151450 0.789909 0.146309 0.148258
O1    O     O_R   0.749810 0.499790 0.438040 -0.516867
O2    O     O_R   0.298970 0.468800 0.557390 -0.496952
O3    O     O_R   0.489400 0.255930 0.561910 -0.520524
O4    O     O_R   0.723890 0.306050 0.584610 -0.542531
O5    O     O_3   0.500010 0.500010 0.500020 -0.263856
O6    O     O_R   0.171100 0.914680 0.053100 -0.517551
O7    O     O_R   0.941680 0.184840 0.050710 -0.500915
O8    O     O_R   0.922080 0.403420 0.072610 -0.527112
O9    O     O_R   0.196880 0.369150 0.083850 -0.500103
O10   O     O_R   0.411730 0.181020 0.091530 -0.502107
O11   O     O_R   0.365010 0.944360 0.063320 -0.502662
O12   O     O_R   0.477660 0.726260 0.439290 -0.502340
O13   O     O_R   0.159380 0.906670 0.876210 -0.502761
O14   O     O_R   0.930820 0.177420 0.886730 -0.493429
O15   O     O_R   0.910360 0.395420 0.895720 -0.522073
O16   O     O_R   0.186010 0.361730 0.919870 -0.496426
O17   O     O_R   0.400000 0.173010 0.914630 -0.517130
O18   O     O_R   0.354140 0.936940 0.899340 -0.538699
O19   O     O_3   0.162410 0.162370 0.983930 -0.266352
O20   O     O_R   0.260150 0.743000 0.412270 -0.540894
O21   O     O_R   0.297740 0.466550 0.394720 -0.499964
O22   O     O_R   0.488080 0.253500 0.386430 -0.500814
O23   O     O_R   0.722670 0.303800 0.421940 -0.499687
O24   O     O_R   0.751130 0.502220 0.613520 -0.503506
O25   O     O_R   0.478890 0.728510 0.601960 -0.492901
O26   O     O_R   0.261470 0.745430 0.587750 -0.524688
C49   C     C_3   0.941151 0.036524 0.392905 -0.365117
H18   H     H_    0.023552 0.923616 0.391317 0.140355
H19   H     H_    0.991158 0.100991 0.426629 0.130524
H20   H     H_    0.854947 0.045394 0.424889 0.149805

loop_
_geom_bond_atom_site_label_1
_geom_bond_atom_site_label_2
_ccdc_geom_bond_type
C25   C31   A    
C1    C21   S    
C9    C49   S    
C33   C45   S    
Cr4   O19   S    
C19   C20   A    
Cr3   O3    S    
C7    C8    A    
C19   H3    S    
C26   C32   A    
C41   O15   A    
C26   C27   A    
C43   O18   A    
C14   C21   A    
C28   C29   A    
Cr5   O8    S    
C34   O25   A    
Cr6   O19   S    
C30   C31   A    
C38   O8    A    
C15   C16   A    
C34   O26   A    
C14   C20   A    
C18   C19   A    
Cr4   O13   S    
C27   H7    S    
C46   C47   T    
C6    H11   S    
C8    C9    A    
Cr1   O1    S    
Cr5   O15   S    
C26   H5    S    
C38   C48   S    
C18   H2    S    
C25   C32   A    
C17   H16   S    
C1    O20   A    
C30   H9    S    
C43   O13   A    
C2    C6    A    
C16   H17   S    
Cr4   O7    S    
C23   O1    A    
C28   H6    S    
C15   H15   S    
C5    C48   A    
C40   O11   A    
Cr5   O9    S    
C24   C25   A    
C39   O10   A    
Cr6   O18   S    
C12   C46   S    
Cr2   O2    S    
C5    H12   S    
C38   O7    A    
C2    C48   A    
Cr1   O24   S    
C37   C43   S    
C29   C30   A    
C3    C9    A    
Cr2   O5    S    
C11   C16   A    
C17   C18   A    
C32   C44   S    
Cr1   O5    S    
Cr5   O16   S    
Cr3   O5    S    
C44   O3    A    
Cr3   O22   S    
Cr2   O21   S    
C8    H14   S    
C49   H19   S    
C22   C27   A    
C4    H1    S    
C22   C24   A    
C12   O22   A    
C42   O17   A    
C4    C10   A    
Cr4   O6    S    
C45   O24   A    
Cr6   O11   S    
C39   C47   S    
C44   O2    A    
C29   H8    S    
Cr4   O14   S    
Cr2   O26   S    
C31   H10   S    
C12   O21   A    
C24   C28   A    
Cr3   O4    S    
C4    C5    A    
C6    C7    A    
C10   C23   S    
C1    O12   A    
C49   H20   S    
C41   O14   A    
C23   O23   A    
C13   C17   A    
C45   O4    A    
C39   O9    A    
Cr1   O12   S    
C2    C3    A    
C3    C10   A    
Cr6   O17   S    
C11   C13   A    
C22   C42   S    
C33   C35   T    
C34   C36   S    
Cr1   O25   S    
C11   C40   S    
C35   C41   S    
Cr3   O23   S    
C7    H13   S    
Cr2   O20   S    
C15   C21   A    
C36   C37   T    
C49   H18   S    
Cr5   O19   S    
C40   O6    A    
C42   O16   A    
C13   C14   A    
C20   H4    S    
Cr6   O10   S    
