data_mof_unit_2547.cif
_audit_creation_date              2012-12-10T16:34:41-0500
_audit_creation_method            fapswitch 2.2
_symmetry_space_group_name_H-M    P1
_symmetry_Int_Tables_number       1
_space_group_crystal_system       monoclinic
_cell_length_a                    28.217066
_cell_length_b                    18.423487
_cell_length_c                    17.107342
_cell_angle_alpha                 90.0
_cell_angle_beta                  60.831944
_cell_angle_gamma                 90.0
_cell_volume                      7765.63430962

loop_
_atom_site_label
_atom_site_type_symbol
_atom_type_description
_atom_site_fract_x
_atom_site_fract_y
_atom_site_fract_z
_atom_type_partial_charge
C1    C     C_R   0.701750 0.268375 0.675891 0.923438
C2    C     C_R   0.298250 0.731624 0.324109 0.923439
C3    C     C_R   0.298250 0.268376 0.324109 0.923439
C4    C     C_R   0.701750 0.731624 0.675891 0.923439
C5    C     C_R   0.201750 0.768376 0.675891 0.923439
C6    C     C_R   0.798250 0.231625 0.324109 0.923438
C7    C     C_R   0.798250 0.768376 0.324109 0.923438
C8    C     C_R   0.201750 0.231624 0.675891 0.923438
C9    C     C_R   0.916348 0.500000 0.453964 0.067951
C10   C     C_R   0.083652 0.500000 0.546034 0.067951
C11   C     C_R   0.416348 0.000000 0.453965 0.067951
C12   C     C_R   0.583652 1.000000 0.546035 0.067951
C13   C     C_R   0.077561 0.369005 0.557386 -0.214870
C14   C     C_R   0.922439 0.630995 0.442613 -0.214870
C15   C     C_R   0.922439 0.369005 0.442613 -0.214869
C16   C     C_R   0.077561 0.630995 0.557386 -0.214870
C17   C     C_R   0.577561 0.869005 0.557386 -0.214870
C18   C     C_R   0.422439 0.130995 0.442614 -0.214870
C19   C     C_R   0.422439 0.869005 0.442613 -0.214870
C20   C     C_R   0.577561 0.130995 0.557387 -0.214870
C21   C     C_R   0.721131 0.265036 0.953093 -0.072906
C22   C     C_R   0.278869 0.734963 0.046906 -0.072905
C23   C     C_R   0.278869 0.265037 0.046906 -0.072902
C24   C     C_R   0.721131 0.734963 0.953094 -0.072903
C25   C     C_R   0.221131 0.765036 0.953094 -0.072904
C26   C     C_R   0.778869 0.234964 0.046907 -0.072906
C27   C     C_R   0.778869 0.765037 0.046906 -0.072904
C28   C     C_R   0.221131 0.234963 0.953094 -0.072902
C29   C     C_R   0.777388 0.278256 0.913075 0.738071
C30   C     C_R   0.222613 0.721738 0.086922 0.738071
C31   C     C_R   0.222614 0.278266 0.086920 0.738071
C32   C     C_R   0.777386 0.721734 0.913080 0.738069
C33   C     C_R   0.277387 0.778262 0.913078 0.738071
C34   C     C_R   0.722612 0.221744 0.086925 0.738071
C35   C     C_R   0.722614 0.778266 0.086920 0.738069
C36   C     C_R   0.277386 0.221735 0.913080 0.738071
C37   C     C_R   0.805816 0.262912 0.959370 -0.386351
C38   C     C_R   0.194185 0.737083 0.040627 -0.386351
C39   C     C_R   0.194186 0.262920 0.040625 -0.386353
C40   C     C_R   0.805814 0.737079 0.959375 -0.386350
C41   C     C_R   0.305815 0.762917 0.959373 -0.386351
C42   C     C_R   0.694184 0.237088 0.040630 -0.386351
C43   C     C_R   0.694186 0.762921 0.040625 -0.386350
C44   C     C_R   0.305814 0.237080 0.959375 -0.386352
C45   C     C_R   0.644250 0.326886 0.945403 -0.293943
C46   C     C_R   0.355750 0.673114 0.054596 -0.293941
C47   C     C_R   0.355750 0.326885 0.054596 -0.293941
C48   C     C_R   0.644250 0.673115 0.945405 -0.293940
C49   C     C_R   0.144250 0.826885 0.945404 -0.293941
C50   C     C_R   0.855749 0.173114 0.054596 -0.293943
C51   C     C_R   0.855750 0.826885 0.054595 -0.293940
C52   C     C_R   0.144250 0.173115 0.945404 -0.293941
C53   C     C_R   0.617115 0.347598 0.897963 -0.065332
C54   C     C_R   0.382885 0.652403 0.102036 -0.065332
C55   C     C_R   0.382885 0.347597 0.102036 -0.065332
C56   C     C_R   0.617115 0.652403 0.897964 -0.065332
C57   C     C_R   0.117115 0.847597 0.897964 -0.065332
C58   C     C_R   0.882885 0.152402 0.102037 -0.065332
C59   C     C_R   0.882885 0.847597 0.102036 -0.065332
C60   C     C_R   0.117115 0.152403 0.897964 -0.065332
C61   C     C_R   0.633855 0.322711 0.812867 -0.342297
C62   C     C_R   0.366145 0.677289 0.187133 -0.342297
C63   C     C_R   0.366145 0.322711 0.187133 -0.342297
C64   C     C_R   0.633855 0.677289 0.812867 -0.342297
C65   C     C_R   0.133855 0.822711 0.812867 -0.342296
C66   C     C_R   0.866145 0.177289 0.187133 -0.342297
C67   C     C_R   0.866145 0.822711 0.187133 -0.342297
C68   C     C_R   0.133855 0.177289 0.812867 -0.342297
C69   C     C_R   0.679680 0.280809 0.770972 -0.207815
C70   C     C_R   0.320320 0.719190 0.229028 -0.207814
C71   C     C_R   0.320320 0.280810 0.229029 -0.207814
C72   C     C_R   0.679680 0.719190 0.770971 -0.207814
C73   C     C_R   0.179680 0.780809 0.770972 -0.207815
C74   C     C_R   0.820320 0.219191 0.229028 -0.207815
C75   C     C_R   0.820319 0.780810 0.229029 -0.207814
C76   C     C_R   0.179680 0.219190 0.770971 -0.207814
C77   C     C_R   0.707362 0.258042 0.817619 0.692252
C78   C     C_R   0.292637 0.741956 0.182381 0.692251
C79   C     C_R   0.292637 0.258045 0.182382 0.692250
C80   C     C_R   0.707364 0.741955 0.817618 0.692248
C81   C     C_R   0.207363 0.758044 0.817619 0.692252
C82   C     C_R   0.792638 0.241958 0.182381 0.692252
C83   C     C_R   0.792636 0.758045 0.182382 0.692248
C84   C     C_R   0.207363 0.241955 0.817618 0.692249
C85   C     C_R   0.691277 0.129275 0.534504 0.891633
C86   C     C_R   0.308723 0.870725 0.465496 0.891633
C87   C     C_R   0.308723 0.129275 0.465496 0.891634
C88   C     C_R   0.691277 0.870725 0.534504 0.891634
C89   C     C_R   0.191277 0.629275 0.534504 0.891634
C90   C     C_R   0.808723 0.370725 0.465496 0.891633
C91   C     C_R   0.808723 0.629275 0.465496 0.891634
C92   C     C_R   0.191277 0.370725 0.534504 0.891634
C93   C     C_R   0.690099 0.282274 0.905225 0.034804
C94   C     C_R   0.309901 0.717725 0.094775 0.034806
C95   C     C_R   0.309901 0.282275 0.094775 0.034807
C96   C     C_R   0.690099 0.717725 0.905225 0.034807
C97   C     C_R   0.190099 0.782275 0.905225 0.034806
C98   C     C_R   0.809901 0.217725 0.094775 0.034804
C99   C     C_R   0.809901 0.782275 0.094775 0.034807
C100  C     C_R   0.190099 0.217725 0.905225 0.034808
C101  C     C_R   0.074372 0.099287 0.933694 0.938962
C102  C     C_R   0.925628 0.900712 0.066306 0.938960
C103  C     C_R   0.925628 0.099287 0.066306 0.938962
C104  C     C_R   0.074372 0.900713 0.933694 0.938962
C105  C     C_R   0.574372 0.599288 0.933694 0.938960
C106  C     C_R   0.425628 0.400713 0.066306 0.938962
C107  C     C_R   0.425628 0.599287 0.066306 0.938961
C108  C     C_R   0.574372 0.400713 0.933694 0.938962
C109  C     C_R   0.538337 0.131700 0.530027 0.106346
C110  C     C_R   0.461663 0.868300 0.469973 0.106346
C111  C     C_R   0.461663 0.131700 0.469973 0.106346
C112  C     C_R   0.538337 0.868300 0.530027 0.106346
C113  C     C_R   0.038337 0.631700 0.530026 0.106346
C114  C     C_R   0.961663 0.368300 0.469972 0.106345
C115  C     C_R   0.961663 0.631700 0.469972 0.106345
C116  C     C_R   0.038337 0.368300 0.530026 0.106345
C117  C     C_R   0.518463 0.197498 0.516148 -0.160134
C118  C     C_R   0.481537 0.802501 0.483852 -0.160135
C119  C     C_R   0.481537 0.197498 0.483852 -0.160135
C120  C     C_R   0.518463 0.802501 0.516148 -0.160135
C121  C     C_R   0.018463 0.697499 0.516148 -0.160134
C122  C     C_R   0.981537 0.302501 0.483851 -0.160134
C123  C     C_R   0.981537 0.697499 0.483851 -0.160135
C124  C     C_R   0.018463 0.302501 0.516147 -0.160134
C125  C     C_R   0.480151 0.065808 0.486283 0.039670
C126  C     C_R   0.519849 0.934192 0.513717 0.039670
C127  C     C_R   0.519849 0.065808 0.513717 0.039670
C128  C     C_R   0.480151 0.934192 0.486283 0.039670
C129  C     C_R   0.980151 0.565808 0.486282 0.039670
C130  C     C_R   0.019849 0.434192 0.513716 0.039670
C131  C     C_R   0.019849 0.565808 0.513717 0.039670
C132  C     C_R   0.980151 0.434192 0.486282 0.039670
C133  C     C_R   0.959634 0.500000 0.473691 -0.038718
C134  C     C_R   0.040366 0.500000 0.526308 -0.038718
C135  C     C_R   0.459634 0.000000 0.473692 -0.038718
C136  C     C_R   0.540366 0.000000 0.526308 -0.038718
C137  C     C_R   0.894127 0.433673 0.445895 0.060330
C138  C     C_R   0.105873 0.566327 0.554104 0.060331
C139  C     C_R   0.105873 0.433673 0.554104 0.060331
C140  C     C_R   0.894127 0.566327 0.445895 0.060331
C141  C     C_R   0.394127 0.933673 0.445895 0.060331
C142  C     C_R   0.605873 0.066327 0.554105 0.060330
C143  C     C_R   0.605873 0.933673 0.554105 0.060330
C144  C     C_R   0.394127 0.066327 0.445895 0.060331
C145  C     C_R   0.843624 0.434783 0.444875 -0.108087
C146  C     C_R   0.156376 0.565217 0.555125 -0.108087
C147  C     C_R   0.156376 0.434783 0.555125 -0.108087
C148  C     C_R   0.843623 0.565217 0.444875 -0.108087
C149  C     C_R   0.343624 0.934783 0.444875 -0.108087
C150  C     C_R   0.656376 0.065216 0.555125 -0.108087
C151  C     C_R   0.656376 0.934783 0.555125 -0.108087
C152  C     C_R   0.343623 0.065216 0.444875 -0.108087
C153  C     C_R   0.821041 0.500000 0.440072 -0.286921
C154  C     C_R   0.178959 0.500000 0.559928 -0.286922
C155  C     C_R   0.321041 0.000000 0.440072 -0.286922
C156  C     C_R   0.678959 0.000000 0.559928 -0.286921
H1    H     H_    0.032652 0.251098 0.527764 0.143778
H2    H     H_    0.967348 0.748902 0.472234 0.143778
H3    H     H_    0.967348 0.251098 0.472234 0.143778
H4    H     H_    0.032652 0.748902 0.527765 0.143778
H5    H     H_    0.532652 0.751098 0.527765 0.143778
H6    H     H_    0.467348 0.248902 0.472235 0.143778
H7    H     H_    0.467348 0.751098 0.472235 0.143778
H8    H     H_    0.532652 0.248902 0.527765 0.143778
H9    H     H_    0.782478 0.500000 0.440531 0.201133
H10   H     H_    0.217521 0.500000 0.559470 0.201133
H11   H     H_    0.282478 0.000000 0.440531 0.201133
H12   H     H_    0.717521 0.000000 0.559469 0.201133
H13   H     H_    0.084845 0.318283 0.581157 0.174153
H14   H     H_    0.915155 0.681716 0.418842 0.174153
H15   H     H_    0.915155 0.318284 0.418841 0.174153
H16   H     H_    0.084845 0.681716 0.581158 0.174153
H17   H     H_    0.584845 0.818284 0.581158 0.174153
H18   H     H_    0.415155 0.181716 0.418842 0.174153
H19   H     H_    0.415155 0.818284 0.418842 0.174153
H20   H     H_    0.584845 0.181716 0.581158 0.174153
H21   H     H_    0.651019 0.226177 0.072822 0.199196
H22   H     H_    0.348978 0.773833 0.927184 0.199197
H23   H     H_    0.348977 0.226161 0.927188 0.199198
H24   H     H_    0.651022 0.773840 0.072813 0.199197
H25   H     H_    0.151021 0.726167 0.072816 0.199197
H26   H     H_    0.848981 0.273823 0.927178 0.199196
H27   H     H_    0.848978 0.726160 0.927187 0.199197
H28   H     H_    0.151022 0.273839 0.072812 0.199198
H29   H     H_    0.631199 0.347813 0.012037 0.190744
H30   H     H_    0.368802 0.652188 0.987962 0.190744
H31   H     H_    0.368802 0.347812 0.987962 0.190744
H32   H     H_    0.631197 0.652189 0.012039 0.190744
H33   H     H_    0.131198 0.847812 0.012038 0.190744
H34   H     H_    0.868801 0.152187 0.987963 0.190744
H35   H     H_    0.868803 0.847811 0.987961 0.190744
H36   H     H_    0.131198 0.152188 0.012038 0.190744
H37   H     H_    0.613002 0.339904 0.776934 0.203951
H38   H     H_    0.386998 0.660096 0.223066 0.203951
H39   H     H_    0.386998 0.339904 0.223065 0.203951
H40   H     H_    0.613002 0.660096 0.776935 0.203951
H41   H     H_    0.113002 0.839904 0.776934 0.203950
H42   H     H_    0.886998 0.160096 0.223066 0.203951
H43   H     H_    0.886998 0.839904 0.223065 0.203950
H44   H     H_    0.113002 0.160096 0.776934 0.203951
O1    O     O_R   0.746490 0.236330 0.638080 -0.547667
O2    O     O_R   0.253510 0.763670 0.361920 -0.547668
O3    O     O_R   0.253510 0.236330 0.361920 -0.547669
O4    O     O_R   0.746490 0.763670 0.638080 -0.547669
O5    O     O_R   0.246490 0.736330 0.638080 -0.547668
O6    O     O_R   0.753510 0.263670 0.361920 -0.547667
O7    O     O_R   0.753510 0.736330 0.361920 -0.547669
O8    O     O_R   0.246490 0.263670 0.638080 -0.547669
O9    O     O_R   0.674170 0.186160 0.516270 -0.638511
O10   O     O_R   0.325830 0.813840 0.483730 -0.638511
O11   O     O_R   0.325830 0.186160 0.483730 -0.638511
O12   O     O_R   0.674170 0.813840 0.516270 -0.638511
O13   O     O_R   0.174170 0.686160 0.516270 -0.638511
O14   O     O_R   0.825830 0.313840 0.483730 -0.638511
O15   O     O_R   0.825830 0.686160 0.483730 -0.638510
O16   O     O_R   0.174170 0.313840 0.516270 -0.638511
O17   O     O_R   0.739960 0.127620 0.525000 -0.623620
O18   O     O_R   0.260040 0.872380 0.475000 -0.623620
O19   O     O_R   0.260040 0.127620 0.475000 -0.623620
O20   O     O_R   0.739960 0.872380 0.525000 -0.623620
O21   O     O_R   0.239960 0.627620 0.525000 -0.623620
O22   O     O_R   0.760040 0.372380 0.475000 -0.623620
O23   O     O_R   0.760040 0.627620 0.475000 -0.623620
O24   O     O_R   0.239960 0.372380 0.525000 -0.623620
O25   O     O_R   0.680700 0.294870 0.629350 -0.648598
O26   O     O_R   0.319300 0.705130 0.370650 -0.648598
O27   O     O_R   0.319300 0.294870 0.370650 -0.648597
O28   O     O_R   0.680700 0.705130 0.629350 -0.648597
O29   O     O_R   0.180700 0.794870 0.629350 -0.648598
O30   O     O_R   0.819300 0.205130 0.370650 -0.648598
O31   O     O_R   0.819300 0.794870 0.370650 -0.648597
O32   O     O_R   0.180700 0.205130 0.629350 -0.648597
O33   O     O_R   0.062020 0.072840 0.007170 -0.624964
O34   O     O_R   0.937980 0.927160 0.992830 -0.624965
O35   O     O_R   0.937980 0.072840 0.992830 -0.624965
O36   O     O_R   0.062020 0.927160 0.007170 -0.624965
O37   O     O_R   0.562020 0.572840 0.007170 -0.624965
O38   O     O_R   0.437980 0.427160 0.992830 -0.624965
O39   O     O_R   0.437980 0.572840 0.992830 -0.624965
O40   O     O_R   0.562020 0.427160 0.007170 -0.624965
O41   O     O_R   0.947860 0.073950 0.109290 -0.626386
O42   O     O_R   0.052140 0.926050 0.890710 -0.626386
O43   O     O_R   0.052140 0.073950 0.890710 -0.626385
O44   O     O_R   0.947860 0.926050 0.109290 -0.626386
O45   O     O_R   0.447860 0.573950 0.109290 -0.626386
O46   O     O_R   0.552140 0.426050 0.890710 -0.626386
O47   O     O_R   0.552140 0.573950 0.890710 -0.626386
O48   O     O_R   0.447860 0.426050 0.109290 -0.626385
Zn1   Zn    Zn3+2 0.792340 0.208750 0.507670 1.018149
Zn2   Zn    Zn3+2 0.207660 0.791250 0.492330 1.018147
Zn3   Zn    Zn3+2 0.207660 0.208750 0.492330 1.018146
Zn4   Zn    Zn3+2 0.792340 0.791250 0.507670 1.018146
Zn5   Zn    Zn3+2 0.292340 0.708750 0.507670 1.018147
Zn6   Zn    Zn3+2 0.707660 0.291250 0.492330 1.018149
Zn7   Zn    Zn3+2 0.707660 0.708750 0.492330 1.018147
Zn8   Zn    Zn3+2 0.292340 0.291250 0.507670 1.018146
Zn9   Zn    Zn3+2 0.505960 0.500000 0.080520 0.960844
Zn10  Zn    Zn3+2 0.494040 0.500000 0.919480 0.960844
Zn11  Zn    Zn3+2 0.005960 0.000000 0.080520 0.960845
Zn12  Zn    Zn3+2 0.994040 0.000000 0.919480 0.960844
F1    F     F_    0.804675 0.308121 0.830175 -0.622459
F2    F     F_    0.195327 0.691867 0.169819 -0.622462
F3    F     F_    0.195329 0.308139 0.169815 -0.622464
F4    F     F_    0.804671 0.691859 0.830185 -0.622463
F5    F     F_    0.304672 0.808133 0.830182 -0.622462
F6    F     F_    0.695325 0.191879 0.169825 -0.622459
F7    F     F_    0.695329 0.808141 0.169815 -0.622463
F8    F     F_    0.304671 0.191860 0.830186 -0.622464
F9    F     F_    0.751014 0.213090 0.778352 -0.623679
F10   F     F_    0.248984 0.786906 0.221649 -0.623683
F11   F     F_    0.248983 0.213096 0.221649 -0.623684
F12   F     F_    0.751018 0.786903 0.778350 -0.623684
F13   F     F_    0.251016 0.713094 0.778351 -0.623683
F14   F     F_    0.748986 0.286910 0.221648 -0.623679
F15   F     F_    0.748982 0.713097 0.221650 -0.623684
F16   F     F_    0.251017 0.286904 0.778351 -0.623685

loop_
_geom_bond_atom_site_label_1
_geom_bond_atom_site_label_2
_ccdc_geom_bond_type
C113  C121  A    
C5    O5    A    
O41   Zn11  S    
C51   H35   S    
C3    O27   A    
C70   C78   A    
C36   F8    S    
O3    Zn3   S    
O39   Zn10  S    
C69   C77   A    
C34   C42   A    
C90   O14   A    
O11   Zn8   S    
C14   H14   S    
C131  C134  A    
C45   C93   A    
C16   C113  A    
C110  C118  A    
C71   C79   A    
C109  C117  A    
O33   Zn11  S    
C7    O31   A    
O34   Zn12  S    
C27   C99   S    
C38   H25   S    
C81   C97   A    
C54   C107  S    
C23   C95   S    
C34   F6    S    
C13   C139  A    
C31   F3    S    
C82   F14   S    
C138  C146  A    
C90   O22   A    
C90   C145  S    
C67   H43   S    
C117  C119  A    
C86   O18   A    
C25   C38   A    
C9    C140  A    
C4    O4    A    
C22   C41   A    
C49   H33   S    
C114  C132  A    
C156  H12   S    
C42   H21   S    
C61   C69   A    
C14   C115  A    
C66   C74   A    
C108  O46   A    
C8    C76   S    
C72   C80   A    
C65   C73   A    
C62   C70   A    
C153  H9    S    
C111  C119  A    
C52   H36   S    
C8    O8    A    
C147  C154  A    
O7    Zn7   S    
C85   C150  S    
C105  O47   A    
C77   F9    S    
C91   O15   A    
C52   C60   A    
C59   C67   A    
C9    C137  A    
C109  C127  A    
O26   Zn5   S    
C91   O23   A    
C108  O40   A    
C155  H11   S    
O25   Zn6   S    
C121  H4    S    
C55   C63   A    
C45   H29   S    
C111  C125  A    
O45   Zn9   S    
C29   F1    S    
C122  H3    S    
C56   C64   A    
C92   O16   A    
C130  C132  A    
C87   O19   A    
O40   Zn9   S    
C80   C96   A    
O30   Zn1   S    
C116  C124  A    
C11   C144  A    
C112  C126  A    
O29   Zn2   S    
C40   H27   S    
C145  C153  A    
C10   C138  A    
C125  C135  A    
C32   C40   A    
C47   C55   A    
C45   C53   A    
C19   C141  A    
C83   C99   A    
C143  C151  A    
C1    C69   S    
C92   C147  S    
O18   Zn2   S    
C140  C148  A    
C130  C134  A    
O44   Zn11  S    
O17   Zn1   S    
C74   C82   A    
C83   F15   S    
O31   Zn4   S    
C44   H23   S    
C73   C81   A    
C91   C148  S    
C5    O29   A    
C17   H17   S    
C6    C74   S    
C51   C59   A    
C19   H19   S    
C6    O6    A    
O22   Zn6   S    
C117  H8    S    
C51   C99   A    
C89   C146  S    
C43   H24   S    
O21   Zn5   S    
C76   C84   A    
C50   C98   A    
C115  C123  A    
C106  O48   A    
C82   C98   A    
C55   C106  S    
C141  C149  A    
C50   C58   A    
C75   C83   A    
C20   C142  A    
C41   H22   S    
C92   O24   A    
C125  C127  A    
C127  C136  A    
C58   C103  S    
C7    O7    A    
C128  C135  A    
C112  C120  A    
C86   C149  S    
O35   Zn12  S    
C37   H26   S    
C7    C75   S    
C54   C62   A    
C28   C39   A    
C119  H6    S    
C21   C29   A    
C14   C140  A    
C52   C100  A    
C22   C94   S    
C79   F11   S    
C23   C44   A    
C20   C109  A    
C33   F5    S    
C13   H13   S    
C80   F12   S    
C23   C31   A    
C79   C95   A    
C3    C71   S    
C24   C32   A    
O10   Zn5   S    
C113  C131  A    
O46   Zn10  S    
C132  C133  A    
C11   C135  A    
O9    Zn6   S    
O28   Zn7   S    
C16   H16   S    
C105  O37   A    
C146  C154  A    
C152  C155  A    
C25   C33   A    
C27   C40   A    
C78   F10   S    
C139  C147  A    
C124  H1    S    
C46   C54   A    
O14   Zn1   S    
C15   C114  A    
C15   H15   S    
O13   Zn2   S    
O32   Zn3   S    
C107  O39   A    
C151  C156  A    
C46   H30   S    
C126  C128  A    
C11   C141  A    
C46   C94   A    
C66   H42   S    
C120  H5    S    
C26   C98   S    
C6    O30   A    
C65   H41   S    
C18   H18   S    
C25   C97   S    
O2    Zn2   S    
C35   F7    S    
C63   C71   A    
C102  O34   A    
O1    Zn1   S    
C87   C152  S    
C84   F16   S    
C88   O20   A    
C101  O33   A    
O15   Zn4   S    
C18   C144  A    
C88   C151  S    
C63   H39   S    
C36   C44   A    
C67   C75   A    
C10   C139  A    
C62   H38   S    
C53   C61   A    
C60   C101  S    
O6    Zn6   S    
C17   C112  A    
C61   H37   S    
C15   C137  A    
C4    C72   S    
C47   H31   S    
O5    Zn5   S    
C2    O26   A    
C58   C66   A    
C12   C136  A    
C115  C129  A    
C19   C110  A    
C1    O25   A    
C48   C56   A    
C57   C104  S    
O36   Zn11  S    
C103  O35   A    
C129  C133  A    
C48   C96   A    
C26   C34   A    
C59   C102  S    
C87   O11   A    
C107  O45   A    
C16   C138  A    
C10   C134  A    
C57   C65   A    
O19   Zn3   S    
C85   O9    A    
C49   C57   A    
C26   C37   A    
C48   H32   S    
O27   Zn8   S    
C8    O32   A    
C123  H2    S    
O24   Zn8   S    
O37   Zn9   S    
C86   O10   A    
C1    O1    A    
C18   C111  A    
C12   C143  A    
C68   H44   S    
C17   C143  A    
C60   C68   A    
C27   C35   A    
C142  C150  A    
O12   Zn7   S    
C24   C96   S    
C149  C155  A    
C35   C43   A    
C33   C41   A    
C137  C145  A    
C22   C30   A    
C89   O21   A    
C68   C76   A    
C53   C108  S    
C28   C100  S    
C20   H20   S    
C39   H28   S    
C21   C93   S    
C88   O12   A    
C78   C94   A    
O16   Zn3   S    
C104  O42   A    
C118  H7    S    
C64   H40   S    
O4    Zn4   S    
C77   C93   A    
C2    O2    A    
C103  O41   A    
C12   C142  A    
O38   Zn10  S    
C81   F13   S    
O43   Zn12  S    
C4    O28   A    
C5    C73   S    
C13   C116  A    
C50   H34   S    
C118  C120  A    
C56   C105  S    
C121  C123  A    
C49   C97   A    
C84   C100  A    
C126  C136  A    
O48   Zn9   S    
C114  C122  A    
O23   Zn7   S    
C104  O36   A    
C116  C130  A    
C28   C36   A    
O47   Zn10  S    
C102  O44   A    
C106  O38   A    
O20   Zn4   S    
C29   C37   A    
O42   Zn12  S    
C31   C39   A    
C24   C43   A    
C47   C95   A    
C3    O3    A    
C154  H10   S    
C32   F4    S    
C150  C156  A    
C89   O13   A    
O8    Zn8   S    
C30   C38   A    
C30   F2    S    
C148  C153  A    
C2    C70   S    
C122  C124  A    
C21   C42   A    
C85   O17   A    
C144  C152  A    
C64   C72   A    
C110  C128  A    
C129  C131  A    
C101  O43   A    
C9    C133  A    
