data_mof_unit_3422.cif
_audit_creation_date              2013-03-05T15:45:20-0500
_audit_creation_method            fapswitch 2.2
_symmetry_space_group_name_H-M    P1
_symmetry_Int_Tables_number       1
_space_group_crystal_system       triclinic
_cell_length_a                    10.859111
_cell_length_b                    11.069602
_cell_length_c                    9.811393
_cell_angle_alpha                 110.362626
_cell_angle_beta                  95.684425
_cell_angle_gamma                 92.471303
_cell_volume                      1096.43903232

loop_
_atom_site_label
_atom_site_type_symbol
_atom_site_description
_atom_site_fract_x
_atom_site_fract_y
_atom_site_fract_z
_atom_type_partial_charge
O1    O     O_R   0.511700 0.332340 0.577400 -0.572197
O2    O     O_R   0.488300 0.667660 0.422600 -0.557794
O3    O     O_R   0.474680 0.295500 0.332650 -0.576927
O4    O     O_R   0.525320 0.704500 0.667350 -0.569917
C1    C     C_R   0.495998 0.254584 0.442216 0.769728
C2    C     C_R   0.513062 0.744337 0.556859 0.779213
O5    O     O_R   0.338170 0.518410 0.622370 -0.577718
O6    O     O_R   0.661830 0.481590 0.377630 -0.584533
O7    O     O_R   0.301150 0.481570 0.377630 -0.531584
O8    O     O_R   0.698850 0.518430 0.622370 -0.566889
C3    C     C_R   0.263700 0.509810 0.507871 0.807909
C4    C     C_R   0.737624 0.511350 0.498010 0.785051
Cu1   Cu    Cu3+1 0.521920 0.521810 0.644910 1.039237
Cu2   Cu    Cu3+1 0.478080 0.478190 0.355090 1.038105
C5    C     C_R   0.146428 0.696114 0.777043 -0.029497
C6    C     C_R   0.870918 0.412743 0.225967 -0.050845
C7    C     C_R   0.084343 0.760147 0.899103 0.372860
C8    C     C_R   0.910108 0.299042 0.125700 0.338396
C9    C     C_R   0.954714 0.762421 0.880668 -0.080412
C10   C     C_R   0.023089 0.251945 0.161567 -0.098367
C11   C     C_R   0.891493 0.701346 0.741857 -0.230070
C12   C     C_R   0.090765 0.318244 0.298899 -0.198436
C13   C     C_R   0.947258 0.614753 0.626202 0.062201
C14   C     C_R   0.050390 0.431296 0.399108 0.046579
C15   C     C_R   0.078479 0.610298 0.640718 -0.067659
C16   C     C_R   0.929601 0.461780 0.372779 -0.044563
C17   C     C_R   0.872516 0.536076 0.494962 -0.077945
C18   C     C_R   0.130074 0.516556 0.521080 -0.114734
H1    H     H_    0.795318 0.719227 0.727920 0.191660
H2    H     H_    0.177431 0.282602 0.326795 0.192689
C19   C     C_2   0.490737 0.115427 0.419351 0.204444
C20   C     C_2   0.555413 0.876028 0.576013 0.210792
C21   C     C_2   0.532110 0.077920 0.532816 -0.026456
C22   C     C_2   0.477541 0.955840 0.541028 -0.074391
N1    N     N_2   0.445130 0.445420 0.137360 -0.307027
N2    N     N_2   0.554870 0.554580 0.862640 -0.280383
C23   C     C_2   0.473896 0.531726 0.079839 -0.035714
C24   C     C_2   0.480707 0.492491 0.918960 0.087329
H3    H     H_    0.617983 0.626442 0.933655 0.239928
H4    H     H_    0.450988 0.350552 0.072158 0.240921
C25   C     C_2   0.082203 0.147757 0.051789 0.863063
O9    O     O_2   0.180248 0.111007 0.089023 -0.589194
O10   O     O_R   0.031100 0.095993 0.904710 -0.718138
H5    H     H_    0.081574 0.027451 0.842486 0.363069
C26   C     C_2   0.881203 0.827891 0.001884 0.819438
O11   O     O_2   0.908902 0.824529 0.124305 -0.557258
O12   O     O_R   0.776102 0.888367 0.973951 -0.745364
H6    H     H_    0.732424 0.927415 0.064053 0.361417
C27   C     C_2   0.276929 0.746852 0.797779 0.975882
O13   O     O_2   0.354243 0.710336 0.870330 -0.529935
O14   O     O_R   0.304506 0.858317 0.767601 -0.765878
H7    H     H_    0.392051 0.898485 0.808938 0.343409
C28   C     C_2   0.795466 0.497713 0.168323 0.932087
O15   O     O_2   0.737941 0.455331 0.045643 -0.565322
O16   O     O_R   0.795775 0.628966 0.252436 -0.736216
H8    H     H_    0.745045 0.677761 0.199963 0.364754
O17   O     O_3   0.155977 0.827817 0.031222 -0.668699
H9    H     H_    0.108303 0.892780 0.096382 0.370168
O18   O     O_3   0.838832 0.239016 0.992840 -0.628217
H10   H     H_    0.831912 0.145139 0.975410 0.384760
C29   C     C_2   0.338456 0.930422 0.515106 0.905593
O19   O     O_2   0.274064 0.020678 0.526676 -0.527771
O20   O     O_R   0.280480 0.806050 0.478370 -0.752417
H11   H     H_    0.186509 0.803807 0.464476 0.360763
C30   C     C_2   0.629029 0.157999 0.654044 1.016064
O21   O     O_2   0.624072 0.160153 0.778833 -0.498952
O22   O     O_R   0.727040 0.227295 0.623901 -0.747708
H12   H     H_    0.786228 0.277589 0.714749 0.378519
O23   O     O_3   0.682256 0.909182 0.599232 -0.680835
H13   H     H_    0.726423 0.831367 0.592371 0.327329
O24   O     O_3   0.427175 0.025084 0.293393 -0.689882
H14   H     H_    0.399419 0.069056 0.224882 0.380650
C31   C     C_2   0.378911 0.396572 0.828567 0.928526
O25   O     O_2   0.397851 0.282860 0.774156 -0.582921
O26   O     O_R   0.257358 0.433242 0.825694 -0.731807
H15   H     H_    0.194395 0.358626 0.765995 0.346413
C32   C     C_2   0.449734 0.667258 0.151738 1.002811
O27   O     O_2   0.529987 0.754404 0.171106 -0.596347
O28   O     O_R   0.330234 0.695245 0.186449 -0.657232
H16   H     H_    0.320046 0.791167 0.219888 0.392393

loop_
_geom_bond_atom_site_label_1
_geom_bond_atom_site_label_2
_geom_bond_distance
_ccdc_geom_bond_type
C2    C20   1.451312 S    
O16   H8    1.011572 S    
C25   O10   1.399000 S    
C31   O25   1.219909 D    
O26   H15   1.013935 S    
C10   C25   1.496206 S    
C21   C30   1.498656 S    
C26   O11   1.222721 D    
C15   C18   1.449582 A    
O5    C3    1.289966 A    
C16   C17   1.415198 A    
O1    C1    1.295057 A    
C9    C11   1.384637 A    
C14   C16   1.390241 A    
C5    C15   1.447642 A    
C25   O9    1.223199 D    
C26   O12   1.399078 S    
O4    Cu1   1.954904 S    
C29   O20   1.398806 S    
C6    C28   1.490222 S    
C30   O22   1.399447 S    
C19   C21   1.360960 D    
C13   C17   1.423674 A    
C29   O19   1.223545 D    
C32   O28   1.394513 S    
O18   H10   0.990876 S    
Cu1   Cu2   2.702219 S    
C31   O26   1.398088 S    
O2    C2    1.288411 A    
O22   H12   1.013826 S    
C28   O16   1.398800 S    
C6    C16   1.421184 A    
C4    C17   1.483672 S    
O14   H7    1.013715 S    
Cu1   N2    2.030078 S    
O4    C2    1.302518 A    
Cu2   N1    2.030079 S    
O7    Cu2   1.956100 S    
C27   O14   1.392738 S    
C32   O27   1.222009 D    
C11   H1    1.075622 S    
C22   C29   1.504142 S    
O28   H16   1.011050 S    
C20   C22   1.353293 D    
O10   H5    1.014196 S    
C23   C24   1.494789 S    
O12   H6    1.013967 S    
O6    C4    1.301617 A    
C21   C22   1.483245 S    
O7    C3    1.316015 A    
O3    Cu2   1.954904 S    
O8    C4    1.307765 A    
C10   C12   1.401206 A    
C30   O21   1.222857 D    
C11   C13   1.415054 A    
C12   C14   1.414717 A    
O1    Cu1   1.961767 S    
C5    C7    1.414765 A    
O6    Cu2   1.982953 S    
C12   H2    1.082788 S    
N1    C23   1.308902 D    
N2    H3    1.029871 S    
C14   C18   1.417768 A    
O3    C1    1.308792 A    
O8    Cu1   1.956099 S    
C9    C26   1.488295 S    
C28   O15   1.221437 D    
C20   O23   1.385604 S    
N2    C24   1.315687 D    
N1    H4    1.030728 S    
O24   H14   0.989855 S    
O17   H9    0.985684 S    
C23   C32   1.466778 S    
C3    C18   1.472348 S    
C19   O24   1.383908 S    
C7    C9    1.403789 A    
C8    C10   1.413567 A    
C5    C27   1.469632 S    
O23   H13   0.989054 S    
O2    Cu2   1.961767 S    
O20   H11   1.014102 S    
C8    O18   1.375790 S    
O5    Cu1   1.982953 S    
C13   C15   1.422656 A    
C6    C8    1.414380 A    
C27   O13   1.219042 D    
C7    O17   1.385932 S    
C1    C19   1.475073 S    
C24   C31   1.478213 S    
