data_mof_unit_487.cif
_audit_creation_date              2012-12-11T20:03:45-0500
_audit_creation_method            fapswitch 2.2
_symmetry_space_group_name_H-M    P1
_symmetry_Int_Tables_number       1
_space_group_crystal_system       triclinic
_cell_length_a                    8.412509
_cell_length_b                    16.193567
_cell_length_c                    18.920641
_cell_angle_alpha                 111.41762
_cell_angle_beta                  91.939431
_cell_angle_gamma                 83.387014
_cell_volume                      2383.4771643

loop_
_atom_site_label
_atom_site_type_symbol
_atom_type_description
_atom_site_fract_x
_atom_site_fract_y
_atom_site_fract_z
_atom_type_partial_charge
Ba1   Ba    Ba6+2 0.334020 0.539200 0.472300 1.736557
Ba2   Ba    Ba6+2 0.855780 0.460880 0.527720 1.727386
C1    C     C_3   0.041016 0.864178 0.377489 -0.339874
C2    C     C_R   0.508186 0.531490 0.733938 -0.019265
C3    C     C_R   0.361072 0.435968 0.805557 -0.150725
C4    C     C_3   0.458430 0.751122 0.309785 0.737728
C5    C     C_R   0.296067 0.447639 0.740589 0.038763
C6    C     C_R   0.851256 0.534365 0.181553 -0.033525
C7    C     C_R   0.912538 0.536432 0.251961 0.087326
C8    C     C_R   0.670121 0.431121 0.185169 -0.163044
C9    C     C_R   0.699881 0.453841 0.262989 0.049303
C10   C     C_R   0.508081 0.466771 0.836560 0.002817
C11   C     C_R   0.372866 0.491137 0.703281 -0.155658
C12   C     C_3   0.063454 0.767418 0.373931 0.384762
C13   C     C_R   0.733667 0.477222 0.143403 0.006591
C14   C     C_R   0.828331 0.501652 0.294709 -0.218925
C15   C     C_R   0.402059 0.341644 0.920108 -0.083478
C16   C     C_3   0.363861 0.786136 0.253801 -0.297505
C17   C     C_R   0.305214 0.317771 0.966315 -0.042196
C18   C     C_R   0.302317 0.364512 0.044299 -0.081441
C19   C     C_R   0.408831 0.427819 0.076266 -0.103637
C20   C     C_R   0.530004 0.437628 0.031327 0.040009
C21   C     C_R   0.499692 0.411514 0.951800 0.029610
C22   C     C_R   0.682818 0.464331 0.061050 0.017368
C23   C     C_3   0.062379 0.304415 0.281959 0.310897
C24   C     C_R   0.792925 0.469403 0.007179 0.045677
C25   C     C_R   0.740617 0.465290 0.932984 0.009054
C26   C     C_R   0.583093 0.447211 0.906875 -0.016308
C27   C     C_R   0.957954 0.474355 0.023076 -0.083856
C28   C     C_3   0.547658 0.765197 0.768285 0.587374
C29   C     C_R   0.056879 0.497799 0.978037 -0.081226
C30   C     C_R   0.003696 0.496481 0.908068 0.009747
C31   C     C_R   0.855402 0.467969 0.882781 -0.052942
C32   C     C_2   0.384439 0.248696 0.499242 -0.289885
C33   C     C_R   0.795780 0.754035 0.523538 -0.246133
C34   C     C_3   0.069772 0.271995 0.195799 -0.380022
C35   C     C_2   0.207785 0.130622 0.445014 -0.125910
C36   C     C_2   0.245402 0.211811 0.453179 0.043678
C37   C     C_2   0.497619 0.194458 0.517304 -0.018215
C38   C     C_3   0.476168 0.096909 0.491148 -0.016067
C39   C     C_3   0.300669 0.079244 0.487214 -0.009362
C40   C     C_3   0.421541 0.740483 0.810528 -0.240509
C41   C     C_2   0.572467 0.046617 0.532213 -0.094179
C42   C     C_2   0.608853 0.960183 0.493715 -0.055053
C43   C     C_R   0.847392 0.932544 0.564281 0.028476
C44   C     C_R   0.711428 0.901290 0.522757 -0.024593
C45   C     C_3   0.681017 0.262839 0.690297 0.338840
C46   C     C_R   0.957933 0.874760 0.584742 -0.154890
C47   C     C_R   0.931704 0.785536 0.564394 -0.051009
C48   C     C_R   0.685198 0.811214 0.501858 0.077741
C49   C     C_3   0.562050 0.266442 0.346371 0.299112
C50   C     C_3   0.563107 0.165455 0.313374 -0.362932
C51   C     C_3   0.968549 0.752113 0.735049 0.660220
C52   C     C_3   0.939112 0.854112 0.767836 -0.326386
C53   C     C_3   0.732294 0.232101 0.755415 -0.357921
C54   C     C_3   0.155742 0.242740 0.667821 0.340739
C55   C     C_3   0.155281 0.160833 0.689186 -0.339518
C56   C     C_R   0.572562 0.522218 0.801952 -0.135098
H1    H     H_    0.173417 0.756201 0.404004 0.061403
H2    H     H_    0.863971 0.723680 0.702418 -0.030066
H3    H     H_    0.155632 0.893934 0.388581 0.106818
H4    H     H_    0.910133 0.880860 0.722539 0.092800
H5    H     H_    0.046897 0.882961 0.797754 0.180341
H6    H     H_    0.837855 0.876907 0.808906 0.127849
H7    H     H_    0.964421 0.758137 0.405917 0.064430
H8    H     H_    0.957296 0.905981 0.423927 0.103229
H9    H     H_    0.934546 0.319348 0.299907 0.010477
H10   H     H_    0.122625 0.366392 0.304821 0.042214
H11   H     H_    0.007957 0.210905 0.170700 0.138699
H12   H     H_    0.476987 0.696076 0.839259 0.037330
H13   H     H_    0.010144 0.324551 0.176188 0.038218
H14   H     H_    0.196466 0.256826 0.176175 0.127944
H15   H     H_    0.992524 0.868257 0.323472 0.183689
H16   H     H_    0.393360 0.741359 0.194380 0.131328
H17   H     H_    0.695026 0.334957 0.707611 0.045154
H18   H     H_    0.553109 0.252456 0.678920 -0.065599
H19   H     H_    0.855394 0.247642 0.773512 0.147331
H20   H     H_    0.651829 0.267105 0.804739 0.070052
H21   H     H_    0.726972 0.159111 0.737841 0.135848
H22   H     H_    0.281939 0.257418 0.669823 -0.087380
H23   H     H_    0.332354 0.707683 0.769353 0.162867
H24   H     H_    0.110689 0.226798 0.608945 0.075598
H25   H     H_    0.244021 0.106603 0.653559 0.093438
H26   H     H_    0.035607 0.136425 0.679457 0.141123
H27   H     H_    0.433281 0.681783 0.299168 0.009270
H28   H     H_    0.187821 0.177314 0.749813 0.124054
H29   H     H_    0.670133 0.560233 0.827421 0.135378
H30   H     H_    0.287453 0.405970 0.831745 0.053766
H31   H     H_    0.899896 0.576487 0.156802 0.098628
H32   H     H_    0.597094 0.377630 0.158890 0.073467
H33   H     H_    0.321231 0.498035 0.652261 0.066140
H34   H     H_    0.362362 0.800438 0.855652 0.180655
H35   H     H_    0.863208 0.511563 0.352561 0.061565
H36   H     H_    0.404809 0.302145 0.860106 0.066637
H37   H     H_    0.228578 0.265356 0.941392 0.087585
H38   H     H_    0.219966 0.350585 0.080177 0.067989
H39   H     H_    0.400764 0.465082 0.136330 0.126326
H40   H     H_    0.014035 0.459284 0.069333 0.049669
H41   H     H_    0.177981 0.511462 0.995181 0.092699
H42   H     H_    0.081634 0.512313 0.872266 0.129515
H43   H     H_    0.831153 0.442647 0.823419 0.110624
H44   H     H_    0.106019 0.103510 0.411307 0.101598
H45   H     H_    0.441281 0.297317 0.369166 0.006690
H46   H     H_    0.062760 0.899592 0.616582 0.128044
H47   H     H_    0.401962 0.317833 0.511157 0.061709
H48   H     H_    0.774850 0.685161 0.509488 0.081524
H49   H     H_    0.607292 0.077872 0.590942 0.101842
H50   H     H_    0.234404 0.789469 0.260000 0.095758
H51   H     H_    0.562230 0.932640 0.437224 0.169012
H52   H     H_    0.391688 0.854491 0.262016 0.135267
H53   H     H_    0.656068 0.776114 0.802683 0.031551
H54   H     H_    0.967299 0.829190 0.916422 0.342734
H55   H     H_    0.795922 0.733853 0.189717 0.367746
H56   H     H_    0.650377 0.283731 0.392945 0.081834
H57   H     H_    0.582274 0.850965 0.652031 0.335144
H58   H     H_    0.471728 0.146509 0.268218 0.137734
H59   H     H_    0.536142 0.140083 0.358096 0.062622
H60   H     H_    0.682917 0.133746 0.288804 0.135658
O1    O     O_2   0.405910 0.437000 0.315050 -0.469289
O2    O     O_2   0.817959 0.188070 0.483584 -0.476497
O3    O     O_3   0.777305 0.213153 0.626378 -0.588813
O4    O     O_3   0.650250 0.445090 0.405140 -0.498051
O5    O     O_3   0.024090 0.610190 0.555810 -0.478448
O6    O     O_2   0.949630 0.279650 0.426400 -0.459705
O7    O     O_3   0.139401 0.237756 0.306238 -0.636239
O8    O     O_2   0.969117 0.485939 0.746647 -0.421933
O9    O     O_3   0.056994 0.314959 0.718301 -0.618599
O10   O     O_3   0.110870 0.602570 0.387980 -0.504054
O11   O     O_2   0.245883 0.550883 0.253474 -0.525588
O12   O     O_3   0.107197 0.724925 0.689185 -0.596246
O13   O     O_3   0.602930 0.294826 0.288454 -0.634480
O14   O     O_3   0.068595 0.706987 0.297678 -0.586351
O15   O     O_2   0.240060 0.720390 0.573650 -0.394483
O16   O     O_3   0.508300 0.651290 0.432440 -0.472806
O17   O     O_2   0.371274 0.809765 0.519376 -0.479077
O18   O     O_2   0.851869 0.683798 0.834102 -0.354092
O19   O     O_2   0.125031 0.633410 0.790923 -0.306305
O20   O     O_3   0.065468 0.792475 0.890175 -0.524748
O21   O     O_2   0.702799 0.847267 0.321229 -0.364361
O22   O     O_2   0.753854 0.699028 0.330324 -0.414003
O23   O     O_3   0.417744 0.807767 0.385058 -0.671645
O24   O     O_3   0.697709 0.709296 0.196856 -0.557302
O25   O     O_2   0.314092 0.868729 0.727676 -0.297504
O26   O     O_2   0.475912 0.943129 0.837651 -0.283726
O27   O     O_3   0.602693 0.893232 0.703607 -0.531512
O28   O     O_2   0.783780 0.563030 0.685000 -0.412199
O29   O     O_3   0.539430 0.554980 0.594880 -0.459980
O30   O     O_3   0.078810 0.397510 0.612040 -0.473502
O31   O     O_3   0.584800 0.703731 0.693869 -0.632947
O32   O     O_3   0.165590 0.389880 0.444220 -0.490611
O33   O     O_3   0.681380 0.348790 0.567580 -0.494071
P1    P     P_3+3 0.586140 0.411610 0.321630 0.980543
P2    P     P_3+3 0.070040 0.709050 0.593050 1.033602
P3    P     P_3+3 0.498892 0.767619 0.455952 1.007754
P4    P     P_3+3 0.603540 0.588460 0.678390 1.022259
P5    P     P_3+3 0.693816 0.234713 0.548202 0.950948
P6    P     P_3+3 0.086264 0.596833 0.295226 0.978958
P7    P     P_3+3 0.129609 0.277396 0.405485 0.941389
P8    P     P_3+3 0.101244 0.411693 0.706033 0.985774
S1    S     S_3+6 0.000809 0.712518 0.812991 -0.082942
S2    S     S_3+6 0.661223 0.753063 0.290813 -0.147270
S3    S     S_3+6 0.479344 0.870562 0.760414 -0.065898

loop_
_geom_bond_atom_site_label_1
_geom_bond_atom_site_label_2
_ccdc_geom_bond_type
Ba2   O32   S    
Ba2   P4    S    
O3    P5    S    
C6    H31   S    
C17   C18   A    
C23   H9    S    
Ba1   O10   S    
C40   H12   S    
C56   H29   S    
O24   S2    S    
O11   P6    D    
C12   O14   S    
C43   C44   A    
C25   C31   A    
C12   H1    S    
C40   H23   S    
C14   H35   S    
C15   C21   A    
O17   P3    D    
C27   H40   S    
C10   C26   S    
O15   P2    D    
C47   P2    S    
C7    C14   A    
C22   C24   A    
C45   H18   S    
C8    C13   A    
C35   H44   S    
C53   H19   S    
O23   P3    S    
C45   O3    S    
C5    P8    S    
H55   O24   S    
C1    H3    S    
C49   H45   S    
C46   H46   S    
O2    P5    D    
C19   H39   S    
C55   H28   S    
Ba1   P1    S    
Ba1   Ba2   S    
Ba1   O1    S    
C54   O9    S    
C2    C11   A    
C23   O7    S    
Ba1   O4    S    
C3    H30   S    
C13   C22   S    
C38   C41   S    
O28   P4    D    
C6    C7    A    
O6    P7    D    
C33   C47   A    
C55   H25   S    
C29   H41   S    
O29   P4    S    
O25   S3    D    
C40   H34   S    
C34   H13   S    
C10   C56   A    
C42   H51   S    
C50   H58   S    
C18   H38   S    
C16   H16   S    
C19   C20   A    
C11   H33   S    
C35   C39   S    
O13   P1    S    
C23   H10   S    
Ba1   O15   S    
C51   H2    S    
C42   C44   S    
O10   P6    S    
Ba2   O4    S    
C4    C16   S    
C49   H56   S    
C32   C37   D    
H54   O20   S    
O21   S2    D    
C36   P7    S    
C3    C10   A    
C37   C38   S    
C3    C5    A    
C53   H20   S    
C49   O13   S    
O7    P7    S    
C28   O31   S    
C52   H4    S    
Ba2   O29   S    
O8    P8    D    
C49   C50   S    
O30   P8    S    
O4    P1    S    
C41   C42   D    
Ba1   O5    S    
C35   C36   D    
O20   S1    S    
C53   H21   S    
C9    C14   A    
C29   C30   A    
C4    S2    S    
C7    P6    S    
C33   C48   A    
C24   C25   A    
C55   H26   S    
Ba1   O32   S    
C41   H49   S    
O33   P5    S    
C28   H53   S    
C4    O23   S    
Ba1   P2    S    
C4    H27   S    
C1    C12   S    
C54   H24   S    
C46   C47   A    
C6    C13   A    
C31   H43   S    
Ba1   O29   S    
C1    H8    S    
C21   C26   A    
C54   C55   S    
C28   S3    S    
Ba1   O16   S    
O9    P8    S    
C17   H37   S    
C34   H11   S    
C45   C53   S    
O5    P2    S    
C43   C46   A    
O1    P1    D    
H57   O27   S    
C38   C39   S    
C51   S1    S    
O32   P7    S    
O19   S1    D    
O26   S3    D    
C32   C36   S    
C32   H47   S    
C16   H52   S    
C51   C52   S    
C51   O12   S    
Ba2   O6    S    
Ba2   O28   S    
C44   C48   A    
O14   P6    S    
C54   H22   S    
C37   P5    S    
C30   C31   A    
O22   S2    D    
C45   H17   S    
C27   C29   A    
C33   H48   S    
Ba2   O33   S    
O16   P3    S    
C52   H6    S    
C48   P3    S    
C15   C17   A    
C12   H7    S    
O12   P2    S    
C20   C22   A    
O31   P4    S    
C1    H15   S    
C16   H50   S    
C8    C9    A    
C23   C34   S    
O18   S1    D    
C30   H42   S    
C9    P1    S    
C5    C11   A    
C2    P4    S    
C18   C19   A    
C8    H32   S    
C24   C27   A    
C52   H5    S    
C50   H59   S    
C2    C56   A    
C25   C26   A    
C20   C21   A    
C28   C40   S    
C15   H36   S    
O27   S3    S    
Ba2   O30   S    
Ba2   O5    S    
C34   H14   S    
C50   H60   S    
