data_mof_unit_1145.cif
_audit_creation_date              2012-12-10T16:50:07-0500
_audit_creation_method            fapswitch 2.2
_symmetry_space_group_name_H-M    P1
_symmetry_Int_Tables_number       1
_space_group_crystal_system       triclinic
_cell_length_a                    23.461295
_cell_length_b                    8.819528
_cell_length_c                    7.478099
_cell_angle_alpha                 102.847745
_cell_angle_beta                  95.006659
_cell_angle_gamma                 93.241595
_cell_volume                      1498.25275836

loop_
_atom_site_label
_atom_site_type_symbol
_atom_type_description
_atom_site_fract_x
_atom_site_fract_y
_atom_site_fract_z
_atom_type_partial_charge
C1    C     C_R   0.498504 0.200525 0.454032 0.782466
C2    C     C_R   0.501131 0.799075 0.545813 0.852788
C3    C     C_R   0.235435 0.594271 0.487560 0.181964
C4    C     C_R   0.762465 0.416744 0.632758 0.158787
C5    C     C_R   0.296031 0.613355 0.495823 0.065458
C6    C     C_R   0.702259 0.419499 0.629824 0.124435
C7    C     C_R   0.328499 0.484349 0.499443 -0.266074
C8    C     C_R   0.671473 0.486256 0.498417 -0.325318
C9    C     C_R   0.301035 0.338737 0.497629 0.446256
C10   C     C_R   0.700941 0.545658 0.369930 0.454545
C11   C     C_R   0.241815 0.321537 0.500147 0.571183
C12   C     C_R   0.760171 0.540880 0.372247 0.520070
C13   C     C_R   0.208711 0.448239 0.495748 0.064038
C14   C     C_R   0.790957 0.477252 0.502814 0.078325
C15   C     C_2   0.500329 0.033994 0.427628 -0.009424
C16   C     C_2   0.497466 0.963963 0.571536 0.020568
C17   C     C_R   0.391128 0.498454 0.500675 0.929700
C18   C     C_R   0.608945 0.496931 0.498881 0.897573
C19   C     C_R   0.887314 0.570887 0.638125 0.673947
C20   C     C_R   0.112516 0.333307 0.374083 0.656676
C21   C     C_R   0.872857 0.362536 0.369605 0.643947
C22   C     C_R   0.126538 0.526072 0.656482 0.658586
C23   C     C_R   0.932316 0.344523 0.374411 -0.109703
C24   C     C_R   0.067095 0.541711 0.655115 -0.109430
C25   C     C_R   0.969700 0.448642 0.512066 -0.135545
C26   C     C_R   0.029777 0.439805 0.515505 -0.139474
C27   C     C_R   0.947101 0.562312 0.645784 -0.165321
C28   C     C_R   0.052568 0.330301 0.377811 -0.168111
C29   C     C_R   0.955468 0.226274 0.246733 0.128423
C30   C     C_R   0.044122 0.657728 0.785932 0.130476
C31   C     C_R   0.015094 0.222919 0.246280 0.574136
C32   C     C_R   0.984611 0.665439 0.781863 0.573765
Cu1   Cu    Cu3+1 0.506340 0.517380 0.684380 1.119227
Cu2   Cu    Cu3+1 0.493660 0.482620 0.315620 1.115433
N1    N     N_R   0.851936 0.471613 0.502219 -0.418972
N2    N     N_R   0.147963 0.432396 0.510613 -0.427641
N3    N     N_2   0.484110 0.456420 0.038520 0.204084
N4    N     N_2   0.515890 0.543580 0.961480 0.238737
O1    O     O_R   0.504120 0.286130 0.619770 -0.582671
O2    O     O_R   0.495880 0.713870 0.380230 -0.551155
O3    O     O_R   0.493410 0.256770 0.308360 -0.600337
O4    O     O_R   0.506590 0.743230 0.691640 -0.594257
O5    O     O_R   0.423230 0.514630 0.655730 -0.538992
O6    O     O_R   0.576770 0.485370 0.344270 -0.509878
O7    O     O_R   0.412530 0.485280 0.344320 -0.563820
O8    O     O_R   0.587470 0.514720 0.655680 -0.531418
O9    O     O_2   0.864347 0.677628 0.764496 -0.466608
O10   O     O_2   0.135275 0.241742 0.232988 -0.461548
O11   O     O_2   0.835890 0.272936 0.233737 -0.517615
O12   O     O_2   0.163109 0.604063 0.801226 -0.521441
N5    N     N_2   0.919212 0.106202 0.122773 -0.379410
H1    H     H_    0.934007 0.068356 0.995772 0.319674
C33   C     C_3   0.901241 0.978790 0.203505 -0.377335
H2    H     H_    0.938908 0.916871 0.240632 0.234518
H3    H     H_    0.870339 0.895228 0.103008 0.283285
H4    H     H_    0.879653 0.022478 0.329312 0.191369
N6    N     N_2   0.080551 0.774558 0.914078 -0.389069
H5    H     H_    0.064964 0.811383 0.040014 0.313386
C34   C     C_3   0.100315 0.903357 0.838438 -0.400842
H6    H     H_    0.063508 0.968052 0.800847 0.242918
H7    H     H_    0.122438 0.860890 0.713648 0.215341
H8    H     H_    0.131225 0.983913 0.942223 0.271532
F1    F     F_    0.035966 0.109435 0.120984 -0.659663
F2    F     F_    0.964041 0.778833 0.908102 -0.657990
N7    N     N_2   0.201052 0.721290 0.476915 -0.419667
H9    H     H_    0.220137 0.831387 0.534112 0.297841
C35   C     C_3   0.168428 0.710619 0.300398 -0.565829
H10   H     H_    0.144126 0.815804 0.306560 0.244575
H11   H     H_    0.137098 0.607108 0.265365 0.225870
H12   H     H_    0.197417 0.703090 0.189662 0.258376
N8    N     N_2   0.795086 0.353411 0.764795 -0.383791
H13   H     H_    0.784103 0.377721 0.897965 0.314890
C36   C     C_3   0.813994 0.198902 0.700691 -0.586840
H14   H     H_    0.793512 0.116303 0.772903 0.241578
H15   H     H_    0.861252 0.202982 0.732032 0.232881
H16   H     H_    0.803001 0.154220 0.549685 0.228585
N9    N     N_2   0.325008 0.762212 0.509907 -0.447540
H17   H     H_    0.313471 0.848151 0.615069 0.274259
C37   C     C_3   0.326751 0.811143 0.338456 -0.575914
H18   H     H_    0.284629 0.849310 0.294722 0.258186
H19   H     H_    0.338743 0.714799 0.228471 0.230395
H20   H     H_    0.358915 0.912148 0.359292 0.249135
N10   N     N_2   0.672017 0.348686 0.751350 -0.353937
H21   H     H_    0.690724 0.368913 0.885107 0.295410
C38   C     C_3   0.651471 0.187433 0.675670 -0.609617
H22   H     H_    0.688142 0.113585 0.653151 0.232587
H23   H     H_    0.624591 0.175431 0.542710 0.204733
H24   H     H_    0.624880 0.145589 0.773326 0.219429
F3    F     F_    0.331804 0.212811 0.494224 -0.677211
F4    F     F_    0.672664 0.612538 0.245053 -0.564515
F5    F     F_    0.216607 0.181705 0.510302 -0.622888
F6    F     F_    0.788088 0.600371 0.248523 -0.617598
N11   N     N_2   0.507074 0.948228 0.245268 -0.377140
H25   H     H_    0.536290 0.002526 0.179750 0.271472
C39   C     C_3   0.453517 0.897089 0.130001 -0.545675
H26   H     H_    0.430234 0.801834 0.174194 0.233334
H27   H     H_    0.462278 0.850103 0.986129 0.254692
H28   H     H_    0.425317 0.994383 0.136251 0.202477
N12   N     N_2   0.487579 0.044147 0.752674 -0.461645
H29   H     H_    0.518364 0.128290 0.825842 0.283183
C40   C     C_3   0.428318 0.069811 0.778263 -0.507990
H30   H     H_    0.424905 0.133095 0.921591 0.259119
H31   H     H_    0.402828 0.956292 0.753067 0.199805
H32   H     H_    0.410711 0.139728 0.683652 0.299434
F7    F     F_    0.432455 0.410297 0.947417 -0.574775
F8    F     F_    0.564435 0.608983 0.061904 -0.478232

loop_
_geom_bond_atom_site_label_1
_geom_bond_atom_site_label_2
_ccdc_geom_bond_type
C11   F5    S    
N11   H25   S    
Cu2   N3    S    
C36   H14   S    
C39   H26   S    
C21   O11   S    
C39   H28   S    
C33   H2    S    
Cu1   O1    S    
Cu2   O2    S    
Cu1   O4    S    
C23   C29   A    
C24   C26   A    
C8    C10   A    
C19   O9    S    
N6    C34   S    
C15   C16   D    
C30   N6    S    
N12   H29   S    
C7    C17   S    
C1    C15   S    
C2    C16   S    
C3    C13   A    
N9    H17   S    
C22   O12   S    
C33   H4    S    
N9    C37   S    
C34   H6    S    
N11   C39   S    
Cu1   O8    S    
C36   H15   S    
C3    N7    S    
Cu2   O3    S    
C18   O8    A    
C33   H3    S    
C34   H7    S    
C38   H23   S    
C35   H10   S    
Cu1   O5    S    
C40   H30   S    
C31   F1    S    
Cu2   O6    S    
C32   F2    S    
C13   N2    S    
C4    C6    A    
C9    F3    S    
C14   N1    S    
C37   H19   S    
C6    C8    A    
C20   C28   A    
N7    C35   S    
C25   C26   A    
C38   H22   S    
C8    C18   S    
N5    H1    S    
C35   H11   S    
N4    F8    S    
C17   O5    A    
N3    F7    S    
N3    N4    D    
C18   O6    A    
N10   H21   S    
Cu1   Cu2   S    
Cu2   O7    S    
C9    C11   A    
C20   O10   S    
C10   C12   A    
C1    O3    A    
N10   C38   S    
C12   C14   A    
C40   H32   S    
C21   C23   A    
C36   H16   S    
C22   C24   A    
C5    N9    S    
C19   C27   A    
C5    C7    A    
C29   N5    S    
C38   H24   S    
C7    C9    A    
C34   H8    S    
C6    N10   S    
N12   C40   S    
C27   C32   A    
C12   F6    S    
C28   C31   A    
C17   O7    A    
C3    C5    A    
C15   N11   S    
C37   H20   S    
C39   H27   S    
C16   N12   S    
C21   N1    A    
C25   C27   A    
C22   N2    A    
C26   C28   A    
Cu1   N4    S    
C35   H12   S    
N8    H13   S    
C29   C31   A    
C19   N1    A    
C30   C32   A    
C11   C13   A    
N6    H5    S    
C2    O4    A    
C23   C25   A    
C4    C14   A    
C24   C30   A    
C1    O1    A    
C37   H18   S    
C20   N2    A    
C2    O2    A    
C10   F4    S    
C40   H31   S    
N7    H9    S    
N8    C36   S    
N5    C33   S    
C4    N8    S    
