data_mof_unit_1916.cif
_audit_creation_date              2012-12-10T19:21:31-0500
_audit_creation_method            fapswitch 2.2
_symmetry_space_group_name_H-M    P1
_symmetry_Int_Tables_number       1
_space_group_crystal_system       triclinic
_cell_length_a                    10.836778
_cell_length_b                    15.98566
_cell_length_c                    14.764022
_cell_angle_alpha                 90.122081
_cell_angle_beta                  90.475997
_cell_angle_gamma                 90.527898
_cell_volume                      2557.41349638

loop_
_atom_site_label
_atom_site_type_symbol
_atom_type_description
_atom_site_fract_x
_atom_site_fract_y
_atom_site_fract_z
_atom_type_partial_charge
C1    C     C_R   0.502207 0.340931 0.499855 0.832707
C2    C     C_R   0.500241 0.659130 0.499963 0.824972
C3    C     C_R   0.871599 0.504578 0.501553 -0.094832
C4    C     C_R   0.128033 0.497692 0.498787 -0.078881
C5    C     C_R   0.940655 0.542781 0.572169 0.052758
C6    C     C_R   0.058513 0.457691 0.429884 0.045871
C7    C     C_R   0.602987 0.954951 0.541432 -0.270537
C8    C     C_R   0.425512 0.045388 0.445916 -0.259289
C9    C     C_R   0.508879 0.912791 0.494001 0.102986
C10   C     C_R   0.517327 0.087588 0.495437 0.101567
C11   C     C_R   0.419821 0.957942 0.444581 0.174980
C12   C     C_R   0.608393 0.042537 0.542976 0.173770
C13   C     C_1   0.505621 0.823174 0.496925 -0.054797
C14   C     C_1   0.513715 0.177153 0.497841 -0.058476
C15   C     C_1   0.508635 0.252052 0.499261 -0.189446
C16   C     C_1   0.502673 0.748175 0.499088 -0.210744
C17   C     C_R   0.461893 0.570621 0.951226 0.096610
C18   C     C_R   0.538723 0.428597 0.048636 0.088359
C19   C     C_R   0.498761 0.498583 0.902832 -0.111465
C20   C     C_R   0.502092 0.500759 0.097073 -0.113153
C21   C     C_R   0.534488 0.426537 0.952162 0.146416
C22   C     C_R   0.462108 0.571725 0.047695 0.152416
C23   C     C_R   0.261707 0.497628 0.499506 0.797309
C24   C     C_R   0.738124 0.502845 0.500618 0.785884
C25   C     C_1   0.499376 0.499351 0.802541 0.144611
C26   C     C_1   0.501227 0.500235 0.197438 0.137010
C27   C     C_R   0.175212 0.387061 0.203480 0.125674
C28   C     C_R   0.852136 0.580223 0.814748 0.127850
C29   C     C_R   0.142616 0.437309 0.276986 -0.206736
C30   C     C_R   0.888625 0.541918 0.734208 -0.245446
C31   C     C_R   0.112286 0.402023 0.360531 0.020826
C32   C     C_R   0.884799 0.584778 0.651687 0.041759
C33   C     C_R   0.114612 0.313824 0.372196 0.104032
C34   C     C_R   0.842098 0.668443 0.648597 0.110067
C35   C     C_R   0.151300 0.262390 0.298289 0.155560
C36   C     C_R   0.806866 0.708466 0.730913 0.151658
C37   C     C_R   0.180362 0.299644 0.214144 0.153252
C38   C     C_R   0.811360 0.663416 0.813290 0.159518
C39   C     C_R   0.931060 0.464081 0.430596 -0.254456
C40   C     C_R   0.068641 0.539267 0.569307 -0.245913
Cu1   Cu    Cu3+1 0.500040 0.500000 0.589220 0.964940
Cu2   Cu    Cu3+1 0.499960 0.500000 0.410780 0.966992
H1    H     H_    0.135878 0.504440 0.268276 0.149889
H2    H     H_    0.923086 0.478479 0.735845 0.152146
H3    H     H_    0.877634 0.432678 0.377888 0.162948
H4    H     H_    0.122252 0.569646 0.622581 0.161827
H5    H     H_    0.672495 0.919371 0.577180 0.151000
H6    H     H_    0.357241 0.080930 0.408982 0.134031
N1    N     N_1   0.500040 0.499980 0.276710 -0.156334
N2    N     N_1   0.499960 0.500020 0.723290 -0.156216
O1    O     O_R   0.500060 0.380310 0.575320 -0.570882
O2    O     O_R   0.499940 0.619690 0.424680 -0.567246
O3    O     O_R   0.500000 0.380310 0.424640 -0.569869
O4    O     O_R   0.500000 0.619690 0.575360 -0.575354
O5    O     O_R   0.319670 0.500010 0.575340 -0.583742
O6    O     O_R   0.680330 0.499990 0.424660 -0.580608
O7    O     O_R   0.319610 0.500010 0.424650 -0.570721
O8    O     O_R   0.680390 0.499990 0.575350 -0.570151
N3    N     N_3   0.212301 0.247622 0.138663 -0.602466
H7    H     H_    0.301214 0.263812 0.117693 0.214046
H8    H     H_    0.150653 0.259319 0.085430 0.241389
N4    N     N_3   0.777796 0.703775 0.896358 -0.605301
H9    H     H_    0.705916 0.669674 0.925796 0.227606
H10   H     H_    0.853719 0.702592 0.940478 0.238847
N5    N     N_3   0.422860 0.643566 0.902667 -0.602336
H11   H     H_    0.494080 0.662351 0.859831 0.224286
H12   H     H_    0.346328 0.627255 0.862586 0.225053
N6    N     N_3   0.580427 0.356262 0.097094 -0.599394
H13   H     H_    0.510077 0.336240 0.140189 0.212740
H14   H     H_    0.656918 0.373599 0.136719 0.232624
N7    N     N_3   0.196272 0.423713 0.116071 -0.593589
H15   H     H_    0.286939 0.411025 0.097833 0.216922
H16   H     H_    0.189240 0.488851 0.119325 0.217090
N8    N     N_3   0.862002 0.536726 0.899547 -0.596157
H17   H     H_    0.772587 0.524523 0.922250 0.229580
H18   H     H_    0.904371 0.478833 0.890644 0.222531
C41   C     C_3   0.072044 0.275361 0.461244 -0.426027
C42   C     C_3   0.179610 0.263893 0.527137 -0.823298
H19   H     H_    0.249655 0.221880 0.497908 0.245162
H20   H     H_    0.223444 0.325120 0.543378 0.251030
H21   H     H_    0.145413 0.235645 0.590922 0.240629
H22   H     H_    0.001514 0.314199 0.494711 0.214591
H23   H     H_    0.024263 0.214654 0.449804 0.210777
C43   C     C_3   0.836381 0.714184 0.558482 -0.390470
C44   C     C_3   0.957542 0.759697 0.538545 -0.853401
H24   H     H_    0.982844 0.803548 0.594178 0.247378
H25   H     H_    0.033261 0.714188 0.529838 0.260636
H26   H     H_    0.947335 0.795921 0.474921 0.244504
H27   H     H_    0.815562 0.670336 0.502085 0.194488
H28   H     H_    0.758965 0.758953 0.556735 0.203570
C45   C     C_3   0.155255 0.167556 0.305772 -0.386532
C46   C     C_3   0.036394 0.127453 0.269368 -0.819705
H29   H     H_    0.955537 0.150291 0.307625 0.242363
H30   H     H_    0.023420 0.142285 0.196499 0.268840
H31   H     H_    0.041317 0.058457 0.276933 0.237690
H32   H     H_    0.235128 0.142795 0.267720 0.217493
H33   H     H_    0.170093 0.146615 0.376287 0.195564
C47   C     C_3   0.769360 0.799932 0.734145 -0.393002
C48   C     C_3   0.629467 0.808557 0.738755 -0.818399
H34   H     H_    0.604328 0.875588 0.734170 0.236462
H35   H     H_    0.584384 0.773987 0.682114 0.259065
H36   H     H_    0.594600 0.783868 0.803890 0.266829
H37   H     H_    0.812111 0.831123 0.794139 0.221798
H38   H     H_    0.804273 0.836055 0.675812 0.191128
C49   C     C_3   0.710494 0.085999 0.596096 -0.393881
C50   C     C_3   0.810755 0.119485 0.533424 -0.845155
H39   H     H_    0.851055 0.067525 0.493644 0.253872
H40   H     H_    0.772856 0.166863 0.486169 0.253338
H41   H     H_    0.885261 0.149433 0.574534 0.240040
H42   H     H_    0.672132 0.138022 0.636854 0.205397
H43   H     H_    0.753852 0.041930 0.644812 0.193720
C51   C     C_3   0.318743 0.914826 0.390151 -0.402172
C52   C     C_3   0.212618 0.887220 0.450734 -0.829547
H44   H     H_    0.244645 0.841510 0.502119 0.259155
H45   H     H_    0.172608 0.942189 0.485637 0.252404
H46   H     H_    0.139546 0.857030 0.408533 0.239581
H47   H     H_    0.281578 0.957737 0.337578 0.196280
H48   H     H_    0.356235 0.859900 0.353624 0.207164
C53   C     C_3   0.419542 0.649247 0.097781 -0.367758
C54   C     C_3   0.529274 0.704215 0.125767 -0.799421
H49   H     H_    0.592739 0.669400 0.171177 0.251883
H50   H     H_    0.580516 0.725211 0.064934 0.257251
H51   H     H_    0.495884 0.760190 0.162509 0.234921
H52   H     H_    0.355598 0.686809 0.055494 0.227046
H53   H     H_    0.365873 0.631473 0.158698 0.185653
C55   C     C_3   0.565008 0.346215 0.902202 -0.350336
C56   C     C_3   0.698389 0.346455 0.870125 -0.835182
H54   H     H_    0.714172 0.397768 0.820917 0.252433
H55   H     H_    0.762399 0.354135 0.928759 0.259127
H56   H     H_    0.718377 0.286134 0.836092 0.239278
H57   H     H_    0.549762 0.290627 0.945813 0.224303
H58   H     H_    0.501986 0.337364 0.843135 0.191074

loop_
_geom_bond_atom_site_label_1
_geom_bond_atom_site_label_2
_ccdc_geom_bond_type
C51   H48   S    
C49   H42   S    
C55   C56   S    
C27   C29   A    
C18   C21   A    
Cu1   Cu2   S    
C28   N8    S    
C8    H6    S    
C53   H52   S    
C40   H4    S    
C34   C43   S    
C41   H22   S    
C35   C37   A    
Cu1   O8    S    
Cu2   O3    S    
C12   C49   S    
C42   H20   S    
C50   H39   S    
C41   H23   S    
C18   N6    S    
C47   H37   S    
C23   O7    A    
C9    C13   S    
C25   N2    T    
Cu1   O5    S    
N4    H10   S    
Cu2   O6    S    
C45   H32   S    
C4    C40   A    
C20   C26   S    
N6    H13   S    
N5    H12   S    
C31   C33   A    
C1    C15   S    
C28   C38   A    
C2    C16   S    
C18   C20   A    
C54   H51   S    
C41   C42   S    
C39   H3    S    
C5    C32   S    
C6    C31   S    
C49   H43   S    
C3    C39   A    
N3    H7    S    
C29   H1    S    
C1    O3    A    
C30   H2    S    
C3    C24   S    
C7    C12   A    
C43   H28   S    
Cu2   O7    S    
C51   C52   S    
C54   H50   S    
C44   H25   S    
C22   C53   S    
N3    H8    S    
N8    H17   S    
C43   C44   S    
C4    C6    A    
C10   C14   S    
C26   N1    T    
C45   C46   S    
N7    H16   S    
C4    C23   S    
C42   H19   S    
C17   C19   A    
C44   H24   S    
C46   H31   S    
C7    H5    S    
C56   H55   S    
N4    H9    S    
C2    O2    A    
C9    C11   A    
C48   H34   S    
C55   H58   S    
C46   H30   S    
C45   H33   S    
C1    O1    A    
C37   N3    S    
C10   C12   A    
C53   H53   S    
C24   O8    A    
C48   H35   S    
C20   C22   A    
C47   C48   S    
C2    O4    A    
C5    C40   A    
C43   H27   S    
N8    H18   S    
C56   H54   S    
Cu1   N2    S    
C27   N7    S    
C54   H49   S    
C52   H44   S    
C44   H26   S    
C7    C9    A    
C19   C21   A    
C11   C51   S    
C14   C15   T    
C3    C5    A    
C53   C54   S    
C23   O5    A    
C24   O6    A    
C49   C50   S    
C17   N5    S    
C17   C22   A    
C52   H46   S    
C36   C38   A    
C56   H56   S    
N7    H15   S    
C29   C31   A    
C30   C32   A    
C42   H21   S    
C33   C41   S    
C51   H47   S    
C50   H40   S    
C55   H57   S    
C27   C37   A    
C8    C11   A    
C47   H38   S    
C28   C30   A    
C46   H29   S    
C33   C35   A    
C34   C36   A    
C19   C25   S    
Cu1   O4    S    
Cu2   N1    S    
C48   H36   S    
C8    C10   A    
N5    H11   S    
C13   C16   T    
Cu2   O2    S    
N6    H14   S    
C6    C39   A    
C36   C47   S    
C52   H45   S    
C21   C55   S    
Cu1   O1    S    
C32   C34   A    
C38   N4    S    
C50   H41   S    
C35   C45   S    
