data_mof_unit_2090.cif
_audit_creation_date              2012-12-10T16:44:39-0500
_audit_creation_method            fapswitch 2.2
_symmetry_space_group_name_H-M    P1
_symmetry_Int_Tables_number       1
_space_group_crystal_system       triclinic
_cell_length_a                    14.993007
_cell_length_b                    8.693511
_cell_length_c                    7.509135
_cell_angle_alpha                 102.720988
_cell_angle_beta                  94.827935
_cell_angle_gamma                 93.531174
_cell_volume                      948.104877724

loop_
_atom_site_label
_atom_site_type_symbol
_atom_type_description
_atom_site_fract_x
_atom_site_fract_y
_atom_site_fract_z
_atom_type_partial_charge
C1    C     C_R   0.495797 0.200377 0.454656 0.868421
C2    C     C_R   0.504203 0.799623 0.545343 0.868421
C3    C     C_R   0.030798 0.217846 0.350337 0.325254
C4    C     C_R   0.969202 0.782154 0.649663 0.325254
C5    C     C_2   0.480720 0.034111 0.435724 0.060351
C6    C     C_2   0.519280 0.965889 0.564276 0.060351
C7    C     C_R   0.329466 0.501328 0.501621 0.919407
C8    C     C_R   0.670533 0.498672 0.498379 0.919407
C9    C     C_R   0.819671 0.637076 0.573060 0.587861
C10   C     C_R   0.180329 0.362924 0.426940 0.587861
C11   C     C_R   0.766635 0.497215 0.495034 -0.234780
C12   C     C_R   0.233365 0.502785 0.504966 -0.234780
C13   C     C_R   0.804350 0.357763 0.417485 0.173005
C14   C     C_R   0.195650 0.642237 0.582515 0.173005
C15   C     C_R   0.898129 0.358340 0.420560 0.021332
C16   C     C_R   0.101871 0.641660 0.579440 0.021332
C17   C     C_R   0.952863 0.500062 0.498837 -0.046339
C18   C     C_R   0.047137 0.499938 0.501163 -0.046339
C19   C     C_R   0.913423 0.641602 0.574681 -0.079469
C20   C     C_R   0.086577 0.358398 0.425319 -0.079469
C21   C     C_R   0.938222 0.219793 0.348223 -0.118706
C22   C     C_R   0.061778 0.780207 0.651777 -0.118706
Cu1   Cu    Cu3+1 0.510010 0.517380 0.684380 1.173574
Cu2   Cu    Cu3+1 0.489990 0.482620 0.315620 1.173574
H1    H     H_    0.898197 0.109899 0.289256 0.228770
H2    H     H_    0.101803 0.890101 0.710744 0.228770
N1    N     N_2   0.474890 0.456420 0.038520 0.055895
N2    N     N_2   0.525110 0.543580 0.961480 0.055895
O1    O     O_R   0.506510 0.286130 0.619770 -0.573415
O2    O     O_R   0.493490 0.713870 0.380230 -0.573415
O3    O     O_R   0.489600 0.256770 0.308360 -0.528003
O4    O     O_R   0.510400 0.743230 0.691640 -0.528003
O5    O     O_R   0.378710 0.514640 0.655720 -0.563600
O6    O     O_R   0.621290 0.485360 0.344280 -0.563600
O7    O     O_R   0.361800 0.485290 0.344300 -0.542133
O8    O     O_R   0.638200 0.514710 0.655700 -0.542133
F1    F     F_    0.777692 0.767073 0.645591 -0.585360
F2    F     F_    0.222308 0.232927 0.354409 -0.585360
Br1   Br    Br    0.726177 0.167218 0.314359 -0.362206
Br2   Br    Br    0.273823 0.832782 0.685640 -0.362206
Br3   Br    Br    0.073180 0.015035 0.249256 -0.317042
Br4   Br    Br    0.926820 0.984965 0.750744 -0.317042
Br5   Br    Br    0.389214 0.930237 0.240924 -0.256623
Br6   Br    Br    0.610786 0.069763 0.759076 -0.256623
Br7   Br    Br    0.385954 0.303357 0.903188 -0.206194
Br8   Br    Br    0.614046 0.696643 0.096812 -0.206194

loop_
_geom_bond_atom_site_label_1
_geom_bond_atom_site_label_2
_ccdc_geom_bond_type
C1    O3    A    
C16   C22   A    
Cu1   Cu2   S    
C4    C22   A    
Cu2   N1    S    
C2    O2    A    
C10   F2    S    
Cu1   O4    S    
C4    Br4   S    
C1    O1    A    
C17   C18   A    
C5    Br5   S    
Cu2   O3    S    
C3    C20   A    
C16   C18   A    
C8    O6    A    
Cu1   N2    S    
C11   C13   A    
N2    Br8   S    
C2    C6    S    
C10   C12   A    
C8    C11   S    
C1    C5    S    
Cu1   O1    S    
C9    F1    S    
C17   C19   A    
C12   C14   A    
C18   C20   A    
C9    C11   A    
C13   C15   A    
C8    O8    A    
C5    C6    D    
C14   C16   A    
C7    C12   S    
C3    C21   A    
Cu2   O7    S    
C13   Br1   S    
N1    Br7   S    
C7    O5    A    
Cu2   O2    S    
C14   Br2   S    
C15   C21   A    
C2    O4    A    
Cu1   O8    S    
C22   H2    S    
N1    N2    D    
C15   C17   A    
C21   H1    S    
C3    Br3   S    
C6    Br6   S    
C4    C19   A    
C7    O7    A    
C9    C19   A    
Cu2   O6    S    
C10   C20   A    
Cu1   O5    S    
