data_mof_unit_3612.cif
_audit_creation_date              2012-10-26T19:52:23-0400
_audit_creation_method            fapswitch 2.2
_symmetry_space_group_name_H-M    P1
_symmetry_Int_Tables_number       1
_space_group_crystal_system       triclinic
_cell_length_a                    9.564865
_cell_length_b                    10.809321
_cell_length_c                    13.33123
_cell_angle_alpha                 90.392848
_cell_angle_beta                  72.965322
_cell_angle_gamma                 90.599204
_cell_volume                      1317.75956867

loop_
_atom_site_label
_atom_site_type_symbol
_atom_type_description
_atom_site_fract_x
_atom_site_fract_y
_atom_site_fract_z
_atom_type_partial_charge
C1    C     C_R   0.498360 0.737381 0.505273 0.531896
C2    C     C_R   0.376472 0.521984 0.815759 -0.010959
C3    C     C_R   0.369067 0.934206 0.514297 0.022129
C4    C     C_R   0.422203 0.507102 0.700404 0.538231
C5    C     C_R   0.492379 0.870194 0.519535 0.004352
C6    C     C_R   0.607232 0.936628 0.541307 -0.170552
C7    C     C_R   0.607612 0.065916 0.539272 -0.167965
C8    C     C_R   0.492180 0.128959 0.516789 0.004543
C9    C     C_R   0.368543 0.061417 0.513364 0.026273
C10   C     C_3   0.283786 0.063755 0.435544 -0.277097
C11   C     C_3   0.284499 0.923572 0.436688 -0.269937
C12   C     C_R   0.434027 0.554142 0.980846 0.048963
C13   C     C_R   0.940358 0.400611 0.462096 0.161175
C14   C     C_R   0.908076 0.593052 0.545955 -0.019271
C15   C     C_R   0.056562 0.592878 0.546273 -0.017461
C16   C     C_R   0.498313 0.262186 0.503039 0.553456
C17   C     C_R   0.087526 0.400247 0.462273 0.162356
C18   C     C_3   0.134818 0.349128 0.353243 -0.282137
C19   C     C_3   0.976180 0.349593 0.353727 -0.277475
C20   C     C_R   0.578495 0.512679 0.300398 0.542874
C21   C     C_R   0.776014 0.656572 0.034641 -0.127417
C22   C     C_R   0.623935 0.547210 0.188133 -0.000951
C23   C     C_R   0.474245 0.565823 0.870402 0.016451
C24   C     C_R   0.233008 0.489383 0.873232 -0.152921
C25   C     C_R   0.185022 0.506252 0.981564 -0.135050
C26   C     C_R   0.282846 0.544293 0.036378 0.020506
C27   C     C_3   0.831588 0.696677 0.202263 -0.255251
C28   C     C_3   0.753889 0.816855 0.246945 -0.279623
C29   C     C_3   0.846081 0.894697 0.300012 -0.451260
C30   C     C_3   0.218828 0.606721 0.142329 -0.278261
C31   C     C_3   0.234044 0.747254 0.132143 -0.436851
C32   C     C_R   0.544689 0.565898 0.031221 0.026459
C33   C     C_R   0.676932 0.626386 0.979462 0.032793
C34   C     C_R   0.705147 0.660531 0.874684 -0.148005
C35   C     C_R   0.606902 0.627800 0.819904 -0.121324
C36   C     C_R   0.530014 0.513336 0.129430 -0.150471
C37   C     C_R   0.745416 0.626473 0.141305 -0.019554
Cu1   Cu    Cu3+1 0.359330 0.500020 0.500010 0.928833
Cu2   Cu    Cu3+1 0.640670 0.499980 0.499990 0.915493
H1    H     H_    0.701361 0.115563 0.549679 0.134328
H2    H     H_    0.954338 0.415755 0.296787 0.141769
H3    H     H_    0.804511 0.710287 0.834392 0.098304
H4    H     H_    0.929492 0.255237 0.352075 0.122874
H5    H     H_    0.871929 0.711942 0.996584 0.103068
H6    H     H_    0.442731 0.447347 0.161650 0.108293
H7    H     H_    0.155122 0.457374 0.833762 0.136845
H8    H     H_    0.069556 0.495102 0.021971 0.117865
H9    H     H_    0.632496 0.659164 0.739920 0.137495
H10   H     H_    0.700450 0.889445 0.553130 0.118954
H11   H     H_    0.867045 0.842646 0.365629 0.159761
H12   H     H_    0.172675 0.102232 0.470264 0.133805
H13   H     H_    0.952034 0.920286 0.242539 0.140393
H14   H     H_    0.787424 0.981244 0.331080 0.150708
H15   H     H_    0.733765 0.872167 0.182577 0.156050
H16   H     H_    0.646536 0.795302 0.304021 0.172012
H17   H     H_    0.855132 0.640854 0.264377 0.176696
H18   H     H_    0.939519 0.722368 0.148039 0.132788
H19   H     H_    0.186315 0.781136 0.070953 0.149627
H20   H     H_    0.176509 0.791272 0.208357 0.129555
H21   H     H_    0.351065 0.775249 0.110896 0.160042
H22   H     H_    0.102051 0.581126 0.175170 0.119175
H23   H     H_    0.348044 0.103331 0.358924 0.128087
H24   H     H_    0.269744 0.579345 0.202368 0.151480
H25   H     H_    0.174188 0.882076 0.471489 0.127787
H26   H     H_    0.348979 0.881995 0.360889 0.133687
H27   H     H_    0.839405 0.669906 0.581187 0.097831
H28   H     H_    0.097960 0.669149 0.582464 0.114218
H29   H     H_    0.204951 0.413627 0.296218 0.138319
H30   H     H_    0.179177 0.254776 0.348671 0.114405
N1    N     N_R   0.852320 0.499070 0.499340 -0.231538
N2    N     N_R   0.148230 0.499110 0.499340 -0.229559
O1    O     O_R   0.381190 0.680360 0.500000 -0.506988
O2    O     O_R   0.618780 0.680320 0.499990 -0.522042
O3    O     O_R   0.323230 0.500000 0.650990 -0.499354
O4    O     O_R   0.560820 0.499960 0.650980 -0.499728
O5    O     O_R   0.381220 0.319680 0.500010 -0.489920
O6    O     O_R   0.618810 0.319640 0.500000 -0.500152
O7    O     O_R   0.439180 0.500040 0.349020 -0.506155
O8    O     O_R   0.676770 0.500000 0.349010 -0.507779

loop_
_geom_bond_atom_site_label_1
_geom_bond_atom_site_label_2
_ccdc_geom_bond_type
C34   H3    S    
C7    C8    A    
Cu1   O5    S    
C12   C23   A    
C1    C5    S    
C32   C36   A    
C31   H19   S    
C28   C29   S    
C16   O6    A    
C5    C6    A    
C21   C33   A    
C13   N1    A    
C35   H9    S    
C18   H29   S    
C34   C35   A    
C31   H20   S    
C4    O4    A    
C8    C9    A    
C7    H1    S    
Cu2   O4    S    
C9    C10   S    
C25   H8    S    
C4    O3    A    
C18   H30   S    
C8    C16   S    
C30   H24   S    
C12   C32   A    
C14   N1    A    
C10   H23   S    
C10   H12   S    
C28   H16   S    
C19   H4    S    
C33   C34   A    
C29   H11   S    
Cu1   Cu2   S    
Cu1   O1    S    
C1    O1    A    
C13   C19   S    
C24   C25   A    
C11   H25   S    
C27   H18   S    
C28   H15   S    
C27   H17   S    
C18   C19   S    
Cu1   O7    S    
C25   C26   A    
C22   C37   A    
C12   C26   A    
Cu2   O8    S    
C31   H21   S    
C2    C4    S    
C3    C9    A    
C21   H5    S    
C15   H28   S    
C17   C18   S    
C14   H27   S    
C36   H6    S    
C20   C22   S    
C26   C30   S    
C23   C35   A    
C2    C24   A    
Cu2   O6    S    
C2    C23   A    
C15   N2    A    
Cu1   O3    S    
Cu1   N2    S    
C20   O8    A    
C16   O5    A    
C3    C5    A    
C17   N2    A    
C6    C7    A    
C20   O7    A    
C22   C36   A    
C13   C17   A    
C1    O2    A    
C32   C33   A    
C24   H7    S    
C30   C31   S    
C29   H14   S    
C27   C37   S    
Cu2   N1    S    
Cu2   O2    S    
C6    H10   S    
C3    C11   S    
C10   C11   S    
C11   H26   S    
C21   C37   A    
C30   H22   S    
C27   C28   S    
C14   C15   A    
C19   H2    S    
C29   H13   S    
