data_mof_unit_1525.cif
_audit_creation_date              2012-12-11T14:22:55-0500
_audit_creation_method            fapswitch 2.2
_symmetry_space_group_name_H-M    P1
_symmetry_Int_Tables_number       1
_space_group_crystal_system       triclinic
_cell_length_a                    10.852945
_cell_length_b                    11.02814
_cell_length_c                    18.827739
_cell_angle_alpha                 90.0016
_cell_angle_beta                  89.618773
_cell_angle_gamma                 60.093155
_cell_volume                      1953.31699951

loop_
_atom_site_label
_atom_site_type_symbol
_atom_type_description
_atom_site_fract_x
_atom_site_fract_y
_atom_site_fract_z
_atom_type_partial_charge
C1    C     C_R   0.234951 0.645812 0.609664 0.533396
C2    C     C_3   0.725205 0.516676 0.800249 -0.242841
C3    C     C_3   0.694237 0.666931 0.815238 0.058515
C4    C     C_3   0.665186 0.639360 0.679759 0.047491
C5    C     C_3   0.783397 0.675790 0.690338 -0.248122
C6    C     C_3   0.703798 0.501777 0.720815 -0.216849
C7    C     C_R   0.722100 0.085007 0.812390 -0.015519
C8    C     C_R   0.820849 0.112527 0.775485 0.020865
C9    C     C_R   0.810745 0.126017 0.700213 0.023375
C10   C     C_R   0.599834 0.103659 0.702078 -0.157658
C11   C     C_R   0.616537 0.077007 0.773485 -0.163710
C12   C     C_R   0.650191 0.616380 0.603675 0.553110
C13   C     C_R   0.927156 0.129979 0.809356 -0.120797
C14   C     C_R   0.029454 0.142151 0.769745 -0.161226
C15   C     C_R   0.029471 0.135609 0.696076 -0.147892
C16   C     C_R   0.921944 0.126778 0.661525 -0.096349
C17   C     C_R   0.688943 0.139375 0.665795 -0.007977
C18   C     C_R   0.183277 0.670637 0.834167 -0.000518
C19   C     C_R   0.212403 0.545366 0.799672 0.042669
C20   C     C_R   0.197215 0.545578 0.724745 -0.009928
C21   C     C_R   0.174220 0.776345 0.721008 -0.165372
C22   C     C_R   0.174142 0.780899 0.793968 -0.176326
C23   C     C_R   0.632935 0.220896 0.600306 0.538398
C24   C     C_R   0.260766 0.418725 0.837636 0.176534
C25   C     C_R   0.265078 0.303838 0.803997 -0.109225
C26   C     C_R   0.231744 0.310320 0.732601 -0.160535
C27   C     C_R   0.196980 0.429625 0.693203 -0.102293
C28   C     C_R   0.187468 0.659859 0.684631 -0.009969
C29   C     C_R   0.641242 0.667667 0.164413 0.000310
C30   C     C_R   0.691880 0.529727 0.187704 0.046855
C31   C     C_R   0.709985 0.501858 0.261169 -0.009660
C32   C     C_R   0.571358 0.752460 0.284710 -0.133888
C33   C     C_R   0.583663 0.777790 0.213528 -0.169926
C34   C     C_R   0.218306 0.652764 0.402089 0.538162
C35   C     C_R   0.741426 0.416702 0.138832 0.182626
C36   C     C_R   0.849394 0.285722 0.159711 -0.088939
C37   C     C_R   0.886814 0.261963 0.230560 -0.173144
C38   C     C_R   0.810050 0.363767 0.281579 -0.123399
C39   C     C_R   0.634394 0.614909 0.309856 0.006957
C40   C     C_R   0.673406 0.103119 0.184107 0.007632
C41   C     C_R   0.535292 0.181231 0.212862 0.021974
C42   C     C_R   0.520970 0.177476 0.286168 0.037970
C43   C     C_R   0.776990 0.078430 0.300084 -0.167866
C44   C     C_R   0.792713 0.044816 0.228542 -0.160058
C45   C     C_R   0.618668 0.590794 0.385432 0.567108
C46   C     C_R   0.410825 0.254824 0.171427 -0.084757
C47   C     C_R   0.279269 0.287118 0.198782 -0.131363
C48   C     C_R   0.266991 0.260823 0.269475 -0.145058
C49   C     C_R   0.386364 0.204152 0.312794 -0.080694
C50   C     C_R   0.641328 0.151658 0.328782 0.012486
C51   C     C_R   0.147338 0.672739 0.184506 -0.012086
C52   C     C_R   0.199543 0.753259 0.217082 0.021129
C53   C     C_R   0.170752 0.782892 0.289260 0.035929
C54   C     C_R   0.110396 0.599196 0.300245 -0.145267
C55   C     C_R   0.096043 0.602112 0.226946 -0.145299
C56   C     C_R   0.617852 0.222940 0.396940 0.541570
C57   C     C_R   0.259509 0.821681 0.178226 -0.080394
C58   C     C_R   0.263951 0.935245 0.207453 -0.120376
C59   C     C_R   0.218049 0.975573 0.276783 -0.149860
C60   C     C_R   0.166179 0.904743 0.316256 -0.094522
C61   C     C_R   0.152161 0.686697 0.332043 -0.001435
C62   C     C_R   0.727325 0.048088 0.888294 0.550268
C63   C     C_R   0.719189 0.684903 0.890301 0.537346
C64   C     C_R   0.119724 0.706128 0.905834 0.559303
C65   C     C_R   0.696087 0.054402 0.111703 0.557259
C66   C     C_R   0.693233 0.690319 0.096741 0.573074
C67   C     C_3   0.538850 0.769032 0.792639 -0.241616
C68   C     C_R   0.094558 0.708502 0.112448 0.521896
C69   C     C_3   0.524452 0.758926 0.712006 -0.231068
C70   C     C_3   0.799451 0.693658 0.770060 -0.214942
Cr1   Cr    Cr6+3 0.392940 0.397950 0.502230 0.996159
Cr2   Cr    Cr6+3 0.398400 0.708500 0.501260 0.996676
Cr3   Cr    Cr6+3 0.708640 0.393530 0.496460 0.982590
Cr4   Cr    Cr6+3 0.937880 0.938320 0.007620 0.971547
Cr5   Cr    Cr6+3 0.625560 0.937220 0.994510 0.974379
Cr6   Cr    Cr6+3 0.938080 0.625010 0.001190 1.009418
H1    H     H_    0.504963 0.878406 0.806993 0.122034
H2    H     H_    0.803606 0.413338 0.699143 0.164560
H3    H     H_    0.910981 0.619162 0.785555 0.143754
H4    H     H_    0.885754 0.591190 0.668235 0.127318
H5    H     H_    0.510501 0.104624 0.676223 0.137256
H6    H     H_    0.934769 0.136194 0.865869 0.151225
H7    H     H_    0.541819 0.053629 0.798921 0.135406
H8    H     H_    0.112203 0.150912 0.796733 0.108107
H9    H     H_    0.113583 0.134708 0.664875 0.100381
H10   H     H_    0.929681 0.116081 0.604370 0.132368
H11   H     H_    0.171677 0.862642 0.692870 0.157375
H12   H     H_    0.465438 0.742055 0.821009 0.113969
H13   H     H_    0.162666 0.873927 0.819180 0.152319
H14   H     H_    0.300839 0.206772 0.832427 0.093871
H15   H     H_    0.241458 0.219118 0.706615 0.097455
H16   H     H_    0.167776 0.429618 0.638544 0.140989
H17   H     H_    0.520446 0.840730 0.320799 0.144041
H18   H     H_    0.551665 0.883594 0.197229 0.135529
H19   H     H_    0.902442 0.201512 0.121702 0.137709
H20   H     H_    0.968038 0.160218 0.246755 0.129473
H21   H     H_    0.436371 0.737925 0.701710 0.147906
H22   H     H_    0.839452 0.331361 0.335420 0.170112
H23   H     H_    0.869165 0.049620 0.332630 0.110149
H24   H     H_    0.412586 0.286691 0.117464 0.141951
H25   H     H_    0.898693 0.980211 0.207005 0.151426
H26   H     H_    0.187257 0.331266 0.164699 0.117689
H27   H     H_    0.164039 0.286504 0.291014 0.101208
H28   H     H_    0.371418 0.176746 0.365959 0.137012
H29   H     H_    0.086400 0.531752 0.332108 0.131279
H30   H     H_    0.295793 0.792881 0.123922 0.123167
H31   H     H_    0.042013 0.551836 0.203766 0.142376
H32   H     H_    0.496839 0.860551 0.686715 0.115127
H33   H     H_    0.301481 0.992744 0.176102 0.123369
H34   H     H_    0.219474 0.062998 0.300577 0.104982
H35   H     H_    0.120790 0.947942 0.367793 0.127385
H36   H     H_    0.781610 0.800170 0.780392 0.122573
H37   H     H_    0.757036 0.774116 0.661796 0.118456
H38   H     H_    0.836435 0.439158 0.814811 0.150230
H39   H     H_    0.653583 0.493116 0.832534 0.102434
H40   H     H_    0.618308 0.474859 0.714162 0.125998
O1    O     O_R   0.507340 0.255690 0.581430 -0.520011
O2    O     O_R   0.524510 0.695820 0.424050 -0.496794
O3    O     O_R   0.736370 0.504260 0.414810 -0.538128
O4    O     O_R   0.691220 0.277270 0.422180 -0.529079
O5    O     O_3   0.499990 0.499990 0.499980 -0.252844
O6    O     O_R   0.089570 0.825450 0.930590 -0.543691
O7    O     O_R   0.818700 0.054260 0.929860 -0.519441
O8    O     O_R   0.606310 0.077010 0.915520 -0.534323
O9    O     O_R   0.646730 0.806540 0.917560 -0.523570
O10   O     O_R   0.837290 0.593240 0.915240 -0.522804
O11   O     O_R   0.065320 0.635310 0.931580 -0.474484
O12   O     O_R   0.280360 0.527380 0.578910 -0.507699
O13   O     O_R   0.068470 0.828620 0.091850 -0.537367
O14   O     O_R   0.799150 0.057200 0.079350 -0.513143
O15   O     O_R   0.585220 0.080180 0.076770 -0.539637
O16   O     O_R   0.627170 0.809480 0.067050 -0.523229
O17   O     O_R   0.816200 0.596410 0.076500 -0.496375
O18   O     O_R   0.045770 0.638240 0.081070 -0.507055
O19   O     O_3   0.833840 0.833520 0.001110 -0.268236
O20   O     O_R   0.260600 0.739610 0.584580 -0.534502
O21   O     O_R   0.532370 0.695050 0.573830 -0.504291
O22   O     O_R   0.744850 0.503430 0.576380 -0.526236
O23   O     O_R   0.699080 0.276500 0.571950 -0.517726
O24   O     O_R   0.498860 0.256520 0.419860 -0.534952
O25   O     O_R   0.272490 0.528150 0.429140 -0.496503
O26   O     O_R   0.252110 0.740440 0.423010 -0.535753
N1    N     N_2   0.328506 0.398668 0.904608 -0.501387
H41   H     H_    0.338495 0.314118 0.932896 0.256329
C71   C     C_3   0.459540 0.403544 0.900967 -0.290104
H42   H     H_    0.530878 0.342231 0.944814 0.165932
H43   H     H_    0.436129 0.513308 0.904999 0.126165
H44   H     H_    0.517491 0.358036 0.850280 0.155214
N2    N     N_2   0.684889 0.435765 0.068984 -0.503620
H45   H     H_    0.741354 0.355045 0.033504 0.252079
C72   C     C_3   0.532214 0.494570 0.065155 -0.303280
H46   H     H_    0.490886 0.566047 0.019065 0.142677
H47   H     H_    0.476285 0.554871 0.113498 0.139859
H48   H     H_    0.506949 0.409453 0.059506 0.141792

loop_
_geom_bond_atom_site_label_1
_geom_bond_atom_site_label_2
_ccdc_geom_bond_type
C45   O2    A    
C21   H11   S    
C34   O25   A    
C8    C13   A    
Cr3   O3    S    
Cr2   O5    S    
C58   H33   S    
Cr6   O10   S    
C41   C42   A    
C35   C36   A    
C67   H1    S    
C1    O12   A    
C14   H8    S    
C38   H22   S    
C33   H18   S    
C49   H28   S    
C62   O8    A    
C71   H42   S    
C7    C8    A    
C52   C53   A    
Cr2   O26   S    
C26   C27   A    
C17   C23   S    
C30   C35   A    
C64   O6    A    
C23   O23   A    
C36   C37   A    
C9    C16   A    
C43   H23   S    
N2    C72   S    
C30   C31   A    
C56   O24   A    
Cr5   O19   S    
C32   C39   A    
Cr3   O22   S    
C10   C17   A    
N1    H41   S    
C29   C33   A    
C59   H34   S    
C6    H2    S    
C18   C19   A    
C72   H48   S    
C4    C69   S    
C65   O15   A    
C54   C55   A    
C53   C61   A    
C69   H32   S    
C19   C20   A    
C8    C9    A    
C1    C28   S    
C41   C46   A    
C4    C12   S    
C1    O20   A    
Cr1   O25   S    
C45   O3    A    
Cr4   O7    S    
C59   C60   A    
Cr3   O4    S    
C21   C22   A    
C16   H10   S    
C56   O4    A    
C2    C6    S    
C62   O7    A    
C71   H43   S    
Cr6   O19   S    
Cr5   O15   S    
C65   O14   A    
C66   O16   A    
Cr2   O21   S    
C54   C61   A    
Cr1   O1    S    
Cr5   O8    S    
C3    C70   S    
C24   C25   A    
C4    C6    S    
C10   C11   A    
Cr6   O18   S    
Cr3   O23   S    
C11   H7    S    
C26   H15   S    
C48   H27   S    
C13   H6    S    
C34   C61   S    
C50   C56   S    
C15   H9    S    
C51   C52   A    
C37   H20   S    
C55   H31   S    
C67   C69   S    
C7    C11   A    
C43   C44   A    
C7    C62   S    
C37   C38   A    
C66   O17   A    
C2    H39   S    
C47   C48   A    
C14   C15   A    
C72   H46   S    
C64   O11   A    
C32   H17   S    
Cr4   O19   S    
C53   C60   A    
C25   H14   S    
C27   H16   S    
C5    H4    S    
C6    H40   S    
C63   O9    A    
C70   H36   S    
C42   C50   A    
C9    C17   A    
C40   C41   A    
Cr4   O6    S    
C21   C28   A    
Cr3   O5    S    
C40   C65   S    
Cr4   O14   S    
Cr6   O17   S    
C12   O22   A    
Cr1   O12   S    
C58   C59   A    
C71   H44   S    
Cr5   O16   S    
N1    C71   S    
C46   H24   S    
C46   C47   A    
C34   O26   A    
C54   H29   S    
C5    H37   S    
C70   H3    S    
C18   C22   A    
C19   C24   A    
Cr1   O5    S    
C3    C67   S    
C4    C5    S    
C5    C70   S    
C23   O1    A    
C44   H25   S    
C43   C50   A    
C67   H12   S    
Cr1   O24   S    
C20   C27   A    
C3    C63   S    
C20   C28   A    
C10   H5    S    
C31   C38   A    
C39   C45   S    
C32   C33   A    
C68   O18   A    
C2    C3    S    
C25   C26   A    
C60   H35   S    
N2    H45   S    
C2    H38   S    
C36   H19   S    
C18   C64   S    
C57   C58   A    
C24   N1    S    
C48   C49   A    
C22   H13   S    
C31   C39   A    
C57   H30   S    
C51   C55   A    
C51   C68   S    
C72   H47   S    
C68   O13   A    
C63   O10   A    
Cr2   O20   S    
C52   C57   A    
C42   C49   A    
C29   C30   A    
C29   C66   S    
C40   C44   A    
Cr4   O13   S    
Cr2   O2    S    
C47   H26   S    
Cr6   O11   S    
C12   O21   A    
C35   N2    S    
Cr5   O9    S    
C13   C14   A    
C15   C16   A    
C69   H21   S    
