data_mof_unit_2545.cif
_audit_creation_date              2012-12-11T16:22:49-0500
_audit_creation_method            fapswitch 2.2
_symmetry_space_group_name_H-M    P1
_symmetry_Int_Tables_number       1
_space_group_crystal_system       triclinic
_cell_length_a                    16.9729
_cell_length_b                    16.83325
_cell_length_c                    19.454129
_cell_angle_alpha                 117.940704
_cell_angle_beta                  62.474706
_cell_angle_gamma                 100.546866
_cell_volume                      4350.51924606

loop_
_atom_site_label
_atom_site_type_symbol
_atom_type_description
_atom_site_fract_x
_atom_site_fract_y
_atom_site_fract_z
_atom_type_partial_charge
C1    C     C_R   0.029256 0.759913 0.022763 -0.125702
C2    C     C_R   0.235757 0.576645 0.833424 -0.100199
C3    C     C_R   0.181233 0.491510 0.089777 -0.143933
C4    C     C_R   0.749689 0.467588 0.175814 -0.073542
C5    C     C_R   0.037185 0.327491 0.750457 -0.128390
C6    C     C_R   0.254370 0.542561 0.069811 0.034145
C7    C     C_R   0.020811 0.241281 0.743317 -0.007802
C8    C     C_R   0.232323 0.553960 0.756666 0.039330
C9    C     C_R   0.011726 0.227246 0.022529 0.080698
C10   C     C_R   0.187901 0.913652 0.349220 -0.139223
C11   C     C_R   0.164998 0.849673 0.284204 -0.174076
C12   C     C_R   0.745362 0.523824 0.257145 0.006762
C13   C     C_R   0.098503 0.789198 0.301765 0.133905
C14   C     C_R   0.064700 0.785710 0.381201 -0.151189
C15   C     C_R   0.088188 0.849137 0.445711 -0.158648
C16   C     C_R   0.802798 0.550196 0.952433 -0.114538
C17   C     C_R   0.144626 0.917252 0.431843 0.091149
C18   C     C_R   0.078608 0.067984 0.515926 -0.109077
C19   C     C_R   0.041780 0.144812 0.592925 -0.029922
C20   C     C_R   0.057929 0.159086 0.662730 -0.078576
C21   C     C_R   0.112062 0.096650 0.654159 -0.053449
C22   C     C_R   0.149707 0.018786 0.574407 -0.104070
C23   C     C_R   0.720916 0.527559 0.003118 0.059356
C24   C     C_R   0.129612 0.004398 0.506939 -0.053066
C25   C     C_R   0.523152 0.644768 0.428564 -0.065474
C26   C     C_R   0.602078 0.616274 0.350218 -0.061222
C27   C     C_R   0.665479 0.560681 0.337412 -0.026900
C28   C     C_R   0.011769 0.658496 0.239925 -0.135112
C29   C     C_R   0.653451 0.536921 0.400931 -0.107264
C30   C     C_R   0.574730 0.559995 0.475865 -0.028825
C31   C     C_R   0.508473 0.612423 0.488579 -0.109834
C32   C     C_R   0.360745 0.555780 0.541693 -0.159193
C33   C     C_R   0.294924 0.537484 0.607878 -0.162709
C34   C     C_R   0.059843 0.734315 0.240781 0.051618
C35   C     C_R   0.288584 0.586236 0.691852 0.129844
C36   C     C_R   0.341136 0.661058 0.710813 -0.155087
C37   C     C_R   0.407214 0.679325 0.644248 -0.161077
C38   C     C_R   0.420579 0.622407 0.559189 0.056002
C39   C     C_R   0.632298 0.567601 0.039815 0.087447
C40   C     C_R   0.738755 0.465215 0.021838 -0.142995
C41   C     C_R   0.316685 0.568614 0.109481 0.138692
C42   C     C_R   0.398616 0.519494 0.158191 -0.060788
C43   C     C_R   0.322643 0.518061 0.147535 -0.295397
C44   C     C_R   0.378579 0.634606 0.099875 -0.203884
C45   C     C_R   0.249395 0.568684 0.013380 0.010174
C46   C     C_R   0.460858 0.625685 0.095134 0.140507
C47   C     C_R   0.472685 0.563355 0.119469 0.177855
C48   C     C_R   0.558707 0.536096 0.092226 -0.147361
C49   C     C_R   0.619849 0.637385 0.025172 -0.149071
C50   C     C_R   0.534037 0.667572 0.054203 -0.146005
C51   C     C_R   0.829462 0.190332 0.172065 0.206594
C52   C     C_R   0.078187 0.736957 0.164643 -0.146662
C53   C     C_R   0.943893 0.865119 0.014751 0.120233
C54   C     C_R   0.859543 0.953474 0.999326 -0.199633
C55   C     C_R   0.898787 0.871697 0.972503 -0.136912
C56   C     C_R   0.966989 0.247999 0.825622 -0.129211
C57   C     C_R   0.951866 0.943521 0.082777 -0.244868
C58   C     C_R   0.912424 0.026089 0.110617 0.200680
C59   C     C_R   0.863632 0.031747 0.070031 0.064550
C60   C     C_R   0.820722 0.115418 0.102316 -0.164008
C61   C     C_R   0.878878 0.184440 0.210129 -0.221751
C62   C     C_R   0.919939 0.102748 0.179943 -0.208747
C63   C     C_R   0.830691 0.539262 0.249712 -0.125724
C64   C     C_R   0.954363 0.691497 0.942739 -0.127347
C65   C     C_R   0.976500 0.776017 0.992536 0.057964
C66   C     C_2   0.981084 0.205629 0.600920 0.492886
C67   C     C_R   0.156531 0.506996 0.758834 -0.132748
C68   C     C_2   0.126341 0.112967 0.729578 0.600186
C69   C     C_2   0.212812 0.954024 0.557973 0.617159
C70   C     C_2   0.456404 0.709526 0.450782 0.660455
C71   C     C_2   0.619423 0.641645 0.280743 0.614817
C72   C     C_2   0.561410 0.524496 0.537711 0.515061
C73   C     C_2   0.399643 0.467900 0.202262 0.505054
C74   C     C_2   0.765168 0.128235 0.067230 0.492546
C75   C     C_2   0.303473 0.633165 0.981502 0.430529
C76   C     C_R   0.042818 0.310829 0.061757 -0.127022
C77   C     C_R   0.962019 0.242262 0.988978 -0.088011
H1    H     H_    0.939659 0.192926 0.842080 0.106357
H2    H     H_    0.704234 0.495099 0.389049 0.164838
H3    H     H_    0.254589 0.480167 0.591679 0.120322
H4    H     H_    0.335295 0.701846 0.775638 0.120141
H5    H     H_    0.453769 0.730887 0.657704 0.135041
H6    H     H_    0.567362 0.483761 0.105206 0.143960
H7    H     H_    0.675679 0.666044 0.988497 0.118424
H8    H     H_    0.271155 0.473142 0.164373 0.119537
H9    H     H_    0.368614 0.685051 0.085107 0.137526
H10   H     H_    0.999331 0.626918 0.281026 0.088322
H11   H     H_    0.884674 0.243424 0.263671 0.149398
H12   H     H_    0.079237 0.326109 0.099393 0.103491
H13   H     H_    0.825862 0.953363 0.963964 0.115264
H14   H     H_    0.957257 0.099344 0.211152 0.143837
H15   H     H_    0.986228 0.940296 0.116486 0.117576
H16   H     H_    0.693390 0.423184 0.049178 0.103636
H17   H     H_    0.124747 0.779324 0.137838 0.080931
H18   H     H_    0.921396 0.678031 0.902839 0.086630
H19   H     H_    0.062243 0.808837 0.060121 0.095511
H20   H     H_    0.125767 0.492482 0.716599 0.095077
H21   H     H_    0.155826 0.470760 0.140773 0.096523
H22   H     H_    0.076415 0.346833 0.698861 0.105350
H23   H     H_    0.921369 0.193426 0.961330 0.105120
H24   H     H_    0.053491 0.851936 0.509661 0.120415
H25   H     H_    0.937520 0.255630 0.663589 0.032336
H26   H     H_    0.137083 0.180518 0.771070 0.006442
H27   H     H_    0.218399 0.884256 0.511167 -0.003543
H28   H     H_    0.385989 0.702455 0.485664 -0.005020
H29   H     H_    0.687219 0.645751 0.236743 -0.017288
H30   H     H_    0.497687 0.532109 0.592085 0.047146
H31   H     H_    0.371321 0.511486 0.475712 0.144646
H32   H     H_    0.813010 0.591677 0.920860 0.090329
H33   H     H_    0.352771 0.415322 0.207523 0.007296
H34   H     H_    0.279241 0.624415 0.857158 0.106803
H35   H     H_    0.525205 0.717002 0.037164 0.139688
H36   H     H_    0.749951 0.072765 0.017626 0.009649
H37   H     H_    0.892491 0.813318 0.918901 0.112701
H38   H     H_    0.850919 0.579091 0.300958 0.110797
H39   H     H_    0.271647 0.692325 0.994819 -0.018276
H40   H     H_    0.231313 0.966491 0.338105 0.128861
H41   H     H_    0.194998 0.852132 0.222707 0.107859
H42   H     H_    0.014293 0.739419 0.396793 0.111948
H43   H     H_    0.693802 0.437885 0.162147 0.125160
H44   H     H_    0.062474 0.054048 0.463575 0.168166
N1    N     N_R   0.034930 0.670790 0.995440 -0.043788
N2    N     N_R   0.867000 0.509260 0.948460 -0.042880
N3    N     N_R   0.003780 0.616410 0.165900 -0.038316
N4    N     N_R   0.825670 0.461520 0.995440 -0.041387
N5    N     N_R   0.045120 0.664150 0.118920 -0.041977
N6    N     N_R   0.884940 0.497570 0.165910 -0.043440
N7    N     N_R   0.985840 0.628110 0.948460 -0.039893
N8    N     N_R   0.174330 0.538480 0.004560 -0.072845
N9    N     N_R   0.954880 0.335850 0.881080 -0.038789
N10   N     N_R   0.115060 0.502430 0.834090 -0.039409
N11   N     N_R   0.014160 0.371890 0.051540 -0.045320
N12   N     N_R   0.965070 0.329210 0.004560 -0.044746
N13   N     N_R   0.164150 0.545120 0.881070 -0.048145
N14   N     N_R   0.133000 0.490740 0.051540 -0.045297
N15   N     N_R   0.996220 0.383590 0.834100 -0.040579
N16   N     N_R   0.835850 0.454880 0.118930 -0.039838
Ni1   Ni    Ni4+2 0.103690 0.603690 0.000000 0.203175
Ni2   Ni    Ni4+2 0.896310 0.396310 0.000000 0.249714
Ni3   Ni    Ni4+2 0.991110 0.505800 0.892250 0.216290
Ni4   Ni    Ni4+2 0.008890 0.494200 0.107750 0.208381
O1    O     O_2   0.978307 0.200026 0.537167 -0.578531
O2    O     O_2   0.121896 0.052035 0.748427 -0.561581
O3    O     O_2   0.262818 0.978613 0.592778 -0.531501
O4    O     O_2   0.479582 0.774288 0.434679 -0.539262
O5    O     O_2   0.558843 0.654846 0.269598 -0.534943
O6    O     O_2   0.622123 0.485379 0.528394 -0.573805
O7    O     O_2   0.449016 0.486471 0.237122 -0.576423
O8    O     O_2   0.734463 0.202928 0.094490 -0.582698
O9    O     O_2   0.383483 0.618732 0.936883 -0.571045

loop_
_geom_bond_atom_site_label_1
_geom_bond_atom_site_label_2
_ccdc_geom_bond_type
C25   C31   A    
C5    N15   A    
C58   C62   A    
C57   H15   S    
C27   C29   A    
C11   C13   A    
C66   H25   S    
C35   C36   A    
C51   C61   A    
C68   H26   S    
C40   H16   S    
N15   Ni3   S    
N10   N13   A    
C73   H33   S    
N4    Ni2   S    
C69   O3    D    
C45   N8    A    
N16   Ni2   S    
C26   C27   A    
C2    N13   A    
C19   C66   S    
C18   C24   A    
C49   H7    S    
C36   C37   A    
C6    C45   A    
C16   N2    A    
C54   H13   S    
C30   C31   A    
N2    N4    A    
C10   C17   A    
C23   C40   A    
C56   H1    S    
C68   O2    D    
C18   C19   A    
N6    Ni4   S    
C49   C50   A    
C1    N1    A    
N10   Ni3   S    
C75   O9    D    
C4    N16   A    
N8    N14   A    
N8    Ni1   S    
C5    H22   S    
N11   N12   A    
C64   N7    A    
C6    C41   S    
C1    C65   A    
C74   O8    D    
C52   H17   S    
C9    C76   A    
C32   C38   A    
C4    C12   A    
C29   C30   A    
C53   C65   S    
C22   C69   S    
C76   H12   S    
C63   H38   S    
C3    C6    A    
C28   C34   A    
C59   C60   A    
C13   C14   A    
N1    N7    A    
C26   C71   S    
C41   C43   A    
C77   N12   A    
C7    C56   A    
C44   H9    S    
N9    Ni2   S    
C44   C46   A    
C16   H32   S    
C54   C59   A    
C53   C55   A    
C31   C38   S    
N9    N15   A    
C2    H34   S    
C17   C24   S    
C73   O7    D    
C43   H8    S    
N1    Ni1   S    
C5    C7    A    
C12   C63   A    
C53   C57   A    
C12   C27   S    
C58   C59   A    
C74   H36   S    
N2    Ni3   S    
C8    C35   S    
C37   C38   A    
C61   H11   S    
C47   C48   A    
C29   H2    S    
C72   H30   S    
C36   H4    S    
C62   H14   S    
C28   H10   S    
C50   H35   S    
C70   O4    D    
C9    C77   A    
C15   H24   S    
C66   O1    D    
C39   C49   A    
C7    C20   S    
C16   C23   A    
C21   C68   S    
C41   C44   A    
C22   C24   A    
N3    Ni4   S    
C51   C60   A    
C42   C43   A    
N3    N5    A    
C69   H27   S    
N11   Ni4   S    
C15   C17   A    
C46   C47   A    
N5    Ni1   S    
C42   C73   S    
C52   N5    A    
C67   N10   A    
C64   H18   S    
C70   H28   S    
N13   Ni1   S    
C54   C55   A    
C30   C72   S    
C28   N3    A    
C33   H3    S    
N12   Ni2   S    
C25   C70   S    
C55   H37   S    
C77   H23   S    
C72   O6    D    
C46   C50   A    
C34   C52   A    
C48   H6    S    
C45   C75   S    
C64   C65   A    
C19   C20   A    
C25   C26   A    
C13   C34   S    
C10   H40   S    
C32   C33   A    
C76   N11   A    
C3    H21   S    
C57   C58   A    
C1    H19   S    
C23   C39   S    
C40   N4    A    
C60   C74   S    
C33   C35   A    
C3    N14   A    
C42   C47   A    
N7    Ni3   S    
C61   C62   A    
C37   H5    S    
C63   N6    A    
C10   C11   A    
C67   H20   S    
C18   H44   S    
N14   Ni4   S    
C71   O5    D    
C20   C21   A    
C8    C67   A    
C14   H42   S    
C32   H31   S    
C71   H29   S    
C2    C8    A    
C14   C15   A    
C4    H43   S    
C75   H39   S    
N6    N16   A    
C21   C22   A    
C11   H41   S    
C56   N9    A    
C39   C48   A    
