data_mof_unit_2793.cif
_audit_creation_date              2012-12-11T15:48:02-0500
_audit_creation_method            fapswitch 2.2
_symmetry_space_group_name_H-M    P1
_symmetry_Int_Tables_number       1
_space_group_crystal_system       triclinic
_cell_length_a                    6.918736
_cell_length_b                    17.672832
_cell_length_c                    19.470508
_cell_angle_alpha                 108.582307
_cell_angle_beta                  89.772593
_cell_angle_gamma                 90.46256
_cell_volume                      2256.53932374

loop_
_atom_site_label
_atom_site_type_symbol
_atom_type_description
_atom_site_fract_x
_atom_site_fract_y
_atom_site_fract_z
_atom_type_partial_charge
O1    O     O_R   0.494330 0.415710 0.413720 -0.561161
O2    O     O_R   0.819360 0.430070 0.560210 -0.509388
O3    O     O_R   0.994320 0.584290 0.586280 -0.564822
C1    C     C_R   0.650678 0.413965 0.581127 0.727925
O4    O     O_R   0.823740 0.406290 0.412670 -0.534162
O5    O     O_R   0.998730 0.560340 0.437690 -0.532654
C2    C     C_R   0.653656 0.381116 0.386105 0.657281
O6    O     O_R   0.489920 0.439660 0.562310 -0.541648
O7    O     O_3   0.662330 0.550570 0.508380 -0.359403
V1    V     V_3+5 0.935370 0.490620 0.498440 1.517713
O8    O     O_R   0.328720 0.569930 0.439790 -0.523075
C3    C     C_R   0.160398 0.585428 0.418428 0.698950
O9    O     O_R   0.324340 0.593710 0.587330 -0.508167
C4    C     C_R   0.154932 0.615065 0.616457 0.759223
V2    V     V_3+5 0.435940 0.509380 0.501560 1.523785
O10   O     O_3   0.159110 0.449430 0.491620 -0.372072
C5    C     C_R   0.267779 0.748185 0.698152 0.282374
C6    C     C_R   0.264229 0.811187 0.765184 0.327890
C7    C     C_R   0.120606 0.812622 0.817377 -0.208316
C8    C     C_R   0.989205 0.747678 0.804789 -0.112943
C9    C     C_R   0.003930 0.681192 0.740580 -0.086710
C10   C     C_R   0.141756 0.682190 0.686268 -0.201436
C11   C     C_R   0.293326 0.623810 0.312720 0.301268
C12   C     C_R   0.153621 0.635181 0.369065 -0.250147
C13   C     C_R   0.007998 0.693782 0.377286 0.269241
C14   C     C_R   0.996758 0.736764 0.327585 0.085274
C15   C     C_R   0.143696 0.729174 0.275134 -0.108287
C16   C     C_R   0.299478 0.676017 0.270280 -0.049074
C17   C     C_R   0.841747 0.788990 0.330455 -0.127564
C18   C     C_R   0.829396 0.831703 0.281440 -0.207983
C19   C     C_R   0.974315 0.825277 0.229608 0.128558
C20   C     C_R   0.133411 0.774774 0.226944 0.099556
C21   C     C_R   0.281508 0.769776 0.175849 0.015532
C22   C     C_R   0.438376 0.719530 0.172913 -0.201346
C23   C     C_R   0.451250 0.673977 0.219776 0.408519
C24   C     C_R   0.963363 0.869115 0.180825 -0.212954
C25   C     C_R   0.112841 0.865536 0.130761 -0.075271
C26   C     C_R   0.272104 0.815983 0.128984 -0.189175
H1    H     H_    0.726677 0.795971 0.369817 0.169046
H2    H     H_    0.706432 0.870228 0.284401 0.129934
H3    H     H_    0.840740 0.907672 0.183074 0.124089
H4    H     H_    0.387785 0.812624 0.090401 0.131886
H5    H     H_    0.555035 0.716718 0.134836 0.158571
C27   C     C_R   0.775186 0.181684 0.867750 -0.239342
C28   C     C_R   0.619565 0.130380 0.866140 -0.155358
C29   C     C_R   0.469919 0.122658 0.815430 0.360087
C30   C     C_R   0.468133 0.171797 0.770094 0.019336
C31   C     C_R   0.626459 0.224592 0.773017 -0.056022
C32   C     C_R   0.780410 0.229669 0.822371 0.042927
C33   C     C_R   0.311414 0.170547 0.722992 0.355393
C34   C     C_R   0.319971 0.217574 0.676999 -0.227129
C35   C     C_R   0.478665 0.267443 0.677283 0.042744
C36   C     C_R   0.632268 0.271708 0.725911 -0.043372
C37   C     C_R   0.794009 0.321215 0.726132 -0.065642
C38   C     C_R   0.948130 0.322528 0.773534 -0.165704
C39   C     C_R   0.939060 0.281136 0.823493 0.392868
C40   C     C_R   0.486220 0.311240 0.628130 0.275007
C41   C     C_R   0.644904 0.362955 0.629412 -0.208097
C42   C     C_R   0.799136 0.367556 0.678371 0.335363
H6    H     H_    0.892425 0.182824 0.904611 0.158227
H7    H     H_    0.199491 0.215251 0.640999 0.174154
H8    H     H_    0.079248 0.356124 0.773514 0.161518
C43   C     C_R   0.794894 0.295399 0.268865 -0.055995
H9    H     H_    0.923108 0.332885 0.280380 0.133966
C44   C     C_R   0.786127 0.232598 0.203288 -0.121270
H10   H     H_    0.908410 0.222684 0.166652 0.123105
C45   C     C_R   0.620161 0.184322 0.184438 -0.093023
C46   C     C_R   0.465300 0.198741 0.233481 -0.131074
H11   H     H_    0.339568 0.159855 0.220109 0.154985
C47   C     C_R   0.474567 0.259527 0.301128 -0.018461
C48   C     C_R   0.640310 0.310638 0.318581 -0.128317
O11   O     O_R   0.774940 0.060470 0.937800 -0.544746
O12   O     O_R   0.440880 0.093730 0.087350 -0.550438
O13   O     O_R   0.266130 0.939630 0.062280 -0.547563
C49   C     C_R   0.609975 0.117002 0.115228 0.672775
O14   O     O_R   0.445480 0.069960 0.939820 -0.508242
O15   O     O_R   0.270770 0.915690 0.913690 -0.494903
C50   C     C_R   0.613913 0.083372 0.917006 0.784116
O16   O     O_R   0.770300 0.084410 0.086380 -0.545061
O17   O     O_3   0.602600 0.949510 0.991670 -0.370518
V3    V     V_3+5 0.329470 0.009370 0.001550 1.516974
O18   O     O_R   0.940760 0.906160 0.912560 -0.559448
C51   C     C_R   0.109906 0.882593 0.885089 0.769587
O19   O     O_R   0.936150 0.929930 0.060100 -0.549901
C52   C     C_R   0.104512 0.914716 0.081582 0.683526
V4    V     V_3+5 0.828930 0.990450 0.998310 1.458022
O20   O     O_3   0.105670 0.050490 0.008320 -0.372378
O21   O     O_3   0.388733 0.750863 0.642254 -0.642189
H12   H     H_    0.414819 0.807333 0.646402 0.291856
O22   O     O_3   0.617641 0.630462 0.215656 -0.612213
H13   H     H_    0.658281 0.636319 0.265791 0.333155
O23   O     O_3   0.332708 0.063853 0.808951 -0.599720
H14   H     H_    0.332365 0.030078 0.757351 0.325827
O24   O     O_3   0.147823 0.125385 0.723964 -0.629693
H15   H     H_    0.051981 0.132196 0.688686 0.286092
O25   O     O_3   0.339004 0.300499 0.578143 -0.623576
H16   H     H_    0.396384 0.301303 0.531764 0.278620
O26   O     O_3   0.953263 0.417583 0.677774 -0.622362
H17   H     H_    0.998478 0.443237 0.727904 0.313230
O27   O     O_3   0.397193 0.873058 0.780198 -0.635221
H18   H     H_    0.520762 0.852211 0.755844 0.298258
O28   O     O_3   0.092034 0.291095 0.870859 -0.632987
H19   H     H_    0.040308 0.292877 0.918785 0.285828
C53   C     C_2   0.315293 0.264083 0.353771 0.357382
H20   H     H_    0.334639 0.295402 0.410854 0.062338
O29   O     O_2   0.160490 0.230628 0.334142 -0.538879
C54   C     C_2   0.839067 0.748447 0.860067 0.531723
H21   H     H_    0.876382 0.767389 0.917160 0.014043
O30   O     O_2   0.671689 0.730019 0.842306 -0.520575
C55   C     C_2   0.883072 0.608871 0.733311 0.469907
H22   H     H_    0.805655 0.578683 0.683944 0.068130
O31   O     O_2   0.866979 0.582630 0.783989 -0.525236
O32   O     O_3   0.416392 0.559128 0.295014 -0.624975
H23   H     H_    0.352860 0.514184 0.306476 0.287813
O33   O     O_3   0.874598 0.710443 0.433092 -0.636224
H24   H     H_    0.936339 0.702737 0.476136 0.298118

loop_
_geom_bond_atom_site_label_1
_geom_bond_atom_site_label_2
_ccdc_geom_bond_type
C27   C32   A    
C38   C39   A    
C43   C44   A    
C5    O21   S    
O12   C49   A    
C7    C8    A    
C34   H7    S    
C1    O6    A    
C53   O29   D    
C9    C55   S    
O22   H13   S    
O18   V4    S    
C36   C37   A    
C35   C36   A    
C14   C15   A    
C17   C18   A    
C25   C52   S    
C24   C25   A    
O19   V4    S    
C26   H4    S    
C13   O33   S    
C2    C48   S    
C18   C19   A    
C47   C53   S    
C29   O23   S    
O15   C51   A    
O33   H24   S    
C38   H8    S    
C22   C23   A    
C55   H22   S    
O23   H14   S    
O11   C50   A    
C29   C30   A    
O8    V2    S    
C30   C31   A    
C16   C23   A    
C46   H11   S    
C44   C45   A    
C40   O25   S    
O17   V4    S    
C54   H21   S    
C28   C50   S    
O1    V2    S    
O7    V1    S    
C8    C54   S    
O9    C4    A    
C54   O30   D    
C24   H3    S    
O28   H19   S    
C6    O27   S    
C7    C51   S    
O12   V3    S    
C53   H20   S    
C5    C6    A    
C30   C33   A    
C37   C42   A    
C31   C36   A    
C45   C46   A    
C12   C13   A    
O4    C2    A    
V4    O20   S    
C6    C7    A    
C33   C34   A    
C41   C42   A    
C28   C29   A    
C34   C35   A    
O2    C1    A    
C25   C26   A    
C11   O32   S    
C19   C20   A    
O15   V3    S    
C11   C12   A    
O25   H16   S    
C17   H1    S    
C21   C22   A    
C18   H2    S    
C11   C16   A    
O19   C52   A    
V3    O20   S    
O3    C4    A    
C46   C47   A    
C31   C32   A    
C43   C48   A    
O26   H17   S    
O6    V2    S    
O9    V2    S    
C45   C49   S    
O13   V3    S    
O2    V1    S    
C47   C48   A    
C27   C28   A    
O32   H23   S    
C37   C38   A    
C15   C20   A    
O1    C2    A    
C33   O24   S    
C22   H5    S    
C21   C26   A    
O14   C50   A    
O17   V3    S    
O14   V3    S    
O5    V1    S    
O11   V4    S    
O8    C3    A    
C32   C39   A    
C3    C12   S    
C5    C10   A    
C20   C21   A    
C4    C10   S    
C13   C14   A    
C39   O28   S    
O4    V1    S    
O3    V1    S    
V1    O10   S    
O5    C3    A    
C40   C41   A    
C27   H6    S    
O27   H18   S    
C44   H10   S    
O13   C52   A    
O7    V2    S    
O24   H15   S    
C55   O31   D    
C35   C40   A    
C43   H9    S    
C23   O22   S    
O21   H12   S    
C14   C17   A    
C8    C9    A    
O18   C51   A    
C1    C41   S    
C15   C16   A    
C42   O26   S    
C19   C24   A    
C9    C10   A    
C49   O16   A    
O16   V4    S    
V2    O10   S    
