data_mof_unit_1736.cif
_audit_creation_date              2013-03-05T15:48:55-0500
_audit_creation_method            fapswitch 2.2
_symmetry_space_group_name_H-M    P1
_symmetry_Int_Tables_number       1
_space_group_crystal_system       triclinic
_cell_length_a                    6.949459
_cell_length_b                    13.508608
_cell_length_c                    20.14158
_cell_angle_alpha                 104.179803
_cell_angle_beta                  90.348308
_cell_angle_gamma                 90.563806
_cell_volume                      1833.07187595

loop_
_atom_site_label
_atom_site_type_symbol
_atom_site_description
_atom_site_fract_x
_atom_site_fract_y
_atom_site_fract_z
_atom_type_partial_charge
O1    O     O_R   0.506780 0.600060 0.449950 -0.567538
O2    O     O_R   0.179840 0.597110 0.589410 -0.588484
O3    O     O_R   0.004570 0.399940 0.550050 -0.590469
C1    C     C_R   0.348936 0.618863 0.616932 0.974071
O4    O     O_R   0.177380 0.612160 0.452890 -0.598810
O5    O     O_R   0.002100 0.415100 0.412560 -0.587596
C2    C     C_R   0.345926 0.637608 0.435345 1.121529
O6    O     O_R   0.509250 0.584900 0.587440 -0.585381
O7    O     O_3   0.337570 0.435330 0.486930 -0.261243
V1    V     V_3+5 0.064650 0.512000 0.502430 1.281079
O8    O     O_R   0.672090 0.402890 0.410590 -0.579006
C3    C     C_R   0.839604 0.382405 0.382792 1.025117
O9    O     O_R   0.674540 0.387840 0.547110 -0.591971
C4    C     C_R   0.842867 0.361210 0.563621 1.095565
V2    V     V_3+5 0.564040 0.488000 0.497570 1.294529
O10   O     O_3   0.840990 0.564670 0.513070 -0.271059
C5    C     C_R   0.849783 0.108700 0.608337 0.525596
H1    H     H_    0.873797 0.160646 0.516347 0.213094
H2    H     H_    0.821465 0.982061 0.692624 0.174473
C6    C     C_R   0.849400 0.286254 0.604898 -0.336262
C7    C     C_R   0.903927 0.318508 0.933169 -0.173999
C8    C     C_R   0.932031 0.393344 0.897610 -0.111178
C9    C     C_R   0.917316 0.368963 0.826469 -0.092550
C10   C     C_R   0.864015 0.269366 0.788929 0.150736
C11   C     C_R   0.847912 0.191760 0.825397 0.117273
C12   C     C_R   0.843463 0.242740 0.715880 -0.099063
C13   C     C_R   0.841156 0.137321 0.680540 -0.007643
C14   C     C_R   0.829130 0.062525 0.717871 -0.115220
C15   C     C_R   0.826212 0.089380 0.788828 -0.254627
C16   C     C_R   0.825540 0.316628 0.676411 0.281933
C17   C     C_R   0.863057 0.183283 0.571652 -0.267639
C18   C     C_R   0.865147 0.217639 0.897749 -0.170304
H3    H     H_    0.921286 0.338326 0.988384 0.108758
H4    H     H_    0.958568 0.428243 0.801879 0.151999
H5    H     H_    0.971553 0.470223 0.925199 0.123112
H6    H     H_    0.815205 0.028240 0.814789 0.124336
C19   C     C_3   0.793644 0.158707 0.251335 0.424619
C20   C     C_3   0.963687 0.216044 0.292535 0.317714
C21   C     C_3   0.846335 0.313596 0.311966 -0.254411
C22   C     C_3   0.672753 0.257034 0.270483 -0.168224
C23   C     C_3   0.749022 0.288101 0.205892 -0.137306
C24   C     C_3   0.922786 0.345043 0.248100 -0.064524
C25   C     C_3   0.043240 0.245632 0.228825 -0.267736
C26   C     C_3   0.868445 0.189421 0.187420 -0.281336
H7    H     H_    0.520664 0.262181 0.286968 0.199519
H8    H     H_    0.659935 0.318100 0.169414 0.146509
H9    H     H_    0.974902 0.422638 0.247127 0.151643
H10   H     H_    0.195727 0.239988 0.212318 0.163141
C27   C     C_3   0.538789 0.729274 0.729751 -0.049145
C28   C     C_3   0.449824 0.837178 0.749497 -0.146808
H11   H     H_    0.525931 0.909753 0.749515 0.129031
H12   H     H_    0.689216 0.712136 0.712863 0.149765
C29   C     C_3   0.356217 0.811156 0.812347 -0.132567
C30   C     C_3   0.445279 0.704053 0.793400 -0.109188
C31   C     C_3   0.262941 0.662910 0.750448 -0.082222
C32   C     C_3   0.173989 0.770832 0.770185 -0.128687
C33   C     C_3   0.267504 0.796040 0.706532 -0.093912
C34   C     C_3   0.356575 0.688922 0.687595 -0.103694
H13   H     H_    0.518134 0.666315 0.829657 0.137648
H14   H     H_    0.186898 0.590324 0.750579 0.158205
H15   H     H_    0.023568 0.788159 0.787031 0.126600
H16   H     H_    0.194447 0.833810 0.670334 0.177106
C35   C     C_R   0.294096 0.887771 0.388608 -0.128748
H17   H     H_    0.279501 0.012234 0.306721 0.189385
H18   H     H_    0.267951 0.966821 0.414394 0.204150
C36   C     C_R   0.351276 0.714612 0.395340 -0.378634
C37   C     C_R   0.353949 0.678738 0.064754 -0.171070
C38   C     C_R   0.328708 0.601768 0.098877 -0.109535
C39   C     C_R   0.316359 0.625660 0.170097 -0.097485
C40   C     C_R   0.337200 0.727454 0.209389 0.145602
C41   C     C_R   0.338419 0.806227 0.173494 0.081272
C42   C     C_R   0.341788 0.754469 0.282822 -0.027358
C43   C     C_R   0.309804 0.858249 0.317241 0.011298
C44   C     C_R   0.297178 0.933013 0.280494 0.016732
C45   C     C_R   0.317101 0.908187 0.210067 -0.131879
C46   C     C_R   0.381216 0.684643 0.324026 0.336511
C47   C     C_R   0.308426 0.816128 0.427345 0.459711
C48   C     C_R   0.355051 0.781006 0.101307 -0.157885
H19   H     H_    0.363911 0.658792 0.009399 0.105712
H20   H     H_    0.278981 0.563931 0.192935 0.165025
H21   H     H_    0.315478 0.523081 0.069895 0.121944
H22   H     H_    0.312411 0.969931 0.184514 0.136376
O11   O     O_R   0.203580 0.914920 0.912610 -0.596487
O12   O     O_R   0.535710 0.887810 0.047120 -0.577076
O13   O     O_R   0.710730 0.084950 0.087430 -0.584428
C49   C     C_R   0.366439 0.860124 0.062938 0.937002
O14   O     O_R   0.533010 0.902850 0.910600 -0.604590
O15   O     O_R   0.708010 0.100090 0.949930 -0.597911
C50   C     C_R   0.363911 0.881128 0.883055 0.923144
O16   O     O_R   0.206300 0.899780 0.050100 -0.594360
O17   O     O_3   0.375170 0.064580 0.013100 -0.277188
V3    V     V_3+5 0.648200 0.988020 0.997570 1.181493
O18   O     O_R   0.038030 0.112330 0.952840 -0.594411
C51   C     C_R   0.869665 0.139202 0.936581 0.924716
O19   O     O_R   0.040730 0.097300 0.089360 -0.605680
C52   C     C_R   0.873439 0.118980 0.116891 1.018562
V4    V     V_3+5 0.148780 0.012220 0.002360 1.172265
O20   O     O_3   0.871930 0.935430 0.986900 -0.277107
Cl1   Cl    Cl    0.721278 0.033014 0.253439 -0.648581
Cl2   Cl    Cl    0.283791 0.857019 0.516909 -0.590482
Cl3   Cl    Cl    0.501324 0.567311 0.292181 -0.718084
Cl4   Cl    Cl    0.843884 0.980157 0.561021 -0.558690
N1    N     N_R   0.754213 0.417314 0.706285 0.212686
O21   O     O_R   0.838646 0.497816 0.694735 -0.471386
O22   O     O_R   0.598979 0.428286 0.743074 -0.426777
N2    N     N_R   0.077453 0.179211 0.342325 0.216980
O23   O     O_R   0.994793 0.124499 0.379170 -0.392836
O24   O     O_R   0.245227 0.220249 0.361225 -0.416798

loop_
_geom_bond_atom_site_label_1
_geom_bond_atom_site_label_2
_geom_bond_distance
_ccdc_geom_bond_type
C18   C51   1.463502 S    
C31   C32   1.549947 S    
C35   H18   1.084578 S    
O18   C51   1.292267 A    
C23   C24   1.556104 S    
O19   C52   1.296080 A    
C42   C46   1.428065 A    
V4    O20   2.160973 S    
V3    O20   1.708593 S    
C33   H16   1.110178 S    
C6    C16   1.408992 A    
C29   C30   1.540111 S    
C8    H5    1.082847 S    
C15   H6    1.082704 S    
C12   C13   1.427467 A    
C38   H21   1.082819 S    
C7    C8    1.387665 A    
C14   C15   1.386019 A    
O12   C49   1.295928 A    
C19   C22   1.547178 S    
O5    C3    1.296917 A    
C20   C21   1.525510 S    
O13   C52   1.299995 A    
C7    H3    1.083939 S    
N2    O23   1.300970 A    
V2    O10   2.160898 S    
C32   C33   1.549740 S    
C47   Cl2   1.762423 S    
C43   C44   1.393818 A    
O8    V2    2.000264 S    
O15   V3    2.022271 S    
C38   C39   1.394451 A    
C16   N1    1.440007 S    
C23   H8    1.110239 S    
C40   C41   1.425472 A    
O1    V2    2.021972 S    
O7    V1    2.157513 S    
O16   V4    2.028372 S    
C1    O6    1.299672 A    
C48   C49   1.466131 S    
C11   C18   1.416917 A    
O9    C4    1.292500 A    
C37   C48   1.397150 A    
O13   V3    1.999327 S    
C21   C24   1.545660 S    
C30   H13   1.110184 S    
C8    C9    1.392288 A    
C11   C15   1.404804 A    
C22   H7    1.107516 S    
O11   C50   1.299672 A    
C7    C18   1.397296 A    
O15   C51   1.294251 A    
C28   C29   1.540375 S    
C44   C45   1.383498 A    
C37   C38   1.390045 A    
C5    C13   1.412115 A    
C4    C6    1.459930 S    
C37   H19   1.083793 S    
C10   C11   1.423746 A    
C49   O16   1.291675 A    
O17   V3    2.157536 S    
O4    C2    1.292914 A    
C35   C43   1.399672 A    
C27   C34   1.538883 S    
C20   N2    1.456332 S    
O2    C1    1.296168 A    
C5    Cl4   1.764219 S    
C19   C20   1.529747 S    
C26   C52   1.504553 S    
C9    C10   1.416845 A    
C27   H12   1.110239 S    
C36   C46   1.410953 A    
C28   H11   1.109286 S    
N1    O22   1.301495 A    
O17   V4    1.709187 S    
H2    C14   1.081950 S    
O3    C4    1.293633 A    
C22   C23   1.555977 S    
C12   C16   1.426071 A    
O6    V2    1.998072 S    
O14   C50   1.296305 A    
C25   C26   1.551419 S    
C29   C50   1.504364 S    
C5    C17   1.390423 A    
C23   C26   1.544903 S    
C24   C25   1.557398 S    
O2    V1    2.002468 S    
O18   V4    2.021888 S    
C19   Cl1   1.776628 S    
O14   V3    2.002608 S    
C35   C47   1.387886 A    
C29   C32   1.538938 S    
C46   Cl3   1.776166 S    
C36   C47   1.400732 A    
C30   C31   1.549279 S    
C9    H4    1.077160 S    
O1    C2    1.293698 A    
C28   C33   1.549286 S    
C10   C12   1.432384 A    
C42   C43   1.423812 A    
O5    V1    1.999332 S    
O8    C3    1.297540 A    
O19   V4    2.000413 S    
C45   H22   1.082714 S    
C25   H10   1.110302 S    
C3    C21   1.501093 S    
O9    V2    2.022021 S    
O7    V2    1.711228 S    
C20   C25   1.538713 S    
O3    V1    2.022269 S    
V1    O10   1.708556 S    
C2    C36   1.463875 S    
C41   C45   1.403529 A    
C33   C34   1.540315 S    
N2    O24   1.300053 A    
C19   C26   1.537922 S    
C24   H9    1.110378 S    
C39   C40   1.414100 A    
C21   C22   1.547219 S    
O4    V1    2.022404 S    
C27   C28   1.549772 S    
O11   V4    1.998645 S    
C31   C34   1.540449 S    
C1    C34   1.504099 S    
N1    O21   1.301565 A    
H17   C44   1.079728 S    
C32   H15   1.110357 S    
C39   H20   1.076814 S    
C40   C42   1.434069 A    
H1    C17   1.083740 S    
O12   V3    2.022428 S    
C31   H14   1.109870 S    
C41   C48   1.415477 A    
C27   C30   1.549728 S    
C13   C14   1.401631 A    
C6    C17   1.392600 A    
