data_mof_unit_4746.cif
_audit_creation_date              2012-12-11T15:17:59-0500
_audit_creation_method            fapswitch 2.2
_symmetry_space_group_name_H-M    P1
_symmetry_Int_Tables_number       1
_space_group_crystal_system       triclinic
_cell_length_a                    15.778432
_cell_length_b                    15.702135
_cell_length_c                    34.53278
_cell_angle_alpha                 90.251877
_cell_angle_beta                  90.078593
_cell_angle_gamma                 120.065269
_cell_volume                      7404.41606467

loop_
_atom_site_label
_atom_site_type_symbol
_atom_type_description
_atom_site_fract_x
_atom_site_fract_y
_atom_site_fract_z
_atom_type_partial_charge
C1    C     C_R   0.578303 0.441855 0.554894 0.549752
C2    C     C_R   0.493971 0.981291 0.213293 0.351389
C3    C     C_1   0.618459 0.926455 0.090707 0.218371
C4    C     C_1   0.308129 0.380719 0.090133 0.217988
C5    C     C_1   0.077838 0.695380 0.091299 0.219904
C6    C     C_R   0.487511 0.506048 0.213142 0.351309
C7    C     C_R   0.017769 0.512271 0.213061 0.351292
C8    C     C_R   0.161470 0.501323 0.836181 -0.113194
C9    C     C_R   0.562684 0.577516 0.852491 -0.114952
C10   C     C_R   0.418279 0.980499 0.851690 -0.118867
C11   C     C_R   0.431024 0.001555 0.354581 -0.115512
C12   C     C_R   0.571597 0.568116 0.354687 -0.115457
C13   C     C_R   0.994049 0.426580 0.354209 -0.115373
C14   C     C_R   0.171780 0.503058 0.876263 -0.125660
C15   C     C_R   0.558635 0.136819 0.554931 0.548479
C16   C     C_R   0.551791 0.595642 0.891067 -0.124282
C17   C     C_R   0.401109 0.952672 0.890336 -0.130927
C18   C     C_R   0.444466 0.036578 0.392449 -0.127157
C19   C     C_R   0.592636 0.555044 0.392587 -0.126826
C20   C     C_R   0.960396 0.405863 0.392129 -0.126830
C21   C     C_R   0.174803 0.658617 0.879404 -0.128024
C22   C     C_R   0.383988 0.461083 0.889661 -0.133818
C23   C     C_R   0.535590 0.919673 0.889400 -0.126113
C24   C     C_R   0.612294 0.070936 0.391047 -0.128099
C25   C     C_R   0.459951 0.385816 0.390484 -0.127951
C26   C     C_R   0.862736 0.421787 0.555342 0.548696
C27   C     C_R   0.926373 0.540167 0.390793 -0.128247
C28   C     C_R   0.163590 0.656512 0.839157 -0.113557
C29   C     C_R   0.394655 0.443262 0.850891 -0.118759
C30   C     C_R   0.552799 0.947547 0.850652 -0.114515
C31   C     C_R   0.598928 0.036094 0.353075 -0.116101
C32   C     C_R   0.439021 0.398810 0.352468 -0.115929
C33   C     C_R   0.959897 0.560814 0.352770 -0.115978
C34   C     C_R   0.155538 0.577091 0.817190 0.035791
C35   C     C_R   0.482728 0.504491 0.831514 0.035410
C36   C     C_R   0.491352 0.973860 0.831019 0.034353
C37   C     C_R   0.441360 0.578366 0.055056 0.552214
C38   C     C_R   0.509676 0.005907 0.333901 0.034279
C39   C     C_R   0.497828 0.488701 0.333649 0.034118
C40   C     C_R   0.989540 0.501094 0.333561 0.034136
C41   C     C_R   0.176814 0.580689 0.898400 0.018862
C42   C     C_R   0.460858 0.540906 0.909325 0.025609
C43   C     C_R   0.456636 0.917638 0.908951 0.024142
C44   C     C_R   0.536630 0.076162 0.410230 0.022755
C45   C     C_R   0.540067 0.462478 0.410087 0.023036
C46   C     C_R   0.921910 0.459444 0.410035 0.022790
C47   C     C_R   0.577822 0.442265 0.445655 0.550559
C48   C     C_R   0.137100 0.558781 0.055086 0.563574
C49   C     C_R   0.557575 0.135354 0.445672 0.550004
C50   C     C_R   0.864383 0.422134 0.445651 0.550948
C51   C     C_R   0.441988 0.577579 0.945580 0.542736
C52   C     C_R   0.190391 0.582106 0.940749 0.561346
C53   C     C_R   0.421686 0.863814 0.945494 0.540807
C54   C     C_R   0.927917 0.461996 0.589792 0.003301
C55   C     C_R   0.543736 0.464324 0.591222 0.004278
C56   C     C_R   0.536684 0.079856 0.591189 0.004974
C57   C     C_R   0.454944 0.917195 0.092218 0.005041
C58   C     C_R   0.461864 0.545681 0.092232 0.005244
C59   C     C_R   0.421732 0.863218 0.055046 0.550996
C60   C     C_R   0.084058 0.538723 0.092245 0.004970
C61   C     C_R   0.966113 0.406204 0.606042 -0.134610
C62   C     C_R   0.608441 0.550816 0.611425 -0.134178
C63   C     C_R   0.449699 0.056565 0.610752 -0.135070
C64   C     C_R   0.388989 0.935866 0.112703 -0.134374
C65   C     C_R   0.546050 0.612630 0.112999 -0.134263
C66   C     C_R   0.064516 0.453324 0.112472 -0.133800
C67   C     C_R   0.018487 0.434733 0.640738 -0.117989
C68   C     C_R   0.590303 0.564362 0.649647 -0.118260
C69   C     C_R   0.435593 0.024193 0.648811 -0.118373
C70   C     C_R   0.077173 0.542178 0.699717 0.348684
C71   C     C_R   0.404572 0.962172 0.151591 -0.118708
C72   C     C_R   0.556800 0.597055 0.151811 -0.118519
C73   C     C_R   0.037912 0.442399 0.151238 -0.118303
C74   C     C_R   0.034198 0.519967 0.660297 0.019134
C75   C     C_R   0.506667 0.491982 0.668527 0.020344
C76   C     C_R   0.507917 0.013791 0.668212 0.020401
C77   C     C_R   0.486920 0.971251 0.170868 0.020577
C78   C     C_R   0.484004 0.513713 0.170761 0.020480
C79   C     C_R   0.029387 0.516245 0.170692 0.020503
C80   C     C_R   0.001150 0.579141 0.643277 -0.118041
C81   C     C_R   0.497709 0.497106 0.710780 0.352244
C82   C     C_R   0.436424 0.410590 0.647355 -0.118175
C83   C     C_R   0.590199 0.026795 0.647691 -0.118472
C84   C     C_R   0.558521 0.963459 0.149670 -0.118438
C85   C     C_R   0.404801 0.441456 0.149297 -0.118375
C86   C     C_R   0.038790 0.596881 0.149764 -0.118421
C87   C     C_R   0.948467 0.551239 0.608374 -0.025554
C88   C     C_R   0.453959 0.396187 0.608876 -0.025313
C89   C     C_R   0.605176 0.059429 0.609367 -0.025410
C90   C     C_R   0.543521 0.936863 0.110513 -0.025195
C91   C     C_R   0.393171 0.456461 0.110218 -0.025250
C92   C     C_R   0.501577 0.998527 0.710379 0.351752
C93   C     C_R   0.065751 0.608721 0.110743 -0.025790
C94   C     C_R   0.134870 0.569361 0.775139 0.349649
C95   C     C_R   0.489040 0.498890 0.789163 0.347982
C96   C     C_R   0.497452 0.986090 0.788710 0.347880
C97   C     C_R   0.501936 0.990498 0.291709 0.348532
C98   C     C_R   0.489965 0.496726 0.291497 0.348406
C99   C     C_R   0.005394 0.509044 0.291415 0.348359
C100  C     C_1   0.914494 0.614665 0.593358 0.218616
C101  C     C_1   0.380188 0.308888 0.589178 0.218250
C102  C     C_1   0.693326 0.074914 0.590409 0.220600
Cr1   Cr    Cr6+3 0.522350 0.263930 0.500020 1.053487
Cr2   Cr    Cr6+3 0.736070 0.258420 0.500020 1.053901
Cr3   Cr    Cr6+3 0.741580 0.477650 0.500020 1.053740
Cr4   Cr    Cr6+3 0.263930 0.522350 0.000020 1.048281
Cr5   Cr    Cr6+3 0.258420 0.736070 0.000020 1.052267
Cr6   Cr    Cr6+3 0.477650 0.741580 0.000020 1.047643
H1    H     H_    0.952887 0.338189 0.592548 0.156626
H2    H     H_    0.384450 0.038329 0.406891 0.135424
H3    H     H_    0.653906 0.615775 0.407320 0.135394
H4    H     H_    0.959024 0.344070 0.406558 0.135512
H5    H     H_    0.043651 0.387784 0.652880 0.149587
H6    H     H_    0.644681 0.629286 0.664959 0.150906
H7    H     H_    0.370111 0.012338 0.663603 0.150351
H8    H     H_    0.349302 0.970401 0.166967 0.150049
H9    H     H_    0.620076 0.652956 0.167382 0.150012
H10   H     H_    0.028652 0.378057 0.166385 0.149998
H11   H     H_    0.013601 0.645851 0.657781 0.144353
H12   H     H_    0.676709 0.605571 0.598580 0.164871
H13   H     H_    0.369971 0.355486 0.661291 0.145039
H14   H     H_    0.645407 0.016246 0.662033 0.144756
H15   H     H_    0.624098 0.973375 0.163982 0.144392
H16   H     H_    0.349415 0.375212 0.163338 0.144402
H17   H     H_    0.029619 0.653187 0.164200 0.144398
H18   H     H_    0.156143 0.439299 0.820222 0.143022
H19   H     H_    0.632248 0.624530 0.838603 0.143121
H20   H     H_    0.370907 0.002371 0.837558 0.142223
H21   H     H_    0.360682 0.976732 0.340836 0.142410
H22   H     H_    0.616969 0.638926 0.341234 0.142350
H23   H     H_    0.394726 0.069259 0.597530 0.157771
H24   H     H_    0.018358 0.380482 0.340448 0.142411
H25   H     H_    0.181262 0.720804 0.895621 0.138201
H26   H     H_    0.313579 0.416772 0.903349 0.122754
H27   H     H_    0.579790 0.893320 0.903152 0.135645
H28   H     H_    0.683872 0.100146 0.404305 0.134062
H29   H     H_    0.417734 0.313847 0.403480 0.134105
H30   H     H_    0.897796 0.583170 0.404097 0.133637
H31   H     H_    0.160257 0.716539 0.825342 0.143011
H32   H     H_    0.332217 0.385320 0.835627 0.137866
H33   H     H_    0.610570 0.943009 0.835594 0.143092
H34   H     H_    0.321442 0.923559 0.099472 0.159432
H35   H     H_    0.660442 0.038842 0.338057 0.142185
H36   H     H_    0.380720 0.336651 0.337168 0.142267
H37   H     H_    0.956918 0.619687 0.337778 0.142127
H38   H     H_    0.601009 0.680812 0.100039 0.158800
H39   H     H_    0.075998 0.397378 0.099111 0.158691
H40   H     H_    0.175235 0.443006 0.889966 0.127672
H41   H     H_    0.612763 0.656691 0.905795 0.137619
H42   H     H_    0.340354 0.952739 0.904877 0.136363
N1    N     N_R   0.129597 0.493424 0.754213 -0.218754
N2    N     N_R   0.417367 0.973029 0.234074 -0.220597
N3    N     N_R   0.555823 0.583026 0.234259 -0.220411
N4    N     N_R   0.024399 0.442584 0.233742 -0.220439
N5    N     N_R   0.084659 0.619564 0.720367 -0.220760
N6    N     N_R   0.417380 0.427824 0.729707 -0.217952
N7    N     N_R   0.571121 0.988807 0.729799 -0.221250
N8    N     N_R   0.574308 0.993067 0.232488 -0.220855
N9    N     N_R   0.419659 0.424585 0.231984 -0.220872
N10   N     N_R   0.005821 0.581047 0.232344 -0.220750
N11   N     N_R   0.113010 0.632952 0.757317 -0.218323
N12   N     N_R   0.569120 0.568099 0.770195 -0.223686
N13   N     N_R   0.412858 0.429067 0.768166 -0.221128
N14   N     N_R   0.568761 0.982102 0.768220 -0.221416
N15   N     N_R   0.578468 0.998225 0.270961 -0.221890
N16   N     N_R   0.421233 0.419778 0.270416 -0.221800
N17   N     N_R   0.999151 0.579103 0.270772 -0.221888
N18   N     N_1   0.887417 0.665681 0.581416 -0.289059
N19   N     N_1   0.320990 0.238875 0.573474 -0.287001
N20   N     N_1   0.764026 0.087296 0.575299 -0.284389
N21   N     N_1   0.678584 0.918127 0.074915 -0.282952
N22   N     N_1   0.239916 0.319952 0.074114 -0.282506
N23   N     N_R   0.427896 0.995540 0.769258 -0.223295
N24   N     N_1   0.087521 0.764895 0.075802 -0.281594
N25   N     N_R   0.421440 0.977971 0.272483 -0.222927
N26   N     N_R   0.557265 0.578305 0.272627 -0.222927
N27   N     N_R   0.017953 0.440773 0.272108 -0.222783
N28   N     N_R   0.101356 0.480103 0.717314 -0.219908
N29   N     N_R   0.573536 0.566994 0.731816 -0.221128
N30   N     N_R   0.430134 0.002017 0.730902 -0.219066
O1    O     O_R   0.498680 0.159540 0.541860 -0.509424
O2    O     O_R   0.358060 0.532760 0.040030 -0.488047
O3    O     O_R   0.174700 0.641940 0.040030 -0.482668
O4    O     O_R   0.467240 0.825300 0.040030 -0.485819
O5    O     O_R   0.498590 0.161190 0.456930 -0.519810
O6    O     O_R   0.838810 0.337400 0.456930 -0.519827
O7    O     O_R   0.662600 0.501410 0.456930 -0.520459
O8    O     O_R   0.161190 0.498590 0.956930 -0.507620
O9    O     O_R   0.337400 0.838810 0.956930 -0.532858
O10   O     O_R   0.501410 0.662600 0.956930 -0.518290
O11   O     O_R   0.532680 0.359580 0.461300 -0.502622
O12   O     O_R   0.840460 0.339140 0.541860 -0.507383
O13   O     O_R   0.640420 0.173100 0.461300 -0.503250
O14   O     O_R   0.826900 0.467320 0.461300 -0.503740
O15   O     O_R   0.359580 0.532680 0.961300 -0.523479
O16   O     O_R   0.173100 0.640420 0.961300 -0.492902
O17   O     O_R   0.467320 0.826900 0.961300 -0.503988
O18   O     O_3   0.666667 0.333333 0.499990 -0.255012
O19   O     O_3   0.333333 0.666667 0.999990 -0.282993
O20   O     O_R   0.660860 0.501320 0.541860 -0.506096
O21   O     O_R   0.159540 0.498680 0.041860 -0.502673
O22   O     O_R   0.339140 0.840460 0.041860 -0.507246
O23   O     O_R   0.501320 0.660860 0.041860 -0.506312
O24   O     O_R   0.532760 0.358060 0.540030 -0.488648
O25   O     O_R   0.641940 0.174700 0.540030 -0.488991
O26   O     O_R   0.825300 0.467240 0.540030 -0.488603

loop_
_geom_bond_atom_site_label_1
_geom_bond_atom_site_label_2
_ccdc_geom_bond_type
C44   C49   S    
C102  N20   T    
C11   C18   A    
C97   N25   A    
C22   C29   A    
C25   C45   A    
C89   C102  S    
C5    N24   T    
C17   H42   S    
Cr1   O5    S    
C61   H1    S    
C32   C39   A    
C40   C99   S    
C6    N9    A    
C85   C91   A    
Cr3   O26   S    
N5    N11   A    
C68   C75   A    
C49   O13   A    
N3    N26   A    
C9    H19   S    
C81   N6    A    
C12   H22   S    
C69   C76   A    
C3    C90   S    
C9    C16   A    
C99   N27   A    
C80   C87   A    
C18   C44   A    
C54   C87   A    
C82   C88   A    
C6    C78   S    
C10   C17   A    
Cr2   O12   S    
C55   C62   A    
C14   H40   S    
Cr6   O17   S    
C23   C43   A    
C85   H16   S    
C64   C71   A    
C55   C88   A    
C36   C96   S    
Cr1   O24   S    
Cr4   O2    S    
C13   C40   A    
C72   C78   A    
C92   N30   A    
C20   H4    S    
N2    N25   A    
C43   C53   S    
Cr3   O20   S    
C69   H7    S    
C63   C69   A    
N6    N13   A    
C52   O16   A    
C72   H9    S    
C70   C74   S    
Cr2   O13   S    
C101  N19   T    
C16   H41   S    
C63   H23   S    
C58   C91   A    
C41   C52   S    
C62   H12   S    
C37   C58   S    
C42   C51   S    
C4    C91   S    
C60   C93   A    
C24   H28   S    
C25   C32   A    
C80   H11   S    
C28   C34   A    
C74   C80   A    
C86   H17   S    
C47   O11   A    
Cr6   O10   S    
C26   O26   A    
C28   H31   S    
C84   C90   A    
N10   N17   A    
C38   C97   S    
C10   H20   S    
C26   C54   S    
C76   C83   A    
C21   H25   S    
Cr5   O16   S    
C48   C60   S    
C99   N17   A    
C45   C47   S    
C2    N2    A    
Cr3   O14   S    
C83   C89   A    
C27   H30   S    
C66   H39   S    
C96   N23   A    
Cr6   O4    S    
C70   N5    A    
C33   C40   A    
C23   C30   A    
C34   C94   S    
C81   N29   A    
Cr5   O22   S    
C57   C90   A    
C95   N12   A    
C26   O12   A    
C70   N28   A    
C39   C98   S    
C7    N10   A    
C77   C84   A    
C94   N1    A    
C66   C73   A    
C48   O21   A    
C12   C39   A    
C27   C33   A    
C96   N14   A    
Cr5   O3    S    
C92   N7    A    
C84   H15   S    
Cr1   O18   S    
C11   C38   A    
C25   H29   S    
C30   C36   A    
C17   C43   A    
C75   C81   S    
C86   C93   A    
C95   N13   A    
C98   N26   A    
C61   C67   A    
C58   C65   A    
N7    N14   A    
C11   H21   S    
C2    N8    A    
Cr5   O9    S    
C37   O23   A    
C56   C63   A    
C67   C74   A    
C8    C34   A    
Cr2   O25   S    
C30   H33   S    
C94   N11   A    
N12   N29   A    
C15   O25   A    
C51   O10   A    
C33   H37   S    
C76   C92   S    
C14   C41   A    
C21   C41   A    
N1    N28   A    
C27   C46   A    
C8    H18   S    
C56   C89   A    
C21   C28   A    
C22   H26   S    
C98   N16   A    
C24   C44   A    
C1    O20   A    
Cr1   O11   S    
C47   O7    A    
C50   O6    A    
C16   C42   A    
C71   C77   A    
C78   C85   A    
C57   C64   A    
C7    C79   S    
C87   C100  S    
C29   H32   S    
C29   C35   A    
Cr3   O18   S    
C8    C14   A    
C73   H10   S    
C4    N22   T    
C13   C20   A    
Cr1   O1    S    
Cr2   O18   S    
C88   C101  S    
C18   H2    S    
C73   C79   A    
C48   O3    A    
C5    C93   S    
C19   C45   A    
C75   C82   A    
Cr4   O15   S    
C54   C61   A    
C19   H3    S    
Cr6   O23   S    
C65   C72   A    
Cr2   O6    S    
C46   C50   S    
N23   N30   A    
N9    N16   A    
C23   H27   S    
C100  N18   T    
C53   O17   A    
C15   C56   S    
Cr3   O7    S    
C31   C38   A    
C67   H5    S    
C24   C31   A    
Cr4   O8    S    
C2    C77   S    
C51   O15   A    
Cr4   O21   S    
Cr5   O19   S    
C50   O14   A    
C59   O22   A    
C3    N21   T    
C22   C42   A    
C7    N4    A    
C64   H34   S    
Cr6   O19   S    
C97   N15   A    
C37   O2    A    
C15   O1    A    
C12   C19   A    
C13   H24   S    
C71   H8    S    
C1    C55   S    
C62   C68   A    
C83   H14   S    
C31   H35   S    
C59   O4    A    
C32   H36   S    
C6    N3    A    
C57   C59   S    
C60   C66   A    
C49   O5    A    
N4    N27   A    
C9    C35   A    
C82   H13   S    
Cr4   O19   S    
C10   C36   A    
C52   O8    A    
C65   H38   S    
C1    O24   A    
C53   O9    A    
C79   C86   A    
C20   C46   A    
N8    N15   A    
C68   H6    S    
C35   C95   S    
