data_mof_unit_259.cif
_audit_creation_date              2012-12-10T20:34:53-0500
_audit_creation_method            fapswitch 2.2
_symmetry_space_group_name_H-M    P1
_symmetry_Int_Tables_number       1
_space_group_crystal_system       triclinic
_cell_length_a                    10.626921
_cell_length_b                    10.667354
_cell_length_c                    9.853727
_cell_angle_alpha                 90.008635
_cell_angle_beta                  90.180696
_cell_angle_gamma                 89.711711
_cell_volume                      1117.0099051

loop_
_atom_site_label
_atom_site_type_symbol
_atom_type_description
_atom_site_fract_x
_atom_site_fract_y
_atom_site_fract_z
_atom_type_partial_charge
C1    C     C_R   0.502742 0.259951 0.499952 0.916455
C2    C     C_3   0.878766 0.497656 0.499600 0.117555
C3    C     C_3   0.926861 0.619459 0.568022 -0.514958
C4    C     C_3   0.928221 0.493152 0.351285 -0.364427
C5    C     C_R   0.528578 0.063391 0.621828 -0.004644
C6    C     C_R   0.520373 0.128407 0.499567 -0.018267
C7    C     C_R   0.536318 0.064454 0.376321 -0.218763
C8    C     C_R   0.537806 0.935044 0.376358 -0.208469
C9    C     C_R   0.524323 0.870998 0.499697 -0.101760
C10   C     C_R   0.533737 0.935681 0.621835 -0.054007
C11   C     C_3   0.458761 0.926579 0.751560 0.328208
C12   C     C_R   0.257609 0.500147 0.499712 0.868016
C13   C     C_3   0.453562 0.069859 0.750868 -0.260064
C14   C     C_R   0.433173 0.586830 0.070939 0.240401
C15   C     C_R   0.574949 0.418250 0.072271 -0.149838
C16   C     C_R   0.574885 0.418208 0.928126 -0.167077
C17   C     C_R   0.433411 0.587013 0.928335 0.310672
C18   C     C_3   0.294928 0.607863 0.921318 -0.527599
C19   C     C_3   0.294346 0.606479 0.075196 -0.530018
C20   C     C_R   0.504160 0.739941 0.499962 0.869120
C21   C     C_R   0.742342 0.499008 0.499965 0.872846
C22   C     C_3   0.074007 0.382285 0.576528 -0.429131
C23   C     C_3   0.928831 0.381566 0.579578 0.348620
C24   C     C_3   0.071269 0.619581 0.569507 -0.412749
C25   C     C_3   0.070816 0.495488 0.351317 -0.409504
C26   C     C_3   0.121213 0.499419 0.499264 0.112294
H1    H     H_    0.110348 0.381933 0.682658 0.133409
H2    H     H_    0.892351 0.575187 0.292475 0.173317
H3    H     H_    0.106372 0.704476 0.516161 0.180277
H4    H     H_    0.891529 0.703178 0.511827 0.185021
H5    H     H_    0.539320 0.113151 0.279910 0.167342
H6    H     H_    0.540348 0.886283 0.279989 0.179379
H7    H     H_    0.366155 0.880744 0.734894 0.129496
H8    H     H_    0.507343 0.114347 0.834918 0.133128
H9    H     H_    0.633605 0.352076 0.126937 0.150333
H10   H     H_    0.110561 0.295918 0.526424 0.218551
H11   H     H_    0.633420 0.351936 0.873789 0.140185
H12   H     H_    0.270641 0.700964 0.877666 0.206854
H13   H     H_    0.243921 0.527343 0.875762 0.204707
H14   H     H_    0.268395 0.698327 0.120719 0.209589
H15   H     H_    0.244269 0.524094 0.117231 0.209093
H16   H     H_    0.897142 0.391751 0.687301 0.050193
H17   H     H_    0.105230 0.624200 0.676352 0.181488
H18   H     H_    0.891577 0.626680 0.674045 0.180371
H19   H     H_    0.102516 0.580009 0.294950 0.179938
H20   H     H_    0.106937 0.410850 0.297507 0.184141
H21   H     H_    0.895149 0.406811 0.298847 0.207352
N1    N     N_R   0.499150 0.499140 0.142800 -0.116518
N2    N     N_R   0.499150 0.499180 0.857150 -0.119931
O1    O     O_R   0.500020 0.316790 0.614690 -0.632550
O2    O     O_R   0.500000 0.316760 0.385350 -0.625541
O3    O     O_R   0.314800 0.500000 0.614670 -0.630902
O4    O     O_R   0.314790 0.499960 0.385330 -0.625349
O5    O     O_R   0.500000 0.683240 0.614650 -0.618404
O6    O     O_R   0.499980 0.683210 0.385310 -0.619343
O7    O     O_R   0.685210 0.500040 0.614670 -0.642383
O8    O     O_R   0.685200 0.500000 0.385330 -0.626673
Zn1   Zn    Zn3+2 0.500010 0.500020 0.653130 0.934701
Zn2   Zn    Zn3+2 0.499990 0.499980 0.346870 0.941643
O9    O     O_3   0.519558 0.877695 0.869943 -0.615492
C27   C     C_3   0.652287 0.870431 0.860609 0.132350
H22   H     H_    0.693187 0.963412 0.835549 0.127560
H23   H     H_    0.680487 0.800077 0.782910 0.159071
C28   C     C_3   0.706077 0.828745 0.996573 -0.857610
H24   H     H_    0.667599 0.735855 0.025060 0.253983
H25   H     H_    0.810118 0.821193 0.989724 0.205789
H26   H     H_    0.681611 0.898245 0.076223 0.250337
C29   C     C_2   0.322517 0.123143 0.733976 0.375850
H27   H     H_    0.290443 0.196395 0.802159 0.069316
O10   O     O_2   0.252169 0.085787 0.644524 -0.610064
O11   O     O_3   0.883147 0.269422 0.519695 -0.620119
C30   C     C_3   0.872407 0.173559 0.618093 0.088588
H28   H     H_    0.784259 0.187483 0.676922 0.131735
H29   H     H_    0.954054 0.171588 0.689472 0.149857
C31   C     C_3   0.867315 0.046990 0.547188 -0.794476
H30   H     H_    0.957710 0.028396 0.494436 0.266778
H31   H     H_    0.851015 0.971628 0.622776 0.188035
H32   H     H_    0.789938 0.046051 0.471484 0.262688

loop_
_geom_bond_atom_site_label_1
_geom_bond_atom_site_label_2
_ccdc_geom_bond_type
O6    Zn2   S    
C3    H4    S    
C18   H13   S    
C4    C25   S    
O4    Zn2   S    
C7    C8    A    
C23   H16   S    
C24   C26   S    
C30   C31   S    
O5    Zn1   S    
C5    C6    A    
O8    Zn2   S    
C5    C10   A    
C15   C16   A    
C18   C19   S    
C27   H23   S    
C24   H3    S    
C12   O3    A    
C8    C9    A    
C1    O1    A    
C5    C13   S    
C12   O4    A    
C16   H11   S    
C14   C17   A    
C3    C24   S    
C15   N1    A    
C20   O6    A    
C15   H9    S    
C4    H2    S    
C3    H18   S    
C7    H5    S    
C1    C6    S    
O1    Zn1   S    
C28   H26   S    
C23   O11   S    
C11   H7    S    
C16   N2    A    
C30   H29   S    
C10   C11   S    
C17   N2    A    
C29   H27   S    
C14   N1    A    
C25   C26   S    
N2    Zn1   S    
C12   C26   S    
O9    C27   S    
C8    H6    S    
C27   C28   S    
C2    C4    S    
C31   H30   S    
C21   O8    A    
C31   H31   S    
C9    C20   S    
C2    C21   S    
C17   C18   S    
C1    O2    A    
O3    Zn1   S    
C20   O5    A    
C22   H1    S    
O2    Zn2   S    
C11   O9    S    
C25   H19   S    
N1    Zn2   S    
C9    C10   A    
C14   C19   S    
C30   H28   S    
C21   O7    A    
C6    C7    A    
C22   H10   S    
C28   H24   S    
C2    C3    S    
C18   H12   S    
O11   C30   S    
C11   C13   S    
O7    Zn1   S    
C27   H22   S    
C31   H32   S    
C19   H14   S    
C13   H8    S    
C29   O10   D    
C22   C26   S    
C2    C23   S    
C24   H17   S    
C22   C23   S    
C25   H20   S    
C4    H21   S    
C19   H15   S    
C28   H25   S    
C13   C29   S    
