data_mof_unit_4439.cif
_audit_creation_date              2012-12-10T16:38:01-0500
_audit_creation_method            fapswitch 2.2
_symmetry_space_group_name_H-M    P1
_symmetry_Int_Tables_number       1
_space_group_crystal_system       triclinic
_cell_length_a                    28.00117
_cell_length_b                    18.575296
_cell_length_c                    16.913907
_cell_angle_alpha                 89.710263
_cell_angle_beta                  61.34984
_cell_angle_gamma                 90.028275
_cell_volume                      7720.16334568

loop_
_atom_site_label
_atom_site_type_symbol
_atom_type_description
_atom_site_fract_x
_atom_site_fract_y
_atom_site_fract_z
_atom_type_partial_charge
C1    C     C_R   0.702680 0.270110 0.676251 0.909484
C2    C     C_R   0.294793 0.724493 0.325800 0.918354
C3    C     C_R   0.297540 0.270841 0.323661 0.902056
C4    C     C_R   0.700108 0.736351 0.677124 0.915816
C5    C     C_R   0.201725 0.767377 0.676655 0.914023
C6    C     C_R   0.800492 0.236474 0.322500 0.906014
C7    C     C_R   0.800116 0.764484 0.322324 0.890669
C8    C     C_R   0.199602 0.236770 0.677369 0.905350
C9    C     C_R   0.884573 0.499713 0.550700 0.071549
C10   C     C_R   0.074514 0.499634 0.584729 0.076328
C11   C     C_R   0.424903 0.000296 0.416122 0.078441
C12   C     C_R   0.613662 0.000232 0.453524 0.071077
C13   C     C_R   0.069442 0.369714 0.600510 -0.242629
C14   C     C_R   0.877256 0.628572 0.571421 -0.238947
C15   C     C_R   0.877486 0.370586 0.570933 -0.213400
C16   C     C_R   0.069584 0.629471 0.599779 -0.206490
C17   C     C_R   0.620948 0.871539 0.432705 -0.236714
C18   C     C_R   0.429884 0.130063 0.400709 -0.234372
C19   C     C_R   0.429973 0.870587 0.400668 -0.207777
C20   C     C_R   0.620680 0.129132 0.433322 -0.207828
C21   C     C_R   0.731485 0.286681 0.945288 -0.008125
C22   C     C_R   0.266165 0.702099 0.057418 -0.004297
C23   C     C_R   0.272311 0.288167 0.051723 -0.006608
C24   C     C_R   0.731383 0.720848 0.940777 -0.009209
C25   C     C_R   0.205515 0.734733 0.967692 -0.003157
C26   C     C_R   0.791235 0.255469 0.036857 -0.010663
C27   C     C_R   0.791116 0.748154 0.033568 -0.011533
C28   C     C_R   0.213863 0.252482 0.959083 -0.006393
C29   C     C_R   0.771158 0.232117 0.912277 -0.035378
C30   C     C_R   0.211118 0.723845 0.108390 -0.015762
C31   C     C_R   0.236115 0.228953 0.081205 -0.025267
C32   C     C_R   0.773155 0.773266 0.906486 -0.035866
C33   C     C_R   0.254201 0.694920 0.922957 -0.025741
C34   C     C_R   0.748435 0.306253 0.074323 -0.024678
C35   C     C_R   0.747493 0.698259 0.070198 -0.025091
C36   C     C_R   0.255957 0.304805 0.921988 -0.029366
C37   C     C_R   0.805757 0.224177 0.951894 0.080290
C38   C     C_R   0.183344 0.748885 0.060945 0.082667
C39   C     C_R   0.201443 0.218876 0.042155 0.086648
C40   C     C_R   0.807536 0.778898 0.947136 0.083383
C41   C     C_R   0.288054 0.688364 0.964158 0.078113
C42   C     C_R   0.723139 0.326952 0.022114 0.078785
C43   C     C_R   0.722970 0.678351 0.016388 0.078419
C44   C     C_R   0.279890 0.328855 0.975229 0.067548
C45   C     C_R   0.662343 0.358457 0.931483 0.059603
C46   C     C_R   0.354132 0.671984 0.049717 0.056531
C47   C     C_R   0.334449 0.368656 0.073408 0.053269
C48   C     C_R   0.660591 0.652160 0.927026 0.047506
C49   C     C_R   0.134523 0.807859 0.958511 0.051241
C50   C     C_R   0.866199 0.190874 0.042564 0.054894
C51   C     C_R   0.866905 0.809403 0.040419 0.040045
C52   C     C_R   0.138273 0.186862 0.954923 0.058434
C53   C     C_R   0.631695 0.373501 0.886322 -0.186923
C54   C     C_R   0.384859 0.657394 0.095622 -0.175902
C55   C     C_R   0.364438 0.384700 0.118934 -0.194424
C56   C     C_R   0.623179 0.646091 0.891937 -0.171244
C57   C     C_R   0.116768 0.845139 0.901981 -0.171083
C58   C     C_R   0.891149 0.164940 0.093848 -0.192270
C59   C     C_R   0.891851 0.834131 0.091927 -0.148083
C60   C     C_R   0.111154 0.163655 0.905370 -0.183825
C61   C     C_R   0.650663 0.351292 0.798948 0.000975
C62   C     C_R   0.367754 0.685417 0.180652 0.002204
C63   C     C_R   0.347180 0.358391 0.204663 0.018582
C64   C     C_R   0.629946 0.689349 0.819541 -0.000143
C65   C     C_R   0.145193 0.836622 0.809098 -0.002183
C66   C     C_R   0.875464 0.193034 0.179619 0.011126
C67   C     C_R   0.875847 0.806324 0.177443 0.001589
C68   C     C_R   0.125307 0.194558 0.821330 0.005993
C69   C     C_R   0.685500 0.292613 0.768685 -0.108169
C70   C     C_R   0.313341 0.704411 0.232167 -0.106650
C71   C     C_R   0.315018 0.296316 0.231761 -0.108318
C72   C     C_R   0.677023 0.729274 0.775309 -0.104874
C73   C     C_R   0.179947 0.778793 0.773444 -0.109945
C74   C     C_R   0.827956 0.233195 0.222617 -0.108999
C75   C     C_R   0.826781 0.768389 0.222248 -0.148883
C76   C     C_R   0.173214 0.233895 0.777072 -0.110409
C77   C     C_R   0.709582 0.265581 0.821726 -0.032357
C78   C     C_R   0.277406 0.703478 0.193374 -0.033880
C79   C     C_R   0.293484 0.268038 0.176150 -0.027944
C80   C     C_R   0.707341 0.747937 0.821022 -0.025215
C81   C     C_R   0.199066 0.741086 0.827457 -0.029912
C82   C     C_R   0.803606 0.261295 0.171420 -0.028849
C83   C     C_R   0.801258 0.741978 0.171178 -0.002281
C84   C     C_R   0.199346 0.260588 0.826480 -0.022907
C85   C     C_R   0.696938 0.128298 0.514844 0.908208
C86   C     C_R   0.308810 0.870631 0.464400 0.910102
C87   C     C_R   0.308784 0.129456 0.464524 0.896189
C88   C     C_R   0.697017 0.871728 0.514626 0.913786
C89   C     C_R   0.191159 0.629312 0.535427 0.866300
C90   C     C_R   0.802595 0.371631 0.486474 0.898854
C91   C     C_R   0.802526 0.628317 0.486670 0.907374
C92   C     C_R   0.191147 0.370541 0.535469 0.886117
C93   C     C_R   0.701335 0.303535 0.899255 0.077589
C94   C     C_R   0.299347 0.693303 0.099972 0.071674
C95   C     C_R   0.299973 0.308210 0.100463 0.079850
C96   C     C_R   0.699179 0.708033 0.897195 0.071355
C97   C     C_R   0.179773 0.761482 0.917914 0.077494
C98   C     C_R   0.820284 0.235821 0.083802 0.072898
C99   C     C_R   0.819648 0.766544 0.082000 0.071703
C100  C     C_R   0.183841 0.233286 0.913346 0.069750
C101  C     C_R   0.658739 0.400600 0.002756 -0.197816
C102  C     C_R   0.376528 0.667160 0.955453 -0.178695
C103  C     C_R   0.335643 0.413621 0.005468 -0.165477
C104  C     C_R   0.662825 0.602386 0.987614 -0.186767
C105  C     C_R   0.110909 0.816925 0.052925 -0.183328
C106  C     C_R   0.887370 0.177558 0.949563 -0.167173
C107  C     C_R   0.889558 0.821892 0.946805 -0.166093
C108  C     C_R   0.119857 0.169334 0.046615 -0.174204
C109  C     C_R   0.691672 0.388835 0.041020 -0.161466
C110  C     C_R   0.344221 0.675085 0.913806 -0.156000
C111  C     C_R   0.307786 0.394897 0.959076 -0.130142
C112  C     C_R   0.693887 0.614221 0.030000 -0.151429
C113  C     C_R   0.135922 0.790847 0.101613 -0.142557
C114  C     C_R   0.857153 0.192245 0.905986 -0.144047
C115  C     C_R   0.860077 0.808147 0.901724 -0.146050
C116  C     C_R   0.151548 0.182795 0.087912 -0.152316
C117  C     C_R   0.742202 0.203549 0.800070 -0.192737
C118  C     C_R   0.220271 0.709134 0.244422 -0.185372
C119  C     C_R   0.265321 0.202127 0.193531 -0.191937
C120  C     C_R   0.744826 0.805230 0.793933 -0.197991
C121  C     C_R   0.236782 0.683843 0.795498 -0.192439
C122  C     C_R   0.763949 0.315421 0.204252 -0.198550
C123  C     C_R   0.759317 0.689977 0.204426 -0.211945
C124  C     C_R   0.240531 0.313689 0.792063 -0.186812
C125  C     C_R   0.772826 0.186931 0.843308 0.238267
C126  C     C_R   0.187316 0.718645 0.203699 0.239633
C127  C     C_R   0.237075 0.182297 0.147400 0.244372
C128  C     C_R   0.777312 0.818151 0.834803 0.233859
C129  C     C_R   0.265548 0.662601 0.840191 0.237588
C130  C     C_R   0.734179 0.334505 0.161249 0.223526
C131  C     C_R   0.731203 0.670581 0.158251 0.227163
C132  C     C_R   0.271081 0.331397 0.834348 0.252521
C133  C     C_R   0.072180 0.103034 0.936117 0.896457
C134  C     C_R   0.929797 0.895449 0.062028 0.939150
C135  C     C_R   0.928970 0.103766 0.062946 0.907486
C136  C     C_R   0.073771 0.899248 0.935266 0.903228
C137  C     C_R   0.577449 0.595892 0.930601 0.869636
C138  C     C_R   0.415520 0.424111 0.076058 0.937140
C139  C     C_R   0.428248 0.603315 0.062854 0.863984
C140  C     C_R   0.581846 0.414558 0.926928 0.929468
C141  C     C_R   0.575400 0.130753 0.418569 0.039284
C142  C     C_R   0.480089 0.869714 0.400840 0.058825
C143  C     C_R   0.479911 0.131399 0.401377 0.036352
C144  C     C_R   0.575649 0.869958 0.417963 0.026363
C145  C     C_R   0.018843 0.630242 0.601576 0.070763
C146  C     C_R   0.922420 0.369279 0.586711 0.053836
C147  C     C_R   0.922324 0.630038 0.586990 0.036660
C148  C     C_R   0.018699 0.368624 0.602067 0.040486
C149  C     C_R   0.555998 0.196295 0.401875 0.103917
C150  C     C_R   0.508245 0.804808 0.392373 0.101603
C151  C     C_R   0.508176 0.196705 0.393270 0.072530
C152  C     C_R   0.555920 0.804770 0.400853 0.046586
C153  C     C_R   0.990003 0.694962 0.612221 0.110704
C154  C     C_R   0.941433 0.304231 0.605091 0.085291
C155  C     C_R   0.941667 0.695001 0.605559 0.049233
C156  C     C_R   0.989516 0.303675 0.612549 0.050228
C157  C     C_R   0.501684 0.066023 0.412035 0.008588
C158  C     C_R   0.549178 0.934918 0.421028 0.013500
C159  C     C_R   0.549016 0.065845 0.421369 -0.005332
C160  C     C_R   0.501819 0.934907 0.411687 -0.013320
C161  C     C_R   0.949129 0.565083 0.583012 0.015630
C162  C     C_R   0.996904 0.433991 0.591367 0.006805
C163  C     C_R   0.996934 0.565073 0.591180 -0.009414
C164  C     C_R   0.949155 0.434173 0.583018 -0.012365
C165  C     C_R   0.927519 0.499662 0.572415 -0.003201
C166  C     C_R   0.022708 0.499556 0.589530 -0.005416
C167  C     C_R   0.476289 0.000417 0.412647 -0.005036
C168  C     C_R   0.570700 0.000327 0.431827 -0.001164
C169  C     C_R   0.862583 0.434124 0.541076 0.033169
C170  C     C_R   0.100617 0.565615 0.581209 0.037198
C171  C     C_R   0.100545 0.433747 0.581499 0.056933
C172  C     C_R   0.862519 0.565332 0.541255 0.059176
C173  C     C_R   0.399021 0.934392 0.418898 0.032385
C174  C     C_R   0.635826 0.065704 0.462742 0.040093
C175  C     C_R   0.635936 0.934703 0.462459 0.057841
C176  C     C_R   0.398986 0.066081 0.419002 0.057666
C177  C     C_R   0.825621 0.435627 0.504557 -0.099542
C178  C     C_R   0.156473 0.564819 0.560114 -0.108474
C179  C     C_R   0.156439 0.434779 0.560259 -0.116428
C180  C     C_R   0.825564 0.564154 0.504707 -0.106643
C181  C     C_R   0.343334 0.935148 0.439504 -0.116657
C182  C     C_R   0.673357 0.064267 0.498119 -0.103923
C183  C     C_R   0.673439 0.935870 0.497908 -0.105427
C184  C     C_R   0.343307 0.065138 0.439599 -0.119183
C185  C     C_R   0.809546 0.499980 0.484748 -0.305218
C186  C     C_R   0.182543 0.499852 0.552083 -0.281646
C187  C     C_R   0.317254 0.000097 0.447309 -0.274529
C188  C     C_R   0.689607 0.999982 0.517667 -0.304833
H1    H     H_    0.782855 0.500111 0.454793 0.197633
H2    H     H_    0.225289 0.499955 0.533976 0.202948
H3    H     H_    0.274569 0.000004 0.465043 0.200528
H4    H     H_    0.716722 0.999860 0.546816 0.197430
H5    H     H_    0.084121 0.320583 0.615040 0.176853
H6    H     H_    0.853702 0.676867 0.585037 0.184441
H7    H     H_    0.854418 0.321622 0.584079 0.211386
H8    H     H_    0.084084 0.678960 0.613789 0.196633
H9    H     H_    0.644708 0.823435 0.417996 0.185939
H10   H     H_    0.415519 0.178962 0.385098 0.170103
H11   H     H_    0.415786 0.821204 0.385767 0.203727
H12   H     H_    0.644173 0.177693 0.418902 0.204591
H13   H     H_    0.632715 0.445696 0.028647 0.173154
H14   H     H_    0.419781 0.660564 0.912133 0.169621
H15   H     H_    0.355942 0.465430 0.990652 0.174308
H16   H     H_    0.642412 0.552438 0.000471 0.159599
H17   H     H_    0.073120 0.844575 0.092364 0.184339
H18   H     H_    0.928219 0.158416 0.907588 0.163326
H19   H     H_    0.931030 0.839843 0.905883 0.164077
H20   H     H_    0.079810 0.148375 0.090468 0.171012
H21   H     H_    0.693852 0.431342 0.081927 0.199132
H22   H     H_    0.364443 0.674675 0.841052 0.188269
H23   H     H_    0.306095 0.434738 0.913956 0.217653
H24   H     H_    0.697125 0.570577 0.069299 0.191261
H25   H     H_    0.119081 0.808386 0.170391 0.194723
H26   H     H_    0.875898 0.182017 0.834561 0.171126
H27   H     H_    0.880295 0.816634 0.829729 0.176116
H28   H     H_    0.134708 0.168909 0.158416 0.180789
H29   H     H_    0.742814 0.165202 0.751858 0.205805
H30   H     H_    0.199801 0.702052 0.316653 0.204742
H31   H     H_    0.266477 0.163815 0.240860 0.194827
H32   H     H_    0.747296 0.843338 0.743549 0.205735
H33   H     H_    0.244058 0.653358 0.736745 0.203257
H34   H     H_    0.755666 0.345602 0.263698 0.210940
H35   H     H_    0.748277 0.660534 0.265744 0.214054
H36   H     H_    0.249930 0.343913 0.731811 0.204090
O1    O     O_R   0.746490 0.236330 0.638080 -0.653921
O2    O     O_R   0.253510 0.763670 0.361920 -0.636569
O3    O     O_R   0.253510 0.236330 0.361920 -0.634137
O4    O     O_R   0.746490 0.763670 0.638080 -0.658864
O5    O     O_R   0.246490 0.736330 0.638080 -0.639084
O6    O     O_R   0.753510 0.263670 0.361920 -0.651181
O7    O     O_R   0.753510 0.736330 0.361920 -0.645065
O8    O     O_R   0.246490 0.263670 0.638080 -0.632005
O9    O     O_R   0.674170 0.186160 0.516270 -0.637488
O10   O     O_R   0.325830 0.813840 0.483730 -0.628725
O11   O     O_R   0.325830 0.186160 0.483730 -0.630052
O12   O     O_R   0.674170 0.813840 0.516270 -0.646339
O13   O     O_R   0.174170 0.686160 0.516270 -0.640861
O14   O     O_R   0.825830 0.313840 0.483730 -0.644624
O15   O     O_R   0.825830 0.686160 0.483730 -0.646683
O16   O     O_R   0.174170 0.313840 0.516270 -0.636645
O17   O     O_R   0.739960 0.127620 0.525000 -0.623712
O18   O     O_R   0.260040 0.872380 0.475000 -0.617603
O19   O     O_R   0.260040 0.127620 0.475000 -0.624771
O20   O     O_R   0.739960 0.872380 0.525000 -0.624121
O21   O     O_R   0.239960 0.627620 0.525000 -0.631036
O22   O     O_R   0.760040 0.372380 0.475000 -0.623477
O23   O     O_R   0.760040 0.627620 0.475000 -0.623969
O24   O     O_R   0.239960 0.372380 0.525000 -0.623285
O25   O     O_R   0.680700 0.294870 0.629350 -0.593028
O26   O     O_R   0.319300 0.705130 0.370650 -0.611940
O27   O     O_R   0.319300 0.294870 0.370650 -0.609497
O28   O     O_R   0.680700 0.705130 0.629350 -0.604241
O29   O     O_R   0.180700 0.794870 0.629350 -0.609330
O30   O     O_R   0.819300 0.205130 0.370650 -0.601969
O31   O     O_R   0.819300 0.794870 0.370650 -0.632476
O32   O     O_R   0.180700 0.205130 0.629350 -0.611400
O33   O     O_R   0.062020 0.072840 0.007170 -0.621718
O34   O     O_R   0.937980 0.927160 0.992830 -0.617781
O35   O     O_R   0.937980 0.072840 0.992830 -0.608298
O36   O     O_R   0.062020 0.927160 0.007170 -0.621398
O37   O     O_R   0.562020 0.572840 0.007170 -0.629694
O38   O     O_R   0.437980 0.427160 0.992830 -0.593913
O39   O     O_R   0.437980 0.572840 0.992830 -0.644435
O40   O     O_R   0.562020 0.427160 0.007170 -0.619907
O41   O     O_R   0.947860 0.073950 0.109290 -0.634291
O42   O     O_R   0.052140 0.926050 0.890710 -0.637974
O43   O     O_R   0.052140 0.073950 0.890710 -0.635719
O44   O     O_R   0.947860 0.926050 0.109290 -0.598858
O45   O     O_R   0.447860 0.573950 0.109290 -0.638059
O46   O     O_R   0.552140 0.426050 0.890710 -0.613782
O47   O     O_R   0.552140 0.573950 0.890710 -0.646537
O48   O     O_R   0.447860 0.426050 0.109290 -0.613382
Zn1   Zn    Zn3+2 0.792340 0.208750 0.507670 0.977574
Zn2   Zn    Zn3+2 0.207660 0.791250 0.492330 0.985636
Zn3   Zn    Zn3+2 0.207660 0.208750 0.492330 0.967792
Zn4   Zn    Zn3+2 0.792340 0.791250 0.507670 0.947860
Zn5   Zn    Zn3+2 0.292340 0.708750 0.507670 0.986523
Zn6   Zn    Zn3+2 0.707660 0.291250 0.492330 0.997957
Zn7   Zn    Zn3+2 0.707660 0.708750 0.492330 0.964893
Zn8   Zn    Zn3+2 0.292340 0.291250 0.507670 0.989319
Zn9   Zn    Zn3+2 0.505960 0.500000 0.080520 0.953024
Zn10  Zn    Zn3+2 0.494040 0.500000 0.919480 0.955785
Zn11  Zn    Zn3+2 0.005960 0.000000 0.080520 0.944876
Zn12  Zn    Zn3+2 0.994040 0.000000 0.919480 0.945279
N1    N     N_3   0.008323 0.236169 0.628780 -0.474284
H37   H     H_    0.011097 0.240087 0.688095 0.182616
H38   H     H_    0.046852 0.225475 0.574922 0.195307
N2    N     N_3   0.913993 0.762107 0.615470 -0.455441
H39   H     H_    0.874360 0.757265 0.668820 0.195436
H40   H     H_    0.912516 0.773288 0.556045 0.202099
N3    N     N_3   0.912783 0.238139 0.613274 -0.456364
H41   H     H_    0.901313 0.215864 0.676757 0.214491
H42   H     H_    0.939340 0.202418 0.564406 0.212471
N4    N     N_3   0.010483 0.761152 0.627959 -0.468390
H43   H     H_    0.980744 0.782779 0.688656 0.193633
H44   H     H_    0.017136 0.797234 0.575997 0.221505
N5    N     N_3   0.582466 0.737421 0.394693 -0.429767
H45   H     H_    0.622490 0.741372 0.342537 0.225701
H46   H     H_    0.582874 0.727828 0.455329 0.195252
N6    N     N_3   0.488633 0.263889 0.377640 -0.458438
H47   H     H_    0.486801 0.260524 0.317468 0.190909
H48   H     H_    0.449695 0.273496 0.430978 0.203452
N7    N     N_3   0.487587 0.738436 0.377437 -0.461375
H49   H     H_    0.479981 0.703176 0.430608 0.216336
H50   H     H_    0.517617 0.715764 0.317783 0.225252
N8    N     N_3   0.584685 0.262077 0.396205 -0.434430
H51   H     H_    0.563107 0.307694 0.395695 0.255159
H52   H     H_    0.620592 0.261064 0.334731 0.219270
N9    N     N_3   0.639830 0.393715 0.737543 -0.416471
H53   H     H_    0.601719 0.380472 0.744528 0.234489
H54   H     H_    0.642843 0.448759 0.747362 0.181866
N10   N     N_3   0.405582 0.695809 0.214696 -0.428129
H55   H     H_    0.411057 0.647244 0.240661 0.226410
H56   H     H_    0.442920 0.714027 0.162834 0.190426
N11   N     N_3   0.357987 0.398886 0.267037 -0.412386
H57   H     H_    0.356217 0.454244 0.256968 0.180512
H58   H     H_    0.396047 0.384871 0.259635 0.223157
N12   N     N_3   0.590488 0.692865 0.788053 -0.429601
H59   H     H_    0.589872 0.644299 0.757654 0.225782
H60   H     H_    0.552113 0.704067 0.842083 0.192230
N13   N     N_3   0.144121 0.891144 0.748761 -0.420496
H61   H     H_    0.108315 0.887278 0.744119 0.223543
H62   H     H_    0.149417 0.942437 0.768695 0.200888
N14   N     N_3   0.908223 0.183371 0.223410 -0.423791
H63   H     H_    0.903427 0.131105 0.249306 0.227509
H64   H     H_    0.949033 0.194422 0.178055 0.185160
N15   N     N_3   0.911256 0.815504 0.216401 -0.435914
H65   H     H_    0.914696 0.766950 0.244821 0.205849
H66   H     H_    0.896641 0.856438 0.264336 0.230443
N16   N     N_3   0.090961 0.187943 0.780002 -0.446576
H67   H     H_    0.094541 0.136466 0.753159 0.228286
H68   H     H_    0.050585 0.198874 0.827307 0.177657
Br1   Br    Br    0.807106 0.094251 0.814563 -0.469279
Br2   Br    Br    0.110482 0.705241 0.282779 -0.546881
Br3   Br    Br    0.210605 0.084552 0.166720 -0.533977
Br4   Br    Br    0.818594 0.906037 0.796957 -0.471769
Br5   Br    Br    0.310648 0.578703 0.793442 -0.528021
Br6   Br    Br    0.669977 0.389359 0.238785 -0.553034
Br7   Br    Br    0.665924 0.615425 0.230961 -0.539861
Br8   Br    Br    0.339969 0.376615 0.755590 -0.476580

loop_
_geom_bond_atom_site_label_1
_geom_bond_atom_site_label_2
_ccdc_geom_bond_type
C119  H31   S    
C85   C182  S    
C35   C131  A    
O12   Zn7   S    
N5    H46   S    
C9    C169  A    
N3    H41   S    
C34   C42   A    
C116  H28   S    
C181  C187  A    
N7    H50   S    
C138  O48   A    
C139  O45   A    
C27   C99   A    
C170  C178  A    
C85   O9    A    
C104  H16   S    
C175  C183  A    
C42   C109  A    
C65   N13   S    
C24   C96   A    
C1    O1    A    
C87   O11   A    
C30   C38   A    
O3    Zn3   S    
O27   Zn8   S    
O13   Zn2   S    
N14   H63   S    
C136  O36   A    
C117  H29   S    
C147  C155  A    
C107  H19   S    
C7    O31   A    
C143  C151  A    
C14   H6    S    
C90   C177  S    
C11   C167  A    
O40   Zn9   S    
C82   C98   A    
O45   Zn9   S    
C109  H21   S    
C73   C81   A    
C161  C163  A    
C67   N15   S    
C11   C173  A    
N16   H67   S    
C90   O14   A    
C84   C100  A    
O26   Zn5   S    
C4    O28   A    
C57   C65   A    
O47   Zn10  S    
C37   C114  A    
C27   C35   A    
C10   C171  A    
C21   C29   A    
C8    O32   A    
C81   C121  A    
C23   C31   A    
C186  H2    S    
C24   C32   A    
N7    H49   S    
C146  C154  A    
C134  O34   A    
N8    H51   S    
C115  H27   S    
C152  N5    S    
O16   Zn3   S    
C63   C71   A    
C36   C44   A    
N6    H47   S    
C2    O2    A    
C12   C174  A    
O42   Zn12  S    
C176  C184  A    
C164  C165  A    
C48   C96   A    
O1    Zn1   S    
C106  H18   S    
O7    Zn7   S    
O31   Zn4   S    
C148  C162  A    
O8    Zn8   S    
N1    H38   S    
C101  H13   S    
C183  C188  A    
C108  C116  A    
C21   C93   A    
O43   Zn12  S    
C78   C94   A    
O5    Zn5   S    
C89   O21   A    
C63   N11   S    
C49   C97   A    
C21   C42   A    
C22   C41   A    
C51   C107  A    
N13   H61   S    
C122  H34   S    
C24   C43   A    
C127  Br3   S    
C82   C122  A    
C161  C165  A    
C17   C175  A    
N2    H40   S    
C18   C176  A    
C139  O39   A    
C150  N7    S    
C114  H26   S    
C69   C77   A    
C31   C127  A    
C108  H20   S    
C45   C93   A    
C174  C182  A    
C71   C79   A    
C137  O47   A    
C179  C186  A    
C62   C70   A    
C11   C176  A    
C126  Br2   S    
C17   C144  A    
C105  C113  A    
C18   C143  A    
C78   C118  A    
O28   Zn7   S    
C3    O27   A    
O29   Zn2   S    
C149  C151  A    
C1    O25   A    
C62   N10   S    
C66   C74   A    
C154  N3    S    
C8    C76   S    
C49   C57   A    
N10   H55   S    
C124  C132  A    
C136  O42   A    
C5    O29   A    
C20   H12   S    
N12   H60   S    
C52   C60   A    
C59   C67   A    
C53   C61   A    
C141  C159  A    
C20   C174  A    
C124  H36   S    
N10   H56   S    
C55   C63   A    
C86   C181  S    
C56   C64   A    
O14   Zn1   S    
C35   C43   A    
C45   C53   A    
C22   C94   A    
C171  C179  A    
C169  C177  A    
C156  N1    S    
C133  O43   A    
N9    H54   S    
C50   C98   A    
O44   Zn11  S    
N15   H66   S    
C145  C163  A    
C146  C164  A    
C14   C147  A    
C52   C100  A    
C16   C145  A    
N3    H42   S    
C178  C186  A    
C64   N12   S    
C18   H10   S    
C25   C38   A    
C54   C139  S    
C46   C94   A    
C27   C40   A    
C10   C166  A    
C91   C180  S    
C182  C188  A    
C89   C178  S    
O46   Zn10  S    
C17   H9    S    
C60   C68   A    
C92   O24   A    
O37   Zn9   S    
C25   C97   A    
C6    O6    A    
C67   C75   A    
O19   Zn3   S    
C92   O16   A    
C22   C30   A    
C20   C141  A    
C15   C146  A    
C185  H1    S    
C153  N4    S    
C68   C76   A    
O2    Zn2   S    
C59   C134  S    
C135  O35   A    
C184  C187  A    
C188  H4    S    
C32   C128  A    
C144  C152  A    
C56   C137  S    
C5    O5    A    
O23   Zn7   S    
C130  Br6   S    
C13   C171  A    
N14   H64   S    
C140  O40   A    
O20   Zn4   S    
C23   C95   A    
C83   C99   A    
O21   Zn5   S    
C155  N2    S    
C117  C125  A    
C87   O19   A    
C25   C33   A    
C137  O37   A    
C76   C84   A    
C80   C120  A    
C158  C168  A    
C7    O7    A    
O9    Zn6   S    
C86   O10   A    
O39   Zn10  S    
N16   H68   S    
O41   Zn11  S    
C47   C55   A    
O35   Zn12  S    
C29   C125  A    
N4    H43   S    
C40   C115  A    
C101  C109  A    
C177  C185  A    
C103  C111  A    
O17   Zn1   S    
C162  C166  A    
C138  O38   A    
C79   C119  A    
C118  H30   S    
N8    H52   S    
C153  C155  A    
C128  Br4   S    
C154  C156  A    
C15   H7    S    
C172  C180  A    
C133  O33   A    
C173  C181  A    
N11   H57   S    
C157  C159  A    
C13   H5    S    
C158  C160  A    
C110  H22   S    
C74   C82   A    
O30   Zn1   S    
N6    H48   S    
C6    C74   S    
C134  O44   A    
C91   O23   A    
C47   C103  A    
C129  Br5   S    
C50   C58   A    
C89   O13   A    
C163  C166  A    
C147  C161  A    
C38   C113  A    
C49   C105  A    
C54   C62   A    
C28   C39   A    
C1    C69   S    
C23   C44   A    
C3    C71   S    
C19   C173  A    
C79   C95   A    
N1    H37   S    
C16   H8    S    
C92   C179  S    
C120  H32   S    
C46   C54   A    
C85   O17   A    
C45   C101  A    
C149  N8    S    
O6    Zn6   S    
C19   C142  A    
C58   C135  S    
C157  C167  A    
C102  C110  A    
C68   N16   S    
C3    O3    A    
C4    C72   S    
O36   Zn11  S    
C33   C129  A    
O48   Zn9   S    
C36   C132  A    
C123  C131  A    
C19   H11   S    
C151  N6    S    
C121  C129  A    
C88   O20   A    
C120  C128  A    
C26   C37   A    
C105  H17   S    
C10   C170  A    
C33   C41   A    
C142  C150  A    
C9    C165  A    
C102  H14   S    
N15   H65   S    
C162  C164  A    
C75   C83   A    
O38   Zn10  S    
C123  H35   S    
C90   O22   A    
C77   C93   A    
C140  O46   A    
C4    O4    A    
C111  H23   S    
C44   C111  A    
C16   C170  A    
C28   C36   A    
C72   C80   A    
C39   C116  A    
C29   C37   A    
C50   C106  A    
C121  H33   S    
C9    C172  A    
C148  C156  A    
C83   C123  A    
C2    C70   S    
C60   C133  S    
C30   C126  A    
C70   C78   A    
C53   C140  S    
N5    H45   S    
C113  H25   S    
C141  C149  A    
N9    H53   S    
O25   Zn6   S    
C46   C102  A    
C15   C169  A    
C55   C138  S    
C106  C114  A    
O11   Zn8   S    
C112  H24   S    
C125  Br1   S    
C77   C117  A    
C2    O26   A    
C48   C104  A    
C65   C73   A    
C159  C168  A    
C6    O30   A    
C160  C167  A    
O22   Zn6   S    
C104  C112  A    
C58   C66   A    
N13   H62   S    
O32   Zn3   S    
C80   C96   A    
C187  H3    S    
C86   O18   A    
C145  C153  A    
C28   C100  A    
C32   C40   A    
C52   C108  A    
O10   Zn5   S    
O15   Zn4   S    
C5    C73   S    
C26   C34   A    
C143  C157  A    
C51   C99   A    
C88   O12   A    
N11   H58   S    
O24   Zn8   S    
O18   Zn2   S    
C14   C172  A    
C87   C184  S    
C88   C183  S    
C7    C75   S    
N12   H59   S    
C61   N9    S    
C57   C136  S    
C107  C115  A    
C26   C98   A    
C12   C175  A    
C66   N14   S    
C41   C110  A    
C150  C152  A    
C51   C59   A    
C43   C112  A    
C144  C158  A    
O33   Zn11  S    
C61   C69   A    
C48   C56   A    
C142  C160  A    
C12   C168  A    
O34   Zn12  S    
C84   C124  A    
C132  Br8   S    
N2    H39   S    
N4    H44   S    
C8    O8    A    
C81   C97   A    
C31   C39   A    
C64   C72   A    
C131  Br7   S    
O4    Zn4   S    
C103  H15   S    
C180  C185  A    
C34   C130  A    
C91   O15   A    
C135  O41   A    
C47   C95   A    
C118  C126  A    
C13   C148  A    
C122  C130  A    
C119  C127  A    
