data_mof_unit_3454.cif
_audit_creation_date              2012-12-10T17:55:51-0500
_audit_creation_method            fapswitch 2.2
_symmetry_space_group_name_H-M    P1
_symmetry_Int_Tables_number       1
_space_group_crystal_system       triclinic
_cell_length_a                    11.103343
_cell_length_b                    10.827648
_cell_length_c                    9.577369
_cell_angle_alpha                 89.480496
_cell_angle_beta                  101.75934
_cell_angle_gamma                 91.692529
_cell_volume                      1126.75791023

loop_
_atom_site_label
_atom_site_type_symbol
_atom_type_description
_atom_site_fract_x
_atom_site_fract_y
_atom_site_fract_z
_atom_type_partial_charge
C1    C     C_R   0.499915 0.262253 0.500306 0.816426
C2    C     C_R   0.500149 0.737754 0.499713 0.796687
C3    C     C_R   0.263503 0.504424 0.443383 0.891092
C4    C     C_R   0.735837 0.500037 0.557137 0.930829
C5    C     C_R   0.414618 0.432101 0.056803 0.001803
C6    C     C_R   0.585422 0.567855 0.943243 0.004589
C7    C     C_R   0.413592 0.430744 0.908245 0.098467
C8    C     C_R   0.586667 0.568843 0.091844 0.088876
C9    C     C_2   0.129178 0.500571 0.416598 -0.337114
C10   C     C_2   0.867632 0.518131 0.587620 -0.312268
C11   C     C_2   0.068092 0.517172 0.523483 -0.049085
C12   C     C_2   0.941468 0.464512 0.511747 -0.054350
C13   C     C_R   0.507707 0.065196 0.375436 -0.126707
C14   C     C_R   0.492616 0.934822 0.624665 -0.130204
C15   C     C_R   0.507713 0.937420 0.375027 -0.177795
C16   C     C_R   0.492605 0.062598 0.625071 -0.177583
C17   C     C_R   0.500129 0.871700 0.499615 -0.018429
C18   C     C_R   0.500117 0.128314 0.500460 -0.014323
Cu1   Cu    Cu3+1 0.500000 0.500020 0.640660 0.967422
Cu2   Cu    Cu3+1 0.500000 0.499980 0.359340 0.965998
H1    H     H_    0.347894 0.377187 0.100327 0.174152
H2    H     H_    0.652240 0.622765 0.899856 0.171665
H3    H     H_    0.900867 0.592091 0.662457 0.114983
H4    H     H_    0.081484 0.467823 0.312718 0.137501
H5    H     H_    0.513867 0.114258 0.277955 0.163537
H6    H     H_    0.486461 0.885761 0.722149 0.166664
H7    H     H_    0.513910 0.890421 0.277472 0.152305
H8    H     H_    0.486402 0.109597 0.722624 0.153325
N1    N     N_R   0.500030 0.500030 0.852080 -0.224250
N2    N     N_R   0.499970 0.499970 0.147920 -0.227338
O1    O     O_R   0.499990 0.319660 0.618740 -0.622199
O2    O     O_R   0.500010 0.680340 0.381260 -0.624111
O3    O     O_R   0.499990 0.319630 0.381170 -0.574038
O4    O     O_R   0.500010 0.680370 0.618830 -0.573933
O5    O     O_R   0.320690 0.500020 0.575130 -0.583786
O6    O     O_R   0.679310 0.499980 0.424870 -0.577287
O7    O     O_R   0.320680 0.499990 0.337560 -0.585571
O8    O     O_R   0.679320 0.500010 0.662440 -0.587396
C19   C     C_2   0.902578 0.349651 0.425714 0.442211
H9    H     H_    0.957737 0.315526 0.354012 0.062774
O9    O     O_2   0.812115 0.287479 0.439524 -0.539111
C20   C     C_2   0.124826 0.588758 0.654701 0.461504
H10   H     H_    0.107588 0.559810 0.757812 0.084228
O10   O     O_2   0.186840 0.682761 0.647141 -0.526858
C21   C     C_2   0.317778 0.350934 0.818594 0.317152
H11   H     H_    0.326391 0.318927 0.715527 0.135741
O11   O     O_2   0.225480 0.317426 0.861068 -0.577074
C22   C     C_2   0.683348 0.647336 0.181844 0.354709
H12   H     H_    0.673596 0.681758 0.283565 0.129416
O12   O     O_2   0.777563 0.676889 0.141169 -0.563245

loop_
_geom_bond_atom_site_label_1
_geom_bond_atom_site_label_2
_ccdc_geom_bond_type
C16   H8    S    
C11   C12   S    
C8    C22   S    
C9    H4    S    
C7    N1    A    
Cu1   O8    S    
C10   H3    S    
Cu1   O1    S    
C15   H7    S    
Cu1   Cu2   S    
C3    O5    A    
C8    N2    A    
C2    O4    A    
C12   C19   S    
C22   O12   D    
C1    O3    A    
C19   O9    D    
Cu1   N1    S    
Cu2   N2    S    
C21   H11   S    
C14   H6    S    
C2    C17   S    
Cu2   O7    S    
C9    C11   D    
C14   C17   A    
C13   H5    S    
C1    C18   S    
C20   O10   D    
C13   C18   A    
C3    C9    S    
Cu2   O3    S    
C10   C12   D    
C16   C18   A    
C22   H12   S    
C4    O8    A    
Cu1   O5    S    
C5    C7    A    
C13   C15   A    
C14   C16   A    
C20   H10   S    
C4    C10   S    
C6    H2    S    
C7    C21   S    
C1    O1    A    
C6    N1    A    
C5    H1    S    
C4    O6    A    
C3    O7    A    
C11   C20   S    
C2    O2    A    
C5    N2    A    
Cu2   O2    S    
C21   O11   D    
C19   H9    S    
C15   C17   A    
C6    C8    A    
Cu1   O4    S    
Cu2   O6    S    
