data_mof_unit_1173.cif
_audit_creation_date              2012-12-10T20:25:47-0500
_audit_creation_method            fapswitch 2.2
_symmetry_space_group_name_H-M    P1
_symmetry_Int_Tables_number       1
_space_group_crystal_system       triclinic
_cell_length_a                    8.578668
_cell_length_b                    10.753956
_cell_length_c                    9.988651
_cell_angle_alpha                 88.294763
_cell_angle_beta                  97.785029
_cell_angle_gamma                 91.029534
_cell_volume                      912.511271745

loop_
_atom_site_label
_atom_site_type_symbol
_atom_type_description
_atom_site_fract_x
_atom_site_fract_y
_atom_site_fract_z
_atom_type_partial_charge
C1    C     C_R   0.504321 0.260574 0.502386 0.871692
C2    C     C_R   0.598999 0.941489 0.412092 -0.038870
C3    C     C_R   0.512809 0.871353 0.499124 -0.144037
C4    C     C_R   0.437235 0.930120 0.594484 -0.009489
C5    C     C_3   0.471005 0.920616 0.747157 0.498731
C6    C     C_3   0.465737 0.061407 0.746095 -0.611306
C7    C     C_R   0.368130 0.465552 0.055703 0.131612
C8    C     C_R   0.623139 0.546930 0.085894 -0.155889
C9    C     C_R   0.624736 0.545963 0.943643 0.000917
C10   C     C_R   0.367633 0.466551 0.914205 0.096377
C11   C     C_3   0.284858 0.343608 0.903205 0.105411
C12   C     C_R   0.202000 0.497484 0.465725 0.953715
C13   C     C_3   0.278358 0.345074 0.057065 0.760266
C14   C     C_R   0.506096 0.739197 0.499339 0.854922
C15   C     C_R   0.796799 0.513014 0.533000 0.853046
C16   C     C_2   0.037306 0.482994 0.454470 -0.405203
C17   C     C_2   0.959230 0.541939 0.540037 -0.099454
C18   C     C_R   0.434115 0.058572 0.595669 -0.016164
C19   C     C_R   0.512997 0.128408 0.506299 -0.058041
C20   C     C_R   0.601163 0.070390 0.419251 -0.262504
H1    H     H_    0.984725 0.407517 0.393334 0.147411
H2    H     H_    0.366893 0.276425 0.870087 0.057894
H3    H     H_    0.676474 0.126411 0.362111 0.157237
H4    H     H_    0.363161 0.095660 0.787640 0.157699
H5    H     H_    0.577720 0.110388 0.782321 0.215597
H6    H     H_    0.724092 0.582396 0.151371 0.170117
N1    N     N_R   0.498950 0.499140 0.142680 -0.111309
N2    N     N_R   0.498950 0.499180 0.857030 -0.151932
O1    O     O_R   0.500020 0.316790 0.614690 -0.640605
O2    O     O_R   0.500000 0.316760 0.385350 -0.552738
O3    O     O_R   0.271760 0.500010 0.587850 -0.581315
O4    O     O_R   0.271740 0.499970 0.358500 -0.579678
O5    O     O_R   0.500000 0.683240 0.614650 -0.598146
O6    O     O_R   0.499980 0.683210 0.385310 -0.610031
O7    O     O_R   0.728260 0.500030 0.641500 -0.611366
O8    O     O_R   0.728240 0.499990 0.412150 -0.635832
Zn1   Zn    Zn3+2 0.500010 0.500020 0.653130 0.980695
Zn2   Zn    Zn3+2 0.499990 0.499980 0.346870 1.003744
C21   C     C_1   0.766708 0.590351 0.896416 0.328295
N3    N     N_1   0.883819 0.625799 0.862816 -0.162379
O9    O     O_3   0.134356 0.352500 0.824607 -0.547629
C22   C     C_3   0.102866 0.242843 0.750131 0.136610
H7    H     H_    0.126679 0.158532 0.815291 0.090514
H8    H     H_    0.175163 0.242390 0.665674 0.156825
C23   C     C_3   0.930649 0.232681 0.691963 -0.814414
H9    H     H_    0.902765 0.300572 0.608602 0.238398
H10   H     H_    0.908071 0.139978 0.647571 0.188108
H11   H     H_    0.853807 0.245551 0.771314 0.261205
O10   O     O_3   0.128726 0.370592 0.094953 -0.588860
C24   C     C_3   0.039600 0.261476 0.112741 0.142020
H12   H     H_    0.085618 0.213652 0.209964 0.147033
H13   H     H_    0.038466 0.197455 0.027711 0.129086
C25   C     C_3   0.869788 0.296156 0.117434 -0.826143
H14   H     H_    0.863435 0.377071 0.182191 0.269173
H15   H     H_    0.811117 0.319664 0.014004 0.244445
H16   H     H_    0.807386 0.216602 0.159828 0.204462
O11   O     O_3   0.369646 0.257531 0.143135 -0.623748
C26   C     C_3   0.356661 0.133306 0.099270 0.031354
H17   H     H_    0.266959 0.117464 0.011251 0.087214
H18   H     H_    0.323526 0.072717 0.183178 0.187608
C27   C     C_3   0.514326 0.091244 0.065127 -0.829765
H19   H     H_    0.600378 0.081948 0.155794 0.252088
H20   H     H_    0.501691 0.998496 0.019552 0.255688
H21   H     H_    0.562522 0.160364 0.996901 0.236040
C28   C     C_1   0.013293 0.661612 0.591157 0.212422
N4    N     N_1   0.056023 0.758945 0.627256 -0.233530
C29   C     C_1   0.697040 0.884027 0.325233 0.170130
N5    N     N_1   0.775684 0.838225 0.255695 -0.213995
C30   C     C_1   0.341898 0.863435 0.811526 0.192573
N6    N     N_1   0.243815 0.818732 0.866731 -0.201928
O12   O     O_3   0.614657 0.864869 0.806063 -0.607390
C31   C     C_3   0.753615 0.911016 0.759765 0.130987
H22   H     H_    0.737035 0.989259 0.685643 0.136878
H23   H     H_    0.804602 0.834776 0.708801 0.177644
C32   C     C_3   0.869896 0.950092 0.880452 -0.837407
H24   H     H_    0.887158 0.872838 0.956982 0.282921
H25   H     H_    0.984814 0.974332 0.846952 0.215128
H26   H     H_    0.825237 0.032197 0.927486 0.239168

loop_
_geom_bond_atom_site_label_1
_geom_bond_atom_site_label_2
_ccdc_geom_bond_type
C8    C9    A    
C7    C10   A    
C16   H1    S    
C8    H6    S    
O9    C22   S    
C19   C20   A    
C14   O5    A    
C23   H9    S    
O7    Zn1   S    
C5    C6    S    
C23   H11   S    
C6    H5    S    
C13   O11   S    
N1    Zn2   S    
C26   H18   S    
C9    C21   S    
C7    N1    A    
O2    Zn2   S    
C18   C19   A    
C27   H20   S    
C5    C30   S    
C12   C16   S    
C16   C17   D    
C24   H13   S    
O4    Zn2   S    
C4    C18   A    
C26   C27   S    
C23   H10   S    
C12   O4    A    
C30   N6    T    
C22   H8    S    
C31   C32   S    
C15   O7    A    
C25   H15   S    
C6    C18   S    
C1    C19   S    
C24   C25   S    
C2    C20   A    
C29   N5    T    
C31   H23   S    
C2    C29   S    
C21   N3    T    
C4    C5    S    
C26   H17   S    
C25   H14   S    
O5    Zn1   S    
O3    Zn1   S    
C22   C23   S    
C27   H21   S    
C32   H24   S    
C20   H3    S    
C6    H4    S    
C1    O1    A    
C24   H12   S    
C32   H25   S    
C3    C14   S    
C13   O10   S    
C28   N4    T    
C12   O3    A    
C22   H7    S    
C3    C4    A    
C15   O8    A    
C25   H16   S    
C10   N2    A    
C15   C17   S    
O6    Zn2   S    
C31   H22   S    
C14   O6    A    
C11   H2    S    
C17   C28   S    
O8    Zn2   S    
C2    C3    A    
O12   C31   S    
C5    O12   S    
C11   C13   S    
O11   C26   S    
N2    Zn1   S    
C1    O2    A    
C11   O9    S    
C27   H19   S    
C32   H26   S    
C10   C11   S    
C7    C13   S    
O10   C24   S    
O1    Zn1   S    
C8    N1    A    
C9    N2    A    
