data_mof_unit_1071.cif
_audit_creation_date              2012-10-26T19:59:44-0400
_audit_creation_method            fapswitch 2.2
_symmetry_space_group_name_H-M    P1
_symmetry_Int_Tables_number       1
_space_group_crystal_system       triclinic
_cell_length_a                    10.744511
_cell_length_b                    8.685121
_cell_length_c                    7.450965
_cell_angle_alpha                 102.860772
_cell_angle_beta                  93.471487
_cell_angle_gamma                 92.950155
_cell_volume                      675.109619525

loop_
_atom_site_label
_atom_site_type_symbol
_atom_type_description
_atom_site_fract_x
_atom_site_fract_y
_atom_site_fract_z
_atom_type_partial_charge
C1    C     C_R   0.494124 0.199768 0.453533 0.539277
C2    C     C_R   0.501434 0.800079 0.546832 0.587851
C3    C     C_R   0.737562 0.506656 0.497181 0.606643
C4    C     C_R   0.152077 0.796152 0.629987 -0.122112
C5    C     C_R   0.098826 0.941420 0.669248 -0.178060
C6    C     C_R   0.971210 0.948758 0.633242 -0.100204
C7    C     C_R   0.894903 0.810132 0.561201 0.279093
C8    C     C_R   0.945764 0.659669 0.539779 0.024182
C9    C     C_3   0.778442 0.849430 0.315399 -0.110045
C10   C     C_R   0.076942 0.654180 0.562784 -0.010808
C11   C     C_R   0.129871 0.506786 0.512360 0.017418
C12   C     C_R   0.055205 0.366441 0.453011 -0.155583
C13   C     C_R   0.926721 0.369939 0.445937 -0.164355
C14   C     C_R   0.871667 0.514314 0.489423 0.010945
C15   C     C_2   0.487576 0.031775 0.427884 -0.158164
C16   C     C_2   0.502048 0.968010 0.573280 -0.131363
C17   C     C_R   0.262746 0.497957 0.503352 0.531391
Cu1   Cu    Cu3+1 0.513920 0.517380 0.684380 0.966483
Cu2   Cu    Cu3+1 0.486080 0.482620 0.315620 0.966380
H1    H     H_    0.096761 0.253741 0.414150 0.112499
H2    H     H_    0.816346 0.747303 0.221137 0.120211
H3    H     H_    0.833788 0.961002 0.314124 0.103105
H4    H     H_    0.682567 0.861259 0.259833 0.138008
H5    H     H_    0.598962 0.620228 0.050205 0.231899
H6    H     H_    0.252242 0.796156 0.653606 0.136772
H7    H     H_    0.157444 0.049265 0.721338 0.120305
H8    H     H_    0.931746 0.063096 0.653523 0.128931
H9    H     H_    0.869664 0.259456 0.406889 0.109537
H10   H     H_    0.472158 0.960167 0.287828 0.123710
H11   H     H_    0.516574 0.039594 0.713453 0.131697
H12   H     H_    0.401376 0.379059 0.949543 0.238417
N1    N     N_2   0.465100 0.456430 0.038520 -0.257656
N2    N     N_2   0.534900 0.543570 0.961480 -0.259954
O1    O     O_R   0.509050 0.286130 0.619770 -0.508408
O2    O     O_R   0.485540 0.256780 0.308360 -0.504057
O3    O     O_R   0.331410 0.514680 0.655740 -0.515657
O4    O     O_R   0.307900 0.485330 0.344330 -0.498173
O5    O     O_R   0.514460 0.743220 0.691640 -0.496203
O6    O     O_R   0.490950 0.713870 0.380230 -0.500275
O7    O     O_R   0.692100 0.514670 0.655670 -0.488528
O8    O     O_R   0.668590 0.485320 0.344260 -0.493366
O9    O     O_3   0.774192 0.824378 0.496042 -0.571783

loop_
_geom_bond_atom_site_label_1
_geom_bond_atom_site_label_2
_ccdc_geom_bond_type
C3    O7    A    
C8    C14   A    
C11   C12   A    
C13   H9    S    
C6    C7    A    
C1    C15   S    
C17   O3    A    
C2    C16   S    
C2    O5    A    
H12   N1    S    
N1    N2    D    
C12   H1    S    
C4    H6    S    
Cu1   O5    S    
C7    C8    A    
C17   O4    A    
C13   C14   A    
Cu1   O1    S    
C9    H2    S    
C9    O9    S    
C3    C14   S    
Cu2   O6    S    
Cu2   N1    S    
C1    O1    A    
C15   H10   S    
C5    C6    A    
Cu1   N2    S    
C9    H3    S    
C10   C11   A    
C16   H11   S    
C5    H7    S    
Cu2   O8    S    
C12   C13   A    
C1    O2    A    
C8    C10   A    
Cu1   Cu2   S    
C7    O9    S    
Cu1   O7    S    
C9    H4    S    
Cu2   O2    S    
Cu2   O4    S    
Cu1   O3    S    
C2    O6    A    
C15   C16   D    
C3    O8    A    
H5    N2    S    
C6    H8    S    
C4    C10   A    
C4    C5    A    
C11   C17   S    
