data_mof_unit_1836.cif
_audit_creation_date              2012-12-11T16:22:48-0500
_audit_creation_method            fapswitch 2.2
_symmetry_space_group_name_H-M    P1
_symmetry_Int_Tables_number       1
_space_group_crystal_system       triclinic
_cell_length_a                    16.869264
_cell_length_b                    16.889621
_cell_length_c                    19.396016
_cell_angle_alpha                 117.774327
_cell_angle_beta                  62.971184
_cell_angle_gamma                 100.294979
_cell_volume                      4351.67156161

loop_
_atom_site_label
_atom_site_type_symbol
_atom_type_description
_atom_site_fract_x
_atom_site_fract_y
_atom_site_fract_z
_atom_type_partial_charge
C1    C     C_R   0.061393 0.749255 0.992145 -0.251491
C2    C     C_R   0.235620 0.578172 0.836480 -0.121585
C3    C     C_R   0.190053 0.475766 0.074768 -0.143732
C4    C     C_R   0.754617 0.442630 0.171669 -0.140019
C5    C     C_R   0.993382 0.339482 0.757838 -0.148460
C6    C     C_R   0.270450 0.513900 0.041699 0.175627
C7    C     C_R   0.946770 0.263169 0.755940 0.047147
C8    C     C_R   0.232833 0.558758 0.759831 0.092288
C9    C     C_R   0.006601 0.228404 0.026567 0.037570
C10   C     C_R   0.903749 0.921390 0.486988 0.661087
C11   C     C_R   0.934399 0.843859 0.410201 -0.428472
C12   C     C_R   0.748972 0.486083 0.254035 0.081492
C13   C     C_R   0.939902 0.840670 0.334840 -0.106527
C14   C     C_R   0.908409 0.913916 0.336885 0.668136
C15   C     C_R   0.872949 0.990614 0.415627 -0.432386
C16   C     C_R   0.808077 0.571820 0.973524 -0.178178
C17   C     C_R   0.872899 0.995500 0.489755 -0.123156
C18   C     C_R   0.929000 0.144180 0.545821 -0.200888
C19   C     C_R   0.952970 0.206009 0.610514 -0.187156
C20   C     C_R   0.911127 0.208029 0.692558 0.133346
C21   C     C_R   0.837441 0.155214 0.711799 -0.182829
C22   C     C_R   0.813464 0.093144 0.646721 -0.074240
C23   C     C_R   0.727394 0.562390 0.033938 0.133428
C24   C     C_R   0.864111 0.082855 0.562203 0.176898
C25   C     C_R   0.514720 0.488317 0.411706 0.632773
C26   C     C_R   0.596725 0.457715 0.340747 -0.334085
C27   C     C_R   0.666166 0.516194 0.331228 0.069655
C28   C     C_R   0.965848 0.673534 0.249250 -0.150209
C29   C     C_R   0.652813 0.606907 0.390013 -0.155449
C30   C     C_R   0.570083 0.639073 0.458627 -0.237233
C31   C     C_R   0.500611 0.580360 0.470512 -0.044845
C32   C     C_R   0.430047 0.651634 0.628833 -0.311330
C33   C     C_R   0.363016 0.647414 0.702791 0.573283
C34   C     C_R   0.978026 0.759173 0.255155 0.138276
C35   C     C_R   0.288753 0.594815 0.696882 -0.056821
C36   C     C_R   0.272696 0.569928 0.624329 -0.231924
C37   C     C_R   0.337497 0.579917 0.552850 -0.029895
C38   C     C_R   0.420261 0.610831 0.551885 0.078152
C39   C     C_R   0.642358 0.611144 0.071496 -0.151661
C40   C     C_R   0.739621 0.489368 0.043149 -0.121030
C41   C     C_R   0.348179 0.527241 0.062296 -0.309708
C42   C     C_R   0.416223 0.530235 0.151159 0.470475
C43   C     C_R   0.349245 0.500800 0.121525 0.369452
C44   C     C_R   0.422845 0.570060 0.023168 0.498714
C45   C     C_R   0.255970 0.555455 0.000370 -0.152424
C46   C     C_R   0.486262 0.603776 0.056416 -0.312031
C47   C     C_R   0.487418 0.576442 0.114394 -0.164840
C48   C     C_R   0.565676 0.584018 0.124356 -0.208737
C49   C     C_R   0.632262 0.663743 0.036459 0.464865
C50   C     C_R   0.553881 0.658588 0.027422 0.467151
C51   C     C_R   0.227856 0.069319 0.818677 -0.101521
C52   C     C_R   0.030090 0.751726 0.172618 -0.081332
C53   C     C_R   0.074104 0.817132 0.896832 0.120019
C54   C     C_R   0.160282 0.831188 0.762541 0.535029
C55   C     C_R   0.114262 0.779211 0.806779 -0.339671
C56   C     C_R   0.924669 0.261814 0.833634 -0.131757
C57   C     C_R   0.083441 0.908093 0.943655 -0.251749
C58   C     C_R   0.131103 0.961381 0.901025 0.068369
C59   C     C_R   0.170378 0.923457 0.809365 -0.177430
C60   C     C_R   0.218474 0.978746 0.767647 0.595878
C61   C     C_R   0.189740 0.105282 0.907981 -0.209086
C62   C     C_R   0.141426 0.051904 0.949227 -0.175676
C63   C     C_R   0.832381 0.515625 0.248426 -0.144290
C64   C     C_R   0.986361 0.682337 0.913360 0.500764
C65   C     C_R   0.031975 0.759023 0.940959 -0.001443
C66   C     C_3   0.992721 0.939378 0.552565 -0.262468
C67   C     C_R   0.158846 0.507165 0.758799 -0.169846
C68   C     C_3   0.953584 0.974922 0.241556 -0.308654
C69   C     C_3   0.462563 0.384683 0.463707 -0.257293
C70   C     C_3   0.336390 0.774432 0.828395 0.155912
C71   C     C_3   0.407428 0.843827 0.818595 -0.277048
C72   C     C_3   0.366429 0.939017 0.873363 -0.994096
C73   C     C_3   0.716922 0.784388 0.067259 -0.218991
C74   C     C_3   0.367983 0.574193 0.293850 -0.198408
C75   C     C_3   0.489905 0.774347 0.038777 0.272950
C76   C     C_3   0.479175 0.814381 0.987116 -0.225038
C77   C     C_3   0.414859 0.896148 0.045951 -1.088510
C78   C     C_R   0.039059 0.311329 0.065218 -0.145467
C79   C     C_3   0.321115 0.358428 0.111977 0.249502
C80   C     C_3   0.327244 0.304805 0.020337 -0.390259
C81   C     C_3   0.360158 0.208238 0.981175 -0.995976
C82   C     C_3   0.469231 0.488678 0.876769 0.221629
C83   C     C_3   0.570402 0.475552 0.840305 -0.271501
C84   C     C_3   0.605053 0.388052 0.758351 -1.026726
C85   C     C_3   0.272498 0.004839 0.646029 -0.251732
C86   C     C_3   0.138632 0.772142 0.640743 0.268119
C87   C     C_3   0.185567 0.728474 0.542404 -0.256351
C88   C     C_3   0.119169 0.706214 0.503270 -1.058189
C89   C     C_R   0.960314 0.242912 0.989314 -0.104749
C90   C     C_3   0.953533 0.577126 0.796021 0.177383
C91   C     C_3   0.990261 0.572330 0.705903 -0.281828
C92   C     C_3   0.985208 0.478955 0.638766 -1.031787
H1    H     H_    0.113967 0.786610 0.009468 0.119215
H2    H     H_    0.703824 0.403508 0.152631 0.098769
H3    H     H_    0.848534 0.047899 0.418862 0.169587
H4    H     H_    0.968930 0.136900 0.480732 0.126784
H5    H     H_    0.009090 0.246773 0.593916 0.120265
H6    H     H_    0.801445 0.158023 0.775443 0.112836
H7    H     H_    0.762499 0.046465 0.660111 0.129900
H8    H     H_    0.606661 0.387884 0.294224 0.146952
H9    H     H_    0.705708 0.653300 0.381474 0.136166
H10   H     H_    0.560785 0.709390 0.503726 0.153044
H11   H     H_    0.492840 0.679060 0.629964 0.147867
H12   H     H_    0.878429 0.218533 0.859022 0.089541
H13   H     H_    0.823543 0.624573 0.954578 0.200300
H14   H     H_    0.213896 0.535908 0.618708 0.132609
H15   H     H_    0.327455 0.552351 0.494699 0.125542
H16   H     H_    0.570778 0.554666 0.161357 0.190421
H17   H     H_    0.931848 0.656024 0.302072 0.102963
H18   H     H_    0.197551 0.175042 0.945222 0.160351
H19   H     H_    0.112374 0.081379 0.018957 0.128708
H20   H     H_    0.113665 0.707807 0.770092 0.157523
H21   H     H_    0.054674 0.936979 0.013388 0.123946
H22   H     H_    0.688985 0.459088 0.080779 0.097980
H23   H     H_    0.132572 0.484550 0.711696 0.099858
H24   H     H_    0.054481 0.805434 0.153776 0.119159
H25   H     H_    0.852483 0.543216 0.300289 0.096817
H26   H     H_    0.294965 0.605240 0.980501 0.157062
H27   H     H_    0.017551 0.002813 0.547136 0.142879
H28   H     H_    0.038932 0.882108 0.497225 0.134950
H29   H     H_    0.992689 0.945440 0.612039 0.173149
H30   H     H_    0.018598 0.984807 0.245876 0.121242
H31   H     H_    0.912898 0.038653 0.281998 0.154435
H32   H     H_    0.968409 0.955457 0.173679 0.174967
H33   H     H_    0.461958 0.433548 0.527149 0.140850
H34   H     H_    0.073242 0.326501 0.105177 0.095723
H35   H     H_    0.525883 0.343310 0.421887 0.136369
H36   H     H_    0.407348 0.339074 0.475944 0.175594
H37   H     H_    0.304763 0.785754 0.896713 0.119398
H38   H     H_    0.282139 0.785050 0.815259 0.105204
H39   H     H_    0.457144 0.836984 0.838463 0.208384
H40   H     H_    0.442433 0.831886 0.750132 0.200690
H41   H     H_    0.323293 0.949381 0.848708 0.279091
H42   H     H_    0.420090 0.987809 0.869894 0.273439
H43   H     H_    0.326214 0.951782 0.941726 0.262609
H44   H     H_    0.741509 0.762227 0.100161 0.142010
H45   H     H_    0.921322 0.194705 0.958339 0.095071
H46   H     H_    0.656285 0.829271 0.114874 0.115515
H47   H     H_    0.769642 0.823945 0.038606 0.184605
H48   H     H_    0.297302 0.580291 0.307130 0.151913
H49   H     H_    0.399943 0.639792 0.302991 0.124555
H50   H     H_    0.368193 0.555974 0.341831 0.165704
H51   H     H_    0.516994 0.825664 0.083938 0.064851
H52   H     H_    0.422910 0.756099 0.076598 0.082765
H53   H     H_    0.545126 0.834343 0.949878 0.204184
H54   H     H_    0.453432 0.763144 0.940920 0.221118
H55   H     H_    0.347390 0.876826 0.080948 0.268556
H56   H     H_    0.277294 0.623681 0.865017 0.150496
H57   H     H_    0.410419 0.925025 0.006797 0.285785
H58   H     H_    0.438817 0.948068 0.093227 0.276593
H59   H     H_    0.275610 0.324290 0.151715 0.125341
H60   H     H_    0.387327 0.357000 0.111045 0.131295
H61   H     H_    0.260638 0.304752 0.021976 0.205317
H62   H     H_    0.374174 0.336253 0.978558 0.199945
H63   H     H_    0.426453 0.206642 0.979733 0.267355
H64   H     H_    0.366557 0.171925 0.914101 0.279898
H65   H     H_    0.312254 0.173426 0.019159 0.271011
H66   H     H_    0.453379 0.486117 0.826100 0.130428
H67   H     H_    0.169211 0.449577 0.121120 0.164260
H68   H     H_    0.434634 0.432113 0.891780 0.067640
H69   H     H_    0.603993 0.532342 0.825654 0.240318
H70   H     H_    0.587546 0.474005 0.888608 0.187046
H71   H     H_    0.573192 0.330230 0.771867 0.269490
H72   H     H_    0.678224 0.380333 0.733915 0.278289
H73   H     H_    0.590861 0.388253 0.707836 0.269149
H74   H     H_    0.209645 0.043622 0.674227 0.126303
H75   H     H_    0.294254 0.968759 0.575320 0.163383
H76   H     H_    0.326114 0.050285 0.657866 0.149787
H77   H     H_    0.104239 0.835928 0.663105 0.093416
H78   H     H_    0.009025 0.368733 0.714533 0.095841
H79   H     H_    0.088280 0.725899 0.661500 0.071227
H80   H     H_    0.234754 0.774750 0.520570 0.213839
H81   H     H_    0.221835 0.665790 0.519177 0.189420
H82   H     H_    0.071408 0.657356 0.521768 0.278604
H83   H     H_    0.155321 0.676294 0.431966 0.269810
H84   H     H_    0.081821 0.767872 0.525801 0.271007
H85   H     H_    0.884581 0.553647 0.811635 0.137498
H86   H     H_    0.992454 0.531199 0.795449 0.084008
H87   H     H_    0.951391 0.620696 0.707953 0.221959
H88   H     H_    0.060742 0.591103 0.685307 0.178011
H89   H     H_    0.958214 0.787523 0.408956 0.173298
H90   H     H_    0.034139 0.432033 0.625608 0.255799
H91   H     H_    0.002032 0.481786 0.577582 0.275607
H92   H     H_    0.917123 0.453568 0.660753 0.275187
N1    N     N_R   0.034930 0.670790 0.995440 -0.054106
N2    N     N_R   0.867000 0.509260 0.948460 -0.060535
N3    N     N_R   0.003780 0.616410 0.165900 -0.041701
N4    N     N_R   0.825670 0.461520 0.995440 -0.040920
N5    N     N_R   0.045120 0.664150 0.118920 -0.047451
N6    N     N_R   0.884940 0.497570 0.165910 -0.034892
N7    N     N_R   0.985840 0.628110 0.948460 -0.107948
N8    N     N_R   0.174330 0.538480 0.004560 -0.051139
N9    N     N_R   0.954880 0.335850 0.881080 -0.037515
N10   N     N_R   0.115060 0.502430 0.834090 -0.047843
N11   N     N_R   0.014160 0.371890 0.051540 -0.038189
N12   N     N_R   0.965070 0.329210 0.004560 -0.041426
N13   N     N_R   0.164150 0.545120 0.881070 -0.046911
N14   N     N_R   0.133000 0.490740 0.051540 -0.051559
N15   N     N_R   0.996220 0.383590 0.834100 -0.041003
N16   N     N_R   0.835850 0.454880 0.118930 -0.037742
Ni1   Ni    Ni4+2 0.103690 0.603690 0.000000 0.196821
Ni2   Ni    Ni4+2 0.896310 0.396310 0.000000 0.211886
Ni3   Ni    Ni4+2 0.991110 0.505800 0.892250 0.201951
Ni4   Ni    Ni4+2 0.008890 0.494200 0.107750 0.217011
O1    O     O_3   0.904999 0.924983 0.559278 -0.617864
O2    O     O_3   0.259156 0.941185 0.677851 -0.584951
O3    O     O_3   0.202577 0.789067 0.673536 -0.621284
O4    O     O_3   0.951128 0.667304 0.855716 -0.673096
O5    O     O_3   0.905768 0.906218 0.263557 -0.611661
O6    O     O_3   0.448517 0.427968 0.422895 -0.627744
O7    O     O_3   0.376417 0.686793 0.776784 -0.688450
O8    O     O_3   0.700788 0.710871 0.000622 -0.598560
O9    O     O_3   0.415661 0.506476 0.210713 -0.619129
O10   O     O_3   0.549253 0.698681 0.981221 -0.603214
O11   O     O_3   0.284935 0.446628 0.151280 -0.662702
O12   O     O_3   0.438606 0.573841 0.948086 -0.640938

loop_
_geom_bond_atom_site_label_1
_geom_bond_atom_site_label_2
_ccdc_geom_bond_type
C45   H26   S    
C25   C31   A    
C72   H41   S    
C3    H67   S    
C87   C88   S    
C90   H86   S    
C63   N6    A    
C58   C62   A    
C6    C45   A    
C55   H20   S    
C27   C29   A    
C86   H77   S    
C18   H4    S    
C60   O2    S    
C73   O8    S    
C35   C36   A    
C11   H89   S    
C3    C6    A    
C43   O11   S    
C68   H32   S    
C57   C58   A    
N6    N16   A    
C80   H61   S    
C5    N15   A    
C64   O4    S    
C26   C27   A    
C29   C30   A    
C88   H83   S    
C18   C24   A    
C85   H74   S    
C36   C37   A    
C10   O1    S    
C37   H15   S    
C52   H24   S    
C51   C61   A    
C15   H3    S    
C30   C31   A    
C63   H25   S    
C23   C39   S    
N10   N13   A    
C73   H46   S    
C68   O5    S    
C10   C17   A    
C2    H56   S    
C23   C40   A    
C2    N13   A    
C70   H38   S    
C3    N14   A    
C88   H82   S    
C15   C17   A    
C18   C19   A    
N1    Ni1   S    
C67   H23   S    
C84   H73   S    
C71   H40   S    
C54   C55   A    
C40   H22   S    
C62   H19   S    
C83   C84   S    
C69   H36   S    
C6    C41   S    
C91   H87   S    
C1    C65   A    
C5    H78   S    
N13   Ni1   S    
C70   C71   S    
C32   C38   A    
C4    C12   A    
C67   N10   A    
C53   C65   S    
C77   H55   S    
C75   H52   S    
C84   H72   S    
C42   C47   A    
C79   O11   S    
C83   H69   S    
C90   H85   S    
C69   H33   S    
C59   C60   A    
C66   H28   S    
C13   C14   A    
N15   Ni3   S    
C70   O7    S    
C41   C43   A    
C25   O6    S    
N7    Ni3   S    
C7    C56   A    
C61   H18   S    
C68   H31   S    
C78   N11   A    
C44   C46   A    
C85   O2    S    
N1    N7    A    
C54   C59   A    
C53   C55   A    
C19   H5    S    
C87   H81   S    
C66   H29   S    
C17   C24   S    
C81   H65   S    
N8    N14   A    
C12   C27   S    
C36   H14   S    
C86   H79   S    
C85   H75   S    
C76   C77   S    
C56   H12   S    
C92   H92   S    
C28   N3    A    
C9    C89   A    
C91   C92   S    
C5    C7    A    
C12   C63   A    
C53   C57   A    
C86   C87   S    
C72   H43   S    
C57   H21   S    
N11   Ni4   S    
C73   H47   S    
N5    Ni1   S    
C25   C26   A    
N9    N15   A    
C89   N12   A    
C74   H48   S    
N3    Ni4   S    
C82   C83   S    
C70   H37   S    
N9    Ni2   S    
C56   N9    A    
C8    C35   S    
C77   H58   S    
C75   C76   S    
C37   C38   A    
C82   H68   S    
C45   N8    A    
C72   H42   S    
C47   C48   A    
C73   H44   S    
C4    N16   A    
N8    Ni1   S    
C91   H88   S    
C30   H10   S    
C82   O12   S    
C32   H11   S    
C29   H9    S    
C81   H64   S    
C52   N5    A    
C84   H71   S    
C75   H51   S    
C16   H13   S    
C8    C67   A    
C90   O4    S    
C1    H1    S    
C39   C49   A    
C74   H49   S    
C76   H53   S    
C49   C50   A    
C16   C23   A    
C89   H45   S    
C66   H27   S    
C54   O3    S    
C74   O9    S    
N14   Ni4   S    
C41   C44   A    
C4    H2    S    
C51   C60   A    
C42   C43   A    
N12   Ni2   S    
C78   H34   S    
C64   N7    A    
C79   H59   S    
C66   O1    S    
C46   C47   A    
C22   H7    S    
N10   Ni3   S    
C14   O5    S    
C44   O12   S    
C85   H76   S    
C83   H70   S    
C2    C8    A    
C80   C81   S    
C92   H91   S    
C81   H63   S    
C86   O3    S    
C80   H62   S    
C40   N4    A    
C1    N1    A    
C28   H17   S    
N11   N12   A    
C77   H57   S    
C68   H30   S    
C46   C50   A    
C75   O10   S    
C34   C52   A    
C88   H84   S    
C31   C38   S    
C64   C65   A    
C19   C20   A    
C58   C59   A    
C13   C34   S    
C42   O9    S    
C16   N2    A    
C32   C33   A    
C21   H6    S    
C11   C13   A    
N6    Ni4   S    
C90   C91   S    
C48   H16   S    
C82   H66   S    
C87   H80   S    
C49   O8    S    
N4    Ni2   S    
C33   C35   A    
N2    Ni3   S    
C22   C24   A    
C9    C78   A    
C74   H50   S    
C61   C62   A    
C33   O7    S    
N3    N5    A    
C10   C11   A    
C28   C34   A    
C79   C80   S    
C71   C72   S    
C20   C21   A    
C69   H35   S    
C71   H39   S    
N16   Ni2   S    
C7    C20   S    
C76   H54   S    
C50   O10   S    
C14   C15   A    
C79   H60   S    
C92   H90   S    
C69   O6    S    
C21   C22   A    
N2    N4    A    
C26   H8    S    
C39   C48   A    
