data_mof_unit_4081.cif
_audit_creation_date              2012-12-10T17:24:43-0500
_audit_creation_method            fapswitch 2.2
_symmetry_space_group_name_H-M    P1
_symmetry_Int_Tables_number       1
_space_group_crystal_system       triclinic
_cell_length_a                    23.445913
_cell_length_b                    10.851111
_cell_length_c                    9.611193
_cell_angle_alpha                 91.518515
_cell_angle_beta                  88.818121
_cell_angle_gamma                 93.28348
_cell_volume                      2439.90520899

loop_
_atom_site_label
_atom_site_type_symbol
_atom_type_description
_atom_site_fract_x
_atom_site_fract_y
_atom_site_fract_z
_atom_type_partial_charge
C1    C     C_R   0.496954 0.262062 0.498597 0.916724
C2    C     C_R   0.965066 0.393729 0.714667 -0.134951
C3    C     C_R   0.024604 0.398600 0.719165 -0.135272
C4    C     C_R   0.057675 0.467241 0.621742 -0.038751
C5    C     C_R   0.030322 0.532225 0.519719 -0.012122
C6    C     C_R   0.063049 0.601851 0.421954 -0.030940
C7    C     C_R   0.035358 0.665693 0.320104 -0.130380
C8    C     C_R   0.975853 0.659500 0.314505 -0.138989
C9    C     C_R   0.117592 0.470864 0.621850 0.622972
C10   C     C_R   0.122832 0.604121 0.427377 0.586479
C11   C     C_R   0.244436 0.591283 0.621255 0.467369
C12   C     C_R   0.391221 0.505262 0.501159 0.913651
C13   C     C_R   0.303487 0.580564 0.614180 -0.297191
C14   C     C_R   0.328683 0.512835 0.504918 -0.151364
C15   C     C_R   0.293526 0.453997 0.402450 0.411321
C16   C     C_R   0.234554 0.463902 0.411015 -0.176511
C17   C     C_R   0.209731 0.532046 0.519490 0.189522
C18   C     C_R   0.758826 0.398946 0.474407 -0.047129
C19   C     C_R   0.699274 0.396075 0.473323 -0.164544
C20   C     C_R   0.670889 0.504978 0.497092 -0.086801
C21   C     C_R   0.702362 0.617418 0.520713 0.237592
C22   C     C_R   0.761849 0.619722 0.522477 -0.067171
C23   C     C_R   0.498541 0.737008 0.502014 0.800770
C24   C     C_R   0.790347 0.510771 0.499731 0.260663
C25   C     C_R   0.404976 0.113573 0.655162 0.304223
C26   C     C_R   0.373651 0.049187 0.758845 0.309733
C27   C     C_R   0.382209 0.925719 0.778030 -0.206347
C28   C     C_R   0.420584 0.865288 0.692725 -0.223045
C29   C     C_R   0.456529 0.930616 0.596027 0.067563
C30   C     C_R   0.451501 0.059495 0.583466 -0.052713
C31   C     C_R   0.491379 0.126845 0.494980 -0.158971
C32   C     C_R   0.530084 0.063497 0.409482 0.356396
C33   C     C_R   0.530375 0.936523 0.413045 -0.157089
C34   C     C_R   0.608658 0.500240 0.498892 0.861252
C35   C     C_R   0.495238 0.870138 0.506366 -0.110707
C36   C     C_R   0.590593 0.624513 0.135467 0.193424
C37   C     C_R   0.612506 0.737381 0.084535 0.172101
C38   C     C_R   0.603132 0.762772 0.945382 0.334153
C39   C     C_R   0.571325 0.676275 0.863741 -0.247485
C40   C     C_R   0.537168 0.580806 0.926584 0.134307
C41   C     C_R   0.541022 0.570623 0.073675 0.096809
C42   C     C_R   0.462112 0.427603 0.073590 0.030963
C43   C     C_R   0.463156 0.425079 0.925503 -0.000108
C44   C     C_R   0.882929 0.581598 0.406847 0.561675
C45   C     C_R   0.877560 0.452565 0.604974 0.560595
C46   C     C_R   0.937361 0.456875 0.612203 -0.023276
C47   C     C_R   0.970107 0.526519 0.514515 -0.008115
C48   C     C_R   0.942797 0.589866 0.411098 -0.027342
Cu1   Cu    Cu3+1 0.500000 0.499990 0.640660 0.998341
Cu2   Cu    Cu3+1 0.500000 0.500010 0.359340 1.048509
H1    H     H_    0.940873 0.339765 0.791181 0.200301
H2    H     H_    0.675312 0.309071 0.454742 0.206310
H3    H     H_    0.786099 0.706224 0.541833 0.186419
H4    H     H_    0.356380 0.874091 0.853628 0.205319
H5    H     H_    0.420465 0.767048 0.704620 0.180929
H6    H     H_    0.559976 0.889118 0.345400 0.207514
H7    H     H_    0.431454 0.367558 0.128285 0.194446
H8    H     H_    0.044590 0.348048 0.798815 0.199963
H9    H     H_    0.574335 0.688115 0.754500 0.250101
H10   H     H_    0.433157 0.363339 0.870029 0.177117
H11   H     H_    0.059551 0.719812 0.243724 0.204665
H12   H     H_    0.955887 0.709270 0.234163 0.200501
H13   H     H_    0.329832 0.626757 0.693214 0.185507
H14   H     H_    0.207522 0.417308 0.333595 0.200968
H15   H     H_    0.780508 0.314414 0.455946 0.179319
N1    N     N_R   0.851617 0.514173 0.503237 -0.465786
N2    N     N_R   0.148769 0.538333 0.525388 -0.448521
N3    N     N_R   0.500540 0.501210 0.147910 -0.191179
N4    N     N_R   0.500560 0.501290 0.852040 -0.186668
O1    O     O_R   0.500000 0.319640 0.618810 -0.567740
O2    O     O_2   0.845564 0.388479 0.699714 -0.495344
O3    O     O_2   0.144518 0.405915 0.715922 -0.466634
O4    O     O_2   0.154885 0.670617 0.334816 -0.485687
O5    O     O_R   0.500000 0.319660 0.381240 -0.528773
O6    O     O_R   0.417880 0.499950 0.618810 -0.570412
O7    O     O_R   0.417880 0.499980 0.381240 -0.552662
O8    O     O_R   0.500000 0.680340 0.618760 -0.618292
O9    O     O_R   0.500000 0.680360 0.381190 -0.591308
O10   O     O_R   0.582120 0.500020 0.618760 -0.580386
O11   O     O_R   0.582120 0.500050 0.381190 -0.532629
O12   O     O_2   0.856180 0.639791 0.306679 -0.486179
Br1   Br    Br    0.665900 0.769781 0.547775 -0.401673
Cl1   Cl    Cl    0.581562 0.139296 0.299951 -0.512470
Cl2   Cl    Cl    0.372890 0.240327 0.589520 -0.566402
Br2   Br    Br    0.314787 0.123612 0.868446 -0.301419
Br3   Br    Br    0.651540 0.512421 0.139207 -0.343174
Br4   Br    Br    0.669227 0.833950 0.187244 -0.259425
Cl3   Cl    Cl    0.634522 0.896329 0.868912 -0.422547
Cl4   Cl    Cl    0.215068 0.681333 0.756575 -0.499208
Cl5   Cl    Cl    0.320321 0.360743 0.266185 -0.514654

loop_
_geom_bond_atom_site_label_1
_geom_bond_atom_site_label_2
_ccdc_geom_bond_type
C45   O2    S    
C44   N1    A    
C19   C20   A    
C9    O3    S    
C9    N2    A    
C27   H4    S    
C7    C8    A    
C10   N2    A    
C2    C46   A    
C18   H15   S    
C5    C47   A    
C26   C27   A    
C29   C30   A    
C18   C24   A    
C1    O5    A    
C28   C29   A    
Cu2   O5    S    
C5    C6    A    
C10   O4    S    
C15   C16   A    
C1    C31   S    
C18   C19   A    
C7    H11   S    
C34   O11   A    
C19   H2    S    
C11   C17   A    
C31   C32   A    
C16   C17   A    
C25   Cl2   S    
Cu1   O6    S    
C41   N3    A    
C24   N1    S    
C20   C34   S    
C33   H6    S    
C43   N4    A    
Cu1   N4    S    
C21   C22   A    
C42   N3    A    
C36   C41   A    
Cu2   O9    S    
C42   H7    S    
C28   H5    S    
C22   H3    S    
C38   C39   A    
C17   N2    S    
C40   N4    A    
C44   O12   S    
C39   C40   A    
C36   Br3   S    
C25   C26   A    
C45   C46   A    
Cu1   O10   S    
C38   Cl3   S    
C8    C48   A    
C37   C38   A    
Cu2   O7    S    
C34   O10   A    
C11   Cl4   S    
C47   C48   A    
C13   H13   S    
C39   H9    S    
C20   C21   A    
C23   O8    A    
C43   H10   S    
C40   C41   A    
C12   C14   S    
C23   C35   S    
Cu1   O1    S    
C12   O7    A    
C22   C24   A    
C42   C43   A    
C3    C4    A    
C45   N1    A    
C25   C30   A    
C32   Cl1   S    
C46   C47   A    
C36   C37   A    
C37   Br4   S    
C4    C5    A    
Cu2   O11   S    
C6    C10   A    
C6    C7    A    
C29   C35   A    
C1    O1    A    
C32   C33   A    
C2    C3    A    
C15   Cl5   S    
C11   C13   A    
C30   C31   A    
C26   Br2   S    
C33   C35   A    
Cu1   O8    S    
C23   O9    A    
C2    H1    S    
C3    H8    S    
C21   Br1   S    
Cu1   Cu2   S    
C12   O6    A    
C27   C28   A    
C14   C15   A    
C16   H14   S    
C4    C9    A    
C13   C14   A    
Cu2   N3    S    
C44   C48   A    
C8    H12   S    
