data_mof_unit_470.cif
_audit_creation_date              2012-12-10T17:10:25-0500
_audit_creation_method            fapswitch 2.2
_symmetry_space_group_name_H-M    P1
_symmetry_Int_Tables_number       1
_space_group_crystal_system       triclinic
_cell_length_a                    10.757967
_cell_length_b                    13.020184
_cell_length_c                    11.722164
_cell_angle_alpha                 100.829692
_cell_angle_beta                  95.845474
_cell_angle_gamma                 91.006624
_cell_volume                      1603.17104844

loop_
_atom_site_label
_atom_site_type_symbol
_atom_type_description
_atom_site_fract_x
_atom_site_fract_y
_atom_site_fract_z
_atom_type_partial_charge
C1    C     C_R   0.497497 0.298854 0.477911 0.853707
C2    C     C_R   0.502503 0.701146 0.522089 0.853706
C3    C     C_R   0.503780 0.814904 0.534953 -0.119461
C4    C     C_R   0.496220 0.185096 0.465047 -0.119461
C5    C     C_R   0.487225 0.012709 0.342750 0.285941
C6    C     C_R   0.512775 0.987291 0.657250 0.285941
C7    C     C_R   0.487483 0.120973 0.354348 -0.158433
C8    C     C_R   0.512517 0.879027 0.645652 -0.158433
C9    C     C_R   0.504309 0.140619 0.565208 -0.190109
C10   C     C_R   0.495691 0.859381 0.434791 -0.190109
C11   C     C_R   0.504298 0.032400 0.556302 0.049553
C12   C     C_R   0.495702 0.967599 0.443698 0.049553
C13   C     C_R   0.384564 0.397886 0.013185 0.182230
C14   C     C_R   0.615436 0.602114 0.986815 0.182231
C15   C     C_R   0.394334 0.407354 0.136656 0.292780
C16   C     C_R   0.605666 0.592646 0.863344 0.292780
C17   C     C_R   0.548826 0.544030 0.160936 0.043824
C18   C     C_R   0.451174 0.455970 0.839064 0.043825
C19   C     C_R   0.541520 0.536986 0.037356 -0.093654
C20   C     C_R   0.458480 0.463014 0.962644 -0.093656
C21   C     C_R   0.262433 0.513578 0.500078 0.844657
C22   C     C_R   0.737567 0.486422 0.499922 0.844658
C23   C     C_R   0.133360 0.602002 0.712740 0.283914
C24   C     C_R   0.866640 0.397998 0.287260 0.283913
C25   C     C_R   0.092460 0.590036 0.820068 0.156123
C26   C     C_R   0.907540 0.409965 0.179932 0.156119
C27   C     C_R   0.987040 0.525806 0.819831 -0.178517
C28   C     C_R   0.012959 0.474196 0.180170 -0.178517
C29   C     C_R   0.915898 0.483014 0.715187 -0.171171
C30   C     C_R   0.084101 0.516987 0.284814 -0.171171
C31   C     C_R   0.952652 0.498673 0.607366 0.035608
C32   C     C_R   0.047348 0.501327 0.392635 0.035608
C33   C     C_R   0.072351 0.543715 0.606196 -0.010448
C34   C     C_R   0.927649 0.456285 0.393804 -0.010448
C35   C     C_R   0.874103 0.470019 0.500991 -0.146321
C36   C     C_R   0.125897 0.529981 0.499010 -0.146321
Cu1   Cu    Cu3+1 0.509250 0.507730 0.615930 0.971341
Cu2   Cu    Cu3+1 0.490750 0.492270 0.384070 0.971341
H1    H     H_    0.044633 0.486391 0.098912 0.155168
H2    H     H_    0.955366 0.513611 0.901088 0.155167
H3    H     H_    0.834031 0.435113 0.719584 0.183750
H4    H     H_    0.165968 0.564888 0.280416 0.183750
H5    H     H_    0.489211 0.808893 0.349753 0.208925
H6    H     H_    0.510789 0.191107 0.650247 0.208925
H7    H     H_    0.518701 0.845162 0.723524 0.206362
H8    H     H_    0.481299 0.154838 0.276476 0.206361
H9    H     H_    0.387807 0.400219 0.780450 0.192083
H10   H     H_    0.612193 0.599781 0.219550 0.192084
N1    N     N_R   0.523180 0.519350 0.790130 -0.199256
N2    N     N_R   0.476820 0.480650 0.209870 -0.199257
O1    O     O_R   0.506570 0.354460 0.582000 -0.595183
O2    O     O_R   0.493430 0.645540 0.418000 -0.595183
O3    O     O_R   0.490940 0.341410 0.386200 -0.567985
O4    O     O_R   0.509060 0.658590 0.613800 -0.567984
O5    O     O_R   0.327470 0.506520 0.597900 -0.555793
O6    O     O_R   0.672530 0.493480 0.402100 -0.555794
O7    O     O_R   0.311840 0.493460 0.402100 -0.612115
O8    O     O_R   0.688160 0.506540 0.597900 -0.612116
Br1   Br    Br    0.268531 0.294688 0.913590 -0.497967
Br2   Br    Br    0.731468 0.705313 0.086410 -0.497967
Br3   Br    Br    0.250780 0.715707 0.711919 -0.489955
Br4   Br    Br    0.749221 0.284292 0.288081 -0.489955
C37   C     C_3   0.159879 0.645637 0.934456 -0.721676
H11   H     H_    0.117629 0.625343 0.010205 0.211046
H12   H     H_    0.259182 0.623476 0.940633 0.242803
H13   H     H_    0.155439 0.731599 0.940769 0.277004
C38   C     C_3   0.840121 0.354363 0.065545 -0.721666
H14   H     H_    0.882363 0.374667 0.989795 0.211042
H15   H     H_    0.844573 0.268402 0.059228 0.277001
H16   H     H_    0.740814 0.376517 0.059372 0.242807
Br5   Br    Br    0.475222 0.931736 0.186498 -0.408299
Br6   Br    Br    0.524778 0.068263 0.813502 -0.408299
C39   C     C_3   0.688934 0.668030 0.819181 -0.679980
H17   H     H_    0.787467 0.661099 0.854213 0.223464
H18   H     H_    0.691187 0.657788 0.725532 0.252633
H19   H     H_    0.660550 0.749291 0.849837 0.243409
C40   C     C_3   0.311065 0.331970 0.180819 -0.679980
H20   H     H_    0.212532 0.338902 0.145788 0.223464
H21   H     H_    0.339449 0.250709 0.150163 0.243409
H22   H     H_    0.308813 0.342212 0.274468 0.252633

loop_
_geom_bond_atom_site_label_1
_geom_bond_atom_site_label_2
_ccdc_geom_bond_type
C37   H12   S    
C27   C29   A    
C39   H17   S    
C19   C20   A    
C17   H10   S    
C18   H9    S    
C21   C36   S    
C40   H20   S    
C6    Br6   S    
C22   C35   S    
C26   C38   S    
C32   C36   A    
C24   C26   A    
Cu1   O1    S    
Cu2   O2    S    
C33   C36   A    
C34   C35   A    
C25   C37   S    
C15   N2    A    
C1    O3    A    
C8    H7    S    
C23   C33   A    
C31   C33   A    
C14   C16   A    
Cu1   O8    S    
C37   H13   S    
C39   H18   S    
C4    C7    A    
C10   C12   A    
C40   H21   S    
C38   H14   S    
C7    H8    S    
C16   N1    A    
C5    C12   A    
C3    C8    A    
C2    O4    A    
C6    C11   A    
C5    C7    A    
C6    C8    A    
C28   H1    S    
C24   C34   A    
C16   C39   S    
C38   H15   S    
C32   C34   A    
C21   O7    A    
Cu1   Cu2   S    
Cu2   O7    S    
Cu1   N1    S    
C13   C15   A    
C27   H2    S    
C1    O1    A    
C2    O2    A    
Cu2   N2    S    
Cu1   O4    S    
C9    C11   A    
C39   H19   S    
C31   C35   A    
C21   O5    A    
C40   H22   S    
C9    H6    S    
C24   Br4   S    
C13   C20   A    
C29   H3    S    
C10   H5    S    
C14   C19   A    
C17   N2    A    
C22   O8    A    
C22   O6    A    
C11   C12   A    
C13   Br1   S    
C25   C27   A    
C14   Br2   S    
C26   C28   A    
C1    C4    S    
C38   H16   S    
C28   C30   A    
C2    C3    S    
C5    Br5   S    
C3    C10   A    
C30   C32   A    
C15   C40   S    
Cu2   O3    S    
C17   C19   A    
C18   C20   A    
C23   C25   A    
C37   H11   S    
Cu1   O5    S    
C23   Br3   S    
Cu2   O6    S    
C29   C31   A    
C30   H4    S    
C4    C9    A    
C18   N1    A    
