data_mof_unit_3183.cif
_audit_creation_date              2012-12-11T16:37:26-0500
_audit_creation_method            fapswitch 2.2
_symmetry_space_group_name_H-M    P1
_symmetry_Int_Tables_number       1
_space_group_crystal_system       triclinic
_cell_length_a                    19.33136
_cell_length_b                    6.966352
_cell_length_c                    17.970093
_cell_angle_alpha                 89.911301
_cell_angle_beta                  108.842351
_cell_angle_gamma                 89.688394
_cell_volume                      2290.28096166

loop_
_atom_site_label
_atom_site_type_symbol
_atom_type_description
_atom_site_fract_x
_atom_site_fract_y
_atom_site_fract_z
_atom_type_partial_charge
O1    O     O_R   0.561710 0.369960 0.440200 -0.511749
O2    O     O_R   0.061710 0.630040 0.940200 -0.520352
O3    O     O_R   0.412630 0.033330 0.406330 -0.544256
O4    O     O_R   0.912630 0.966670 0.906330 -0.536549
O5    O     O_R   0.438290 0.869790 0.559800 -0.537711
O6    O     O_R   0.938290 0.130210 0.059800 -0.531072
C1    C     C_R   0.384966 0.203645 0.383624 0.746742
C2    C     C_R   0.883052 0.797221 0.885406 0.719279
O7    O     O_R   0.559570 0.039810 0.430640 -0.557362
O8    O     O_R   0.059570 0.960190 0.930640 -0.541066
O9    O     O_R   0.586280 0.876320 0.584290 -0.556304
O10   O     O_R   0.086280 0.123680 0.084290 -0.507098
C3    C     C_R   0.582973 0.208470 0.417721 0.696155
C4    C     C_R   0.081323 0.790922 0.916407 0.788309
O11   O     O_R   0.413720 0.363440 0.415710 -0.541976
O12   O     O_R   0.913720 0.636560 0.915710 -0.558524
O13   O     O_3   0.508590 0.205630 0.550380 -0.360853
O14   O     O_3   0.008590 0.794370 0.050380 -0.345683
V1    V     V_3+5 0.498410 0.928130 0.490650 1.459933
V2    V     V_3+5 0.998410 0.071870 0.990650 1.564917
O15   O     O_R   0.587370 0.546990 0.593670 -0.528389
O16   O     O_R   0.087370 0.453010 0.093670 -0.527994
C5    C     C_R   0.618656 0.715439 0.612261 0.750761
C6    C     C_R   0.115362 0.282921 0.116233 0.768753
O17   O     O_R   0.440430 0.540520 0.569360 -0.514332
O18   O     O_R   0.940430 0.459480 0.069360 -0.534084
C7    C     C_R   0.420494 0.709366 0.586412 0.736505
C8    C     C_R   0.920171 0.291451 0.085766 0.676503
V3    V     V_3+5 0.501590 0.428960 0.509350 1.530368
V4    V     V_3+5 0.001590 0.571040 0.009350 1.558735
O19   O     O_3   0.491410 0.701330 0.449620 -0.370712
O20   O     O_3   0.991410 0.298670 0.949620 -0.382537
C9    C     C_R   0.285442 0.906042 0.682007 -0.054271
C10   C     C_R   0.833610 0.089336 0.229982 -0.047877
H1    H     H_    0.258738 0.042435 0.683101 0.166581
H2    H     H_    0.834049 0.949356 0.254706 0.187952
C11   C     C_R   0.332501 0.890345 0.637141 -0.168278
C12   C     C_R   0.876456 0.111039 0.181182 -0.158702
H3    H     H_    0.337444 0.012491 0.601951 0.187531
H4    H     H_    0.910629 0.991887 0.175749 0.191125
C13   C     C_R   0.372269 0.720287 0.637038 -0.133553
C14   C     C_R   0.875682 0.281800 0.139752 -0.143692
C15   C     C_R   0.363324 0.564883 0.684266 0.251586
C16   C     C_R   0.832296 0.436101 0.151381 0.229805
C17   C     C_R   0.313191 0.578931 0.725721 -0.155599
C18   C     C_R   0.791219 0.414930 0.202338 -0.134798
H5    H     H_    0.306018 0.456162 0.759495 0.153347
H6    H     H_    0.756598 0.534083 0.206370 0.148716
C19   C     C_R   0.273316 0.748621 0.725057 0.065593
C20   C     C_R   0.791884 0.242979 0.244267 0.058215
C21   C     C_R   0.244676 0.682929 0.849263 -0.199113
C22   C     C_R   0.724296 0.394012 0.328807 -0.153764
H7    H     H_    0.298083 0.616499 0.873245 0.162736
H8    H     H_    0.749069 0.528317 0.323989 0.191564
C23   C     C_R   0.198860 0.687666 0.895813 0.251825
C24   C     C_R   0.677681 0.386182 0.374096 0.286369
C25   C     C_R   0.130371 0.780350 0.868024 -0.148082
C26   C     C_R   0.638889 0.216932 0.376282 -0.184035
C27   C     C_R   0.108069 0.861235 0.792393 -0.207443
C28   C     C_R   0.663202 0.048511 0.349117 -0.227303
H9    H     H_    0.054609 0.928244 0.769622 0.167631
H10   H     H_    0.641966 0.912003 0.359237 0.195793
C29   C     C_R   0.152350 0.848640 0.744091 0.306533
C30   C     C_R   0.724719 0.052039 0.323498 0.271926
C31   C     C_R   0.222625 0.762294 0.772903 -0.013801
C32   C     C_R   0.745817 0.227349 0.298102 0.013532
C33   C     C_R   0.764070 0.626706 0.810963 -0.092693
C34   C     C_R   0.263795 0.357418 0.312090 0.001559
C35   C     C_R   0.812776 0.782690 0.818564 -0.156182
C36   C     C_R   0.317491 0.220547 0.315034 -0.131324
C37   C     C_R   0.801503 0.902532 0.752750 -0.080022
C38   C     C_R   0.304362 0.104369 0.247592 -0.252998
H11   H     H_    0.843493 0.005284 0.753128 0.154120
H12   H     H_    0.344263 0.995786 0.246455 0.134489
C39   C     C_R   0.745145 0.870019 0.680940 0.527074
C40   C     C_R   0.240141 0.130629 0.180357 0.529713
C41   C     C_R   0.690183 0.730311 0.677849 -0.162614
C42   C     C_R   0.184722 0.264783 0.182770 -0.131722
C43   C     C_R   0.706027 0.598584 0.739931 -0.126680
C44   C     C_R   0.199512 0.372822 0.251491 -0.105395
C45   C     C_3   0.733650 0.396753 0.735456 0.563443
C46   C     C_3   0.168510 0.516236 0.295014 0.534974
C47   C     C_3   0.786304 0.416763 0.817925 0.253728
C48   C     C_3   0.243339 0.503370 0.361647 0.291345
H13   H     H_    0.844219 0.388265 0.822808 0.106683
H14   H     H_    0.279155 0.631906 0.369558 0.048351
O21   O     O_3   0.764263 0.916013 0.615066 -0.523278
C49   C     C_3   0.711048 0.026404 0.560183 0.007421
H15   H     H_    0.678443 0.120129 0.586452 0.141431
H16   H     H_    0.675759 0.930599 0.515850 0.154888
H17   H     H_    0.738870 0.119940 0.528860 0.201593
O22   O     O_3   0.229024 0.019908 0.113470 -0.531171
C50   C     C_3   0.287682 0.042865 0.083613 -0.155163
H18   H     H_    0.268423 0.005214 0.020310 0.188784
H19   H     H_    0.333194 0.943307 0.113793 0.146654
H20   H     H_    0.307711 0.193524 0.087856 0.142839
Br1   Br    Br    0.789851 0.384450 0.662366 -0.511751
Br2   Br    Br    0.150711 0.771589 0.248012 -0.556943
O23   O     O_3   0.683625 0.240917 0.724505 -0.559521
C51   C     C_3   0.621776 0.277913 0.748292 -0.072942
H21   H     H_    0.634267 0.359777 0.803893 0.147790
H22   H     H_    0.598454 0.138363 0.757689 0.161739
H23   H     H_    0.579086 0.354739 0.701603 0.170816
O24   O     O_3   0.112006 0.445306 0.321875 -0.521310
C52   C     C_3   0.047949 0.405619 0.259271 -0.079157
H24   H     H_    0.053351 0.265978 0.232042 0.104093
H25   H     H_    0.032798 0.522309 0.214713 0.152430
H26   H     H_    0.002168 0.391594 0.283426 0.172481
O25   O     O_3   0.763443 0.300270 0.870534 -0.548137
C53   C     C_3   0.767266 0.397073 0.940091 -0.159068
H27   H     H_    0.720013 0.496658 0.930002 0.160527
H28   H     H_    0.819024 0.476365 0.963125 0.173164
H29   H     H_    0.764368 0.289807 0.984597 0.168048
O26   O     O_3   0.239879 0.419352 0.431982 -0.532429
C54   C     C_3   0.224975 0.563824 0.479648 -0.038982
H30   H     H_    0.169096 0.624231 0.452742 0.195931
H31   H     H_    0.265701 0.681232 0.491063 0.075186
H32   H     H_    0.227871 0.499569 0.537104 0.164002
Br3   Br    Br    0.420536 0.333252 0.700523 -0.620962
Br4   Br    Br    0.822378 0.678698 0.098262 -0.643548
Br5   Br    Br    0.233187 0.569294 0.997897 -0.588965
Br6   Br    Br    0.686262 0.588136 0.447933 -0.498355
Br7   Br    Br    0.109937 0.934475 0.637229 -0.465250
Br8   Br    Br    0.799742 0.873252 0.377725 -0.475141

loop_
_geom_bond_atom_site_label_1
_geom_bond_atom_site_label_2
_ccdc_geom_bond_type
C34   C44   A    
C12   H4    S    
O21   C49   S    
C23   Br5   S    
C33   C47   S    
C50   H18   S    
C46   Br2   S    
O4    C2    A    
V1    O19   S    
C1    C36   S    
C29   C31   A    
O26   C54   S    
C52   H25   S    
O9    V1    S    
C2    C35   S    
C19   C31   S    
C40   C42   A    
C12   C14   A    
O3    C1    A    
C42   C44   A    
C25   C27   A    
C16   Br4   S    
C9    C19   A    
C54   H30   S    
O13   V3    S    
C28   H10   S    
C21   C31   A    
C8    C14   S    
C35   C37   A    
O7    C3    A    
C53   H27   S    
C51   H21   S    
C1    O11   A    
O5    C7    A    
O7    V1    S    
O6    C8    A    
O8    V2    S    
C54   H31   S    
C47   O25   S    
O3    V1    S    
O14   V4    S    
V4    O20   S    
C21   C23   A    
C38   C40   A    
C2    O12   A    
C17   H5    S    
C50   H19   S    
C13   C15   A    
C14   C16   A    
C51   H22   S    
O24   C52   S    
C45   C47   S    
C22   H8    S    
O11   V3    S    
C41   C43   A    
O17   V3    S    
C52   H26   S    
C18   H6    S    
C10   C20   A    
C27   H9    S    
C34   C48   S    
C33   C43   A    
C44   C46   S    
O8    C4    A    
C43   C45   S    
O13   V1    S    
C3    C26   S    
C45   O23   S    
C30   Br8   S    
O15   V3    S    
C51   H23   S    
C9    C11   A    
C33   C35   A    
C24   Br6   S    
C15   C17   A    
C7    C13   S    
O23   C51   S    
C49   H17   S    
C17   C19   A    
C54   H32   S    
O10   V2    S    
O1    V3    S    
C5    C41   S    
C20   C32   S    
C53   H29   S    
C40   O22   S    
C38   H12   S    
C47   H13   S    
C49   H16   S    
O18   V4    S    
C50   H20   S    
C46   C48   S    
C23   C25   A    
O16   C6    A    
O1    C3    A    
O12   V4    S    
C6    C42   S    
C22   C32   A    
C37   H11   S    
V2    O20   S    
C39   O21   S    
C4    C25   S    
C18   C20   A    
C48   O26   S    
O16   V4    S    
C10   C12   A    
O18   C8    A    
C48   H14   S    
C29   Br7   S    
O5    V1    S    
O17   C7    A    
O6    V2    S    
C52   H24   S    
O10   C6    A    
C27   C29   A    
C28   C30   A    
O2    V4    S    
O15   C5    A    
C11   H3    S    
O25   C53   S    
C37   C39   A    
C45   Br1   S    
O9    C5    A    
O22   C50   S    
C9    H1    S    
C10   H2    S    
C24   C26   A    
O14   V2    S    
C11   C13   A    
O2    C4    A    
C53   H28   S    
O4    V2    S    
C49   H15   S    
V3    O19   S    
C39   C41   A    
C15   Br3   S    
C34   C36   A    
C46   O24   S    
C36   C38   A    
C21   H7    S    
C26   C28   A    
C16   C18   A    
C22   C24   A    
C30   C32   A    
