data_mof_unit_4615.cif
_audit_creation_date              2012-12-11T16:23:58-0500
_audit_creation_method            fapswitch 2.2
_symmetry_space_group_name_H-M    P1
_symmetry_Int_Tables_number       1
_space_group_crystal_system       triclinic
_cell_length_a                    14.679175
_cell_length_b                    14.673825
_cell_length_c                    33.132646
_cell_angle_alpha                 96.276505
_cell_angle_beta                  96.41017
_cell_angle_gamma                 61.561247
_cell_volume                      6223.41725074

loop_
_atom_site_label
_atom_site_type_symbol
_atom_type_description
_atom_site_fract_x
_atom_site_fract_y
_atom_site_fract_z
_atom_type_partial_charge
Br1   Br    Br    0.739288 0.179304 0.404241 -0.403143
Br2   Br    Br    0.655902 0.634732 0.624486 -0.351068
Br3   Br    Br    0.777479 0.507990 0.921432 -0.344992
Br4   Br    Br    0.410374 0.560275 0.629546 -0.528126
Br5   Br    Br    0.156727 0.532730 0.404741 -0.335461
Br6   Br    Br    0.098030 0.497249 0.093097 -0.311454
Br7   Br    Br    0.844779 0.519301 0.433915 -0.290548
Br8   Br    Br    0.808563 0.510744 0.068548 -0.258477
Br9   Br    Br    0.771192 0.543516 0.165899 -0.268239
Br10  Br    Br    0.171715 0.795044 0.058551 -0.318189
Br11  Br    Br    0.149932 0.832573 0.307753 -0.345374
Br12  Br    Br    0.567503 0.779120 0.331174 -0.299223
Br13  Br    Br    0.523733 0.884383 0.173636 -0.305857
Br14  Br    Br    0.111808 0.508403 0.926207 -0.300993
Br15  Br    Br    0.736947 0.178229 0.681184 -0.431691
C1    C     C_R   0.389862 0.702606 0.446557 0.555756
C2    C     C_1   0.316360 0.348456 0.228698 0.044061
C3    C     C_1   0.319549 0.351071 0.265054 0.033257
C4    C     C_R   0.404703 0.385369 0.434271 0.556670
C5    C     C_R   0.293829 0.299398 0.101184 -0.006058
C6    C     C_R   0.765716 0.369024 0.411467 0.000620
C7    C     C_R   0.809942 0.426541 0.397413 0.147954
C8    C     C_R   0.833647 0.412740 0.356441 0.121277
C9    C     C_R   0.819438 0.337381 0.330561 -0.031911
C10   C     C_R   0.794880 0.268358 0.346475 -0.106204
C11   C     C_R   0.769023 0.282456 0.386625 0.119921
C12   C     C_R   0.330286 0.349427 0.308284 0.002483
C13   C     C_R   0.827528 0.324772 0.204635 0.356198
C14   C     C_R   0.824137 0.332809 0.286529 0.344704
C15   C     C_R   0.819506 0.405918 0.139317 0.179170
C16   C     C_R   0.703763 0.408415 0.448019 0.583606
C17   C     C_R   0.845910 0.390331 0.098604 0.166957
C18   C     C_R   0.894138 0.207097 0.098924 0.045322
C19   C     C_R   0.865472 0.223658 0.138734 -0.128284
C20   C     C_R   0.835274 0.319993 0.160264 -0.022639
C21   C     C_R   0.895310 0.288162 0.079853 -0.015006
C22   C     C_R   0.369194 0.760739 0.409518 -0.052916
C23   C     C_R   0.423027 0.276105 0.326488 -0.097004
C24   C     C_R   0.275866 0.788064 0.384557 0.095167
C25   C     C_R   0.273859 0.801803 0.343053 0.133513
C26   C     C_R   0.362335 0.793688 0.327047 -0.010558
C27   C     C_R   0.448299 0.784334 0.353149 0.133568
C28   C     C_R   0.393060 0.703018 0.560821 0.586585
C29   C     C_R   0.449951 0.772601 0.394784 0.077140
C30   C     C_R   0.365112 0.811895 0.202460 0.373742
C31   C     C_R   0.363053 0.799902 0.283239 0.402455
C32   C     C_R   0.288412 0.802092 0.132459 -0.103203
C33   C     C_R   0.261999 0.835946 0.092925 0.163663
C34   C     C_R   0.441846 0.282432 0.368410 -0.127042
C35   C     C_R   0.383030 0.906440 0.104400 -0.119828
C36   C     C_R   0.411405 0.870058 0.143234 0.171942
C37   C     C_R   0.358178 0.824537 0.158637 0.007871
C38   C     C_R   0.303460 0.896195 0.079799 -0.007592
C39   C     C_R   0.362787 0.361702 0.581607 0.013816
C40   C     C_R   0.404961 0.386574 0.547844 0.574912
C41   C     C_R   0.263218 0.433036 0.595579 0.099027
C42   C     C_R   0.240367 0.428629 0.635432 0.114321
C43   C     C_R   0.313776 0.349589 0.659825 -0.006681
C44   C     C_R   0.401885 0.269147 0.642935 -0.105107
C45   C     C_R   0.396106 0.253800 0.165811 0.104244
C46   C     C_R   0.426508 0.273229 0.604119 0.080553
C47   C     C_R   0.299567 0.346225 0.784683 0.352392
C48   C     C_R   0.302991 0.350019 0.703349 0.362034
C49   C     C_R   0.219582 0.417938 0.852396 0.117486
C50   C     C_R   0.215996 0.400215 0.893164 0.162474
C51   C     C_R   0.373784 0.235708 0.886594 -0.166019
C52   C     C_R   0.655989 0.439249 0.566403 0.579662
C53   C     C_R   0.378229 0.253860 0.846883 -0.151014
C54   C     C_R   0.299405 0.341732 0.828795 0.004942
C55   C     C_R   0.289246 0.304158 0.909243 0.002968
C56   C     C_R   0.384707 0.234256 0.123974 -0.123993
C57   C     C_R   0.681643 0.422170 0.610588 -0.015900
C58   C     C_R   0.682335 0.500501 0.639854 0.177919
C59   C     C_R   0.700206 0.481827 0.681617 0.108667
C60   C     C_R   0.717410 0.386007 0.694113 0.020629
C61   C     C_R   0.715297 0.309575 0.665393 0.155062
C62   C     C_R   0.697170 0.327962 0.624236 -0.103945
C63   C     C_R   0.873072 0.224802 0.823269 -0.104160
C64   C     C_R   0.368688 0.363386 0.392713 0.018388
C65   C     C_R   0.919370 0.206559 0.862639 -0.149874
C66   C     C_R   0.821364 0.390631 0.882465 0.170040
C67   C     C_R   0.218927 0.392120 0.120671 0.152098
C68   C     C_R   0.775292 0.408067 0.842857 -0.064369
C69   C     C_R   0.802808 0.325796 0.813162 0.003689
C70   C     C_1   0.767305 0.346418 0.771510 0.041462
C71   C     C_1   0.742334 0.364277 0.736310 0.079560
C72   C     C_R   0.896709 0.289238 0.892325 0.025962
C73   C     C_R   0.376646 0.756994 0.601480 0.063937
C74   C     C_R   0.380468 0.702852 0.634776 0.145980
C75   C     C_R   0.365503 0.751697 0.673630 -0.052591
C76   C     C_R   0.269971 0.430459 0.374416 0.159364
C77   C     C_R   0.346815 0.854384 0.680188 -0.004187
C78   C     C_R   0.230086 0.409836 0.162718 -0.090550
C79   C     C_R   0.344758 0.908782 0.647605 -0.068621
C80   C     C_R   0.360367 0.860155 0.608186 0.068659
C81   C     C_R   0.336158 0.997694 0.824944 -0.100108
C82   C     C_R   0.318652 0.011951 0.866265 -0.143895
C83   C     C_R   0.201187 0.936625 0.853423 0.079639
C84   C     C_R   0.219533 0.923004 0.812121 -0.087263
C85   C     C_R   0.286364 0.953359 0.797843 0.017458
C86   C     C_1   0.308970 0.930075 0.755764 0.018008
C87   C     C_1   0.326772 0.901358 0.720743 0.019797
C88   C     C_R   0.252120 0.423602 0.332109 -0.061753
C89   C     C_R   0.315763 0.338850 0.185361 0.005893
C90   C     C_R   0.251355 0.982062 0.881372 0.014479
C91   C     C_R   0.959928 0.265709 0.044828 0.568009
C92   C     C_R   0.273285 0.260898 0.059828 0.559022
C93   C     C_R   0.260488 0.957663 0.043417 0.582152
C94   C     C_R   0.959830 0.268490 0.931348 0.549636
C95   C     C_R   0.271112 0.264992 0.945421 0.547153
C96   C     C_R   0.231114 0.007445 0.925233 0.546139
Cr1   Cr    Cr6+3 0.576280 0.580550 0.506370 1.156280
Cr2   Cr    Cr6+3 0.346780 0.572400 0.496520 1.146698
Cr3   Cr    Cr6+3 0.576960 0.347070 0.497150 1.123160
Cr4   Cr    Cr6+3 0.087320 0.083240 0.984860 1.120761
Cr5   Cr    Cr6+3 0.087720 0.316210 0.996740 1.182751
Cr6   Cr    Cr6+3 0.317350 0.090340 0.995890 1.061802
H1    H     H_    0.444811 0.164530 0.109825 0.175099
H2    H     H_    0.977155 0.128359 0.869276 0.153492
H3    H     H_    0.895268 0.160755 0.800328 0.160174
H4    H     H_    0.695039 0.267571 0.602884 0.196027
H5    H     H_    0.720233 0.486316 0.834953 0.166280
H6    H     H_    0.516981 0.227841 0.381339 0.199349
H7    H     H_    0.357671 0.047183 0.886559 0.141461
H8    H     H_    0.389057 0.020465 0.814264 0.142624
H9    H     H_    0.330513 0.988524 0.652699 0.157975
H10   H     H_    0.182488 0.886867 0.790999 0.153390
H11   H     H_    0.368110 0.709190 0.698902 0.168259
H12   H     H_    0.790196 0.206307 0.326892 0.189015
H13   H     H_    0.169779 0.477337 0.177967 0.174528
H14   H     H_    0.178679 0.478100 0.317784 0.174641
H15   H     H_    0.870273 0.159063 0.153538 0.185075
H16   H     H_    0.250507 0.762554 0.143324 0.182497
H17   H     H_    0.420597 0.947278 0.094351 0.174081
H18   H     H_    0.454951 0.204587 0.660883 0.181979
H19   H     H_    0.483087 0.217096 0.308109 0.174564
H20   H     H_    0.433583 0.163706 0.898482 0.157147
H21   H     H_    0.441415 0.196103 0.829480 0.154224
I1    I     I_    0.893216 0.503343 0.333468 -0.060016
I2    I     I_    0.700157 0.598482 0.726642 -0.212620
I3    I     I_    0.356911 0.945911 0.560009 -0.225389
I4    I     I_    0.100207 0.880434 0.868468 -0.203255
I5    I     I_    0.931365 0.056659 0.071518 -0.159041
I6    I     I_    0.133300 0.820460 0.409107 -0.045758
I7    I     I_    0.570189 0.784327 0.434811 -0.056218
I8    I     I_    0.533169 0.148930 0.198323 -0.210957
I9    I     I_    0.143065 0.542503 0.556436 -0.090256
I10   I     I_    0.560997 0.138542 0.583651 -0.159901
I11   I     I_    0.094339 0.537793 0.658880 -0.122652
I12   I     I_    0.096864 0.553375 0.825734 -0.110074
N1    N     N_R   0.763037 0.413563 0.225291 -0.133192
N2    N     N_R   0.370316 0.879410 0.269343 -0.142587
N3    N     N_R   0.370930 0.885392 0.229672 -0.143412
N4    N     N_R   0.282692 0.434108 0.768281 -0.167837
N5    N     N_R   0.284491 0.435917 0.728308 -0.160393
N6    N     N_R   0.322224 0.261492 0.719846 -0.217338
N7    N     N_R   0.320131 0.259799 0.759766 -0.224300
N8    N     N_R   0.761374 0.417622 0.265499 -0.159329
N9    N     N_R   0.886234 0.242842 0.265958 -0.181301
N10   N     N_R   0.888304 0.239183 0.225762 -0.203819
N11   N     N_R   0.356199 0.733040 0.216361 -0.195487
N12   N     N_R   0.355776 0.726845 0.256145 -0.165558
O1    O     O_R   0.679450 0.499830 0.463150 -0.458097
O2    O     O_R   0.340240 0.172500 0.045430 -0.517453
O3    O     O_R   0.309670 0.000990 0.032050 -0.504165
O4    O     O_R   0.480650 0.664000 0.464630 -0.480519
O5    O     O_R   0.168330 0.982130 0.939200 -0.455611
O6    O     O_R   0.000140 0.178170 0.944610 -0.523602
O7    O     O_R   0.983010 0.336750 0.948660 -0.437978
O8    O     O_R   0.181800 0.312190 0.959860 -0.453275
O9    O     O_R   0.338500 0.175680 0.956950 -0.530066
O10   O     O_R   0.308050 0.003930 0.950020 -0.482706
O11   O     O_3   0.164130 0.163270 0.992500 -0.309332
O12   O     O_R   0.356040 0.477400 0.534170 -0.460151
O13   O     O_R   0.323930 0.675950 0.455370 -0.468154
O14   O     O_R   0.354700 0.475360 0.451930 -0.459003
O15   O     O_R   0.494470 0.320860 0.448390 -0.489224
O16   O     O_R   0.662580 0.357570 0.460050 -0.454936
O17   O     O_R   0.680900 0.502040 0.551870 -0.435577
O18   O     O_R   0.481990 0.666040 0.546870 -0.473563
O19   O     O_R   0.325370 0.678160 0.544080 -0.465280
O20   O     O_R   0.495910 0.323070 0.537100 -0.488111
O21   O     O_R   0.663920 0.359620 0.542290 -0.494489
O22   O     O_3   0.500010 0.500010 0.500010 -0.312621
O23   O     O_R   0.170070 0.978950 0.027680 -0.435372
O24   O     O_R   0.001760 0.175230 0.026640 -0.479335
O25   O     O_R   0.984760 0.333570 0.037150 -0.439802
O26   O     O_R   0.183410 0.309240 0.041890 -0.444342

loop_
_geom_bond_atom_site_label_1
_geom_bond_atom_site_label_2
_ccdc_geom_bond_type
C31   N2    A    
C6    C11   A    
C86   C87   T    
Br6   C67   S    
C5    C67   A    
C58   C59   A    
C53   H21   S    
C38   C93   S    
C93   O3    A    
C10   H12   S    
N11   N12   A    
Cr1   O22   S    
C23   C34   A    
C70   C71   T    
C18   I5    S    
Cr5   O26   S    
C83   C90   A    
C27   C29   A    
Cr5   O11   S    
C28   C73   S    
C17   C21   A    
C8    I1    S    
N6    N7    A    
C46   I10   S    
C91   O25   A    
C96   O10   A    
C65   C72   A    
N9    N10   A    
Cr4   O23   S    
C63   C65   A    
Cr2   O22   S    
C51   C53   A    
C12   C23   A    
C50   C55   A    
C34   H6    S    
C13   N10   A    
C18   C21   A    
C41   C42   A    
C2    C3    T    
C19   C20   A    
C26   C27   A    
C44   H18   S    
C30   N11   A    
C4    O14   A    
Br12  C27   S    
C55   C95   S    
Br13  C36   S    
Br14  C50   S    
Cr2   O19   S    
C32   C33   A    
C13   C20   S    
Cr6   O3    S    
C53   C54   A    
Cr3   O16   S    
C42   I11   S    
Br3   C66   S    
C8    C9    A    
C5    C56   A    
C23   H19   S    
C15   C17   A    
C4    O15   A    
C64   C76   A    
C77   C87   S    
C1    C22   S    
Cr2   O13   S    
C5    C92   S    
C82   C90   A    
C95   O9    A    
Br15  C61   S    
C90   C96   S    
C65   H2    S    
C19   H15   S    
C67   C78   A    
C6    C7    A    
C83   I4    S    
C24   I6    S    
C79   C80   A    
C45   I8    S    
C78   C89   A    
C66   C68   A    
C94   O7    A    
C29   I7    S    
C39   C41   A    
C61   C62   A    
C79   H9    S    
Cr6   O2    S    
C33   C38   A    
Cr5   O25   S    
C16   O1    A    
C28   O18   A    
C44   C46   A    
C35   C38   A    
C59   C60   A    
C16   O16   A    
C21   C91   S    
C36   C37   A    
Br8   C17   S    
N1    N8    A    
C93   O23   A    
C52   C57   S    
C9    C10   A    
C91   O24   A    
C14   N9    A    
C35   H17   S    
C1    O4    A    
C24   C25   A    
Cr4   O24   S    
C84   H10   S    
C30   C37   S    
C43   C44   A    
Cr3   O20   S    
C59   I2    S    
C92   O26   A    
C28   O19   A    
C47   N4    A    
C47   C54   S    
C49   I12   S    
C32   C37   A    
C63   H3    S    
C60   C61   A    
C40   O12   A    
C57   C62   A    
C94   O6    A    
C63   C69   A    
C6    C16   S    
Cr6   O9    S    
C60   C71   S    
C75   C77   A    
C68   C69   A    
C26   C31   S    
Cr3   O15   S    
Cr1   O4    S    
C81   C82   A    
C77   C79   A    
C35   C36   A    
C47   N7    A    
Cr5   O8    S    
Br5   C76   S    
C49   C54   A    
C69   C70   S    
C4    C64   S    
N4    N5    A    
C66   C72   A    
Br2   C58   S    
C52   O21   A    
Br9   C15   S    
Cr2   O14   S    
C15   C20   A    
C1    O13   A    
C25   C26   A    
C80   I3    S    
Cr1   O17   S    
Br10  C33   S    
Br1   C11   S    
C30   N3    A    
Cr4   O5    S    
C78   H13   S    
C74   C75   A    
C95   O8    A    
Br4   C74   S    
Cr6   O11   S    
C43   C48   S    
Cr1   O1    S    
C39   C40   S    
C56   H1    S    
C2    C89   S    
C3    C12   S    
C76   C88   A    
C57   C58   A    
C48   N6    A    
C14   N8    A    
C72   C94   S    
C39   C46   A    
C82   H7    S    
Br7   C7    S    
C45   C56   A    
C84   C85   A    
Cr1   O18   S    
C49   C50   A    
C41   I9    S    
C10   C11   A    
C48   N5    A    
C22   C24   A    
C52   O17   A    
C92   O2    A    
Cr6   O10   S    
C42   C43   A    
C51   C55   A    
C51   H20   S    
Cr5   O7    S    
C22   C29   A    
Cr3   O22   S    
C81   C85   A    
C12   C88   A    
C85   C86   S    
C40   O20   A    
C18   C19   A    
C81   H8    S    
C68   H5    S    
Br11  C25   S    
C73   C80   A    
C62   H4    S    
C34   C64   A    
C9    C14   S    
C96   O5    A    
C73   C74   A    
C13   N1    A    
Cr4   O11   S    
C83   C84   A    
C31   N12   A    
C75   H11   S    
C7    C8    A    
N2    N3    A    
Cr4   O6    S    
C45   C89   A    
C88   H14   S    
C32   H16   S    
Cr3   O21   S    
Cr2   O12   S    
