data_mof_unit_2491.cif
_audit_creation_date              2012-12-10T19:12:18-0500
_audit_creation_method            fapswitch 2.2
_symmetry_space_group_name_H-M    P1
_symmetry_Int_Tables_number       1
_space_group_crystal_system       triclinic
_cell_length_a                    7.765636
_cell_length_b                    9.096844
_cell_length_c                    17.15826
_cell_angle_alpha                 89.584282
_cell_angle_beta                  92.274458
_cell_angle_gamma                 90.000636
_cell_volume                      1211.1203323

loop_
_atom_site_label
_atom_site_type_symbol
_atom_type_description
_atom_site_fract_x
_atom_site_fract_y
_atom_site_fract_z
_atom_type_partial_charge
C1    C     C_R   0.499984 0.219946 0.500024 0.842034
C2    C     C_R   0.500016 0.780054 0.499976 0.842035
C3    C     C_R   0.518641 0.503451 0.651354 0.806476
C4    C     C_R   0.481360 0.496552 0.348648 0.806450
C5    C     C_R   0.518195 0.521640 0.736780 -0.131939
C6    C     C_R   0.481796 0.478391 0.263220 -0.131983
C7    C     C_R   0.366023 0.578089 0.767154 -0.238989
C8    C     C_R   0.633935 0.421930 0.232825 -0.238901
C9    C     C_R   0.342364 0.585209 0.847187 -0.056861
C10   C     C_R   0.657533 0.414804 0.152788 -0.056849
C11   C     C_R   0.475212 0.534943 0.898803 0.292874
C12   C     C_R   0.524662 0.465102 0.101194 0.292896
C13   C     C_R   0.631668 0.485065 0.868961 -0.184609
C14   C     C_R   0.368247 0.515018 0.131058 -0.184634
C15   C     C_R   0.655788 0.479365 0.788724 -0.061361
C16   C     C_R   0.344194 0.520699 0.211298 -0.061202
C17   C     C_1   0.499997 0.065349 0.500007 -0.149881
C18   C     C_1   0.500003 0.934651 0.499993 -0.149875
Cu1   Cu    Cu3+1 0.669080 0.500010 0.500000 1.058029
Cu2   Cu    Cu3+1 0.330920 0.499990 0.500000 1.058005
H1    H     H_    0.738026 0.385571 0.272264 0.232576
H2    H     H_    0.261948 0.614432 0.727700 0.232557
H3    H     H_    0.737329 0.452416 0.908473 0.228571
H4    H     H_    0.262570 0.547707 0.091564 0.228381
N1    N     N_1   0.076820 0.499970 0.500010 -0.014568
N2    N     N_1   0.923180 0.500030 0.499990 -0.014548
N3    N     N_2   0.450631 0.540752 0.980166 -0.188829
N4    N     N_2   0.549199 0.459292 0.019827 -0.188855
O1    O     O_R   0.642760 0.288400 0.500000 -0.579611
O2    O     O_R   0.357240 0.711600 0.500000 -0.579617
O3    O     O_R   0.357190 0.288380 0.500000 -0.574502
O4    O     O_R   0.642810 0.711620 0.500000 -0.574517
O5    O     O_R   0.658410 0.498660 0.613920 -0.545144
O6    O     O_R   0.341590 0.501340 0.386080 -0.545266
O7    O     O_R   0.372840 0.498650 0.613930 -0.586108
O8    O     O_R   0.627160 0.501350 0.386070 -0.586087
C19   C     C_2   0.824601 0.357607 0.125344 0.885205
O9    O     O_2   0.871206 0.385682 0.059644 -0.554068
O10   O     O_R   0.930774 0.272392 0.175579 -0.738631
H5    H     H_    0.041703 0.241837 0.150965 0.347398
C20   C     C_2   0.175256 0.642369 0.874604 0.885185
O11   O     O_2   0.128600 0.614273 0.940292 -0.554060
O12   O     O_R   0.069092 0.727568 0.824354 -0.738690
H6    H     H_    0.958129 0.758094 0.848954 0.347345
C21   C     C_2   0.824952 0.426450 0.763395 0.868644
O13   O     O_2   0.907261 0.498746 0.717506 -0.558009
O14   O     O_R   0.895902 0.298301 0.796692 -0.739726
H7    H     H_    0.014036 0.275297 0.776765 0.341191
C22   C     C_2   0.175093 0.573624 0.236671 0.868671
O15   O     O_2   0.092634 0.501139 0.282425 -0.558037
O16   O     O_R   0.104391 0.702049 0.203585 -0.739754
H8    H     H_    0.986278 0.725067 0.223537 0.341191

loop_
_geom_bond_atom_site_label_1
_geom_bond_atom_site_label_2
_ccdc_geom_bond_type
O12   H6    S    
C4    O8    A    
C19   O9    D    
C3    O7    A    
C2    C18   S    
C7    H2    S    
C20   O12   S    
C20   O11   D    
C9    C20   S    
Cu1   Cu2   S    
C11   N3    S    
C2    O2    A    
Cu2   O6    S    
C1    O1    A    
C17   C18   T    
C19   O10   S    
Cu2   O2    S    
C21   O13   D    
C11   C13   A    
C9    C11   A    
C10   C12   A    
C12   N4    S    
C10   C19   S    
Cu1   O4    S    
C8    C10   A    
C12   C14   A    
C8    H1    S    
C4    O6    A    
Cu1   O8    S    
C13   C15   A    
C14   C16   A    
C5    C15   A    
C4    C6    S    
Cu2   N1    S    
C3    O5    A    
O10   H5    S    
C6    C16   A    
O16   H8    S    
Cu1   O1    S    
C7    C9    A    
C1    O3    A    
C16   C22   S    
C13   H3    S    
C2    O4    A    
C22   O15   D    
Cu1   O5    S    
C21   O14   S    
C14   H4    S    
N3    N4    D    
C5    C7    A    
Cu1   N2    S    
C15   C21   S    
C6    C8    A    
C22   O16   S    
N1    N2    T    
Cu2   O7    S    
C1    C17   S    
O14   H7    S    
C3    C5    S    
Cu2   O3    S    
