data_mof_unit_1785.cif
_audit_creation_date              2013-03-05T15:44:19-0500
_audit_creation_method            fapswitch 2.2
_symmetry_space_group_name_H-M    P1
_symmetry_Int_Tables_number       1
_space_group_crystal_system       triclinic
_cell_length_a                    23.568003
_cell_length_b                    10.978851
_cell_length_c                    9.681054
_cell_angle_alpha                 90.189464
_cell_angle_beta                  90.173628
_cell_angle_gamma                 90.665602
_cell_volume                      2504.77426931

loop_
_atom_site_label
_atom_site_type_symbol
_atom_site_description
_atom_site_fract_x
_atom_site_fract_y
_atom_site_fract_z
_atom_type_partial_charge
O1    O     O_R   0.500010 0.321960 0.617040 -0.575484
O2    O     O_R   0.499990 0.321920 0.382900 -0.554390
C1    C     C_R   0.498683 0.265577 0.499819 0.845758
O3    O     O_R   0.417890 0.499980 0.617100 -0.593483
O4    O     O_R   0.417870 0.499940 0.382950 -0.510934
C2    C     C_R   0.391114 0.502247 0.499874 0.900732
Cu1   Cu    Cu3+1 0.500010 0.500020 0.638630 1.024183
Cu2   Cu    Cu3+1 0.499990 0.499980 0.361370 1.074993
O5    O     O_R   0.500010 0.678080 0.617100 -0.542714
O6    O     O_R   0.499990 0.678040 0.382960 -0.528282
O7    O     O_R   0.582130 0.500060 0.617050 -0.540419
O8    O     O_R   0.582110 0.500020 0.382900 -0.553016
C3    C     C_R   0.501945 0.735061 0.499942 0.813465
C4    C     C_R   0.609124 0.499418 0.500119 0.868855
C5    C     C_R   0.881598 0.614008 0.516710 0.726459
N1    N     N_R   0.852575 0.506694 0.498666 -0.422744
C6    C     C_R   0.880140 0.398935 0.482563 0.624351
C7    C     C_R   0.939722 0.396907 0.473512 -0.147766
C8    C     C_R   0.970625 0.505410 0.501619 -0.093558
C9    C     C_R   0.941440 0.615269 0.526994 -0.170411
C10   C     C_R   0.968992 0.289033 0.439935 0.401581
C11   C     C_R   0.028361 0.286076 0.449149 0.235280
C12   C     C_R   0.059703 0.394442 0.475419 -0.175503
C13   C     C_R   0.030661 0.503885 0.504038 -0.063798
C14   C     C_R   0.061701 0.611325 0.536757 -0.141471
C15   C     C_R   0.032400 0.721235 0.560539 0.240514
C16   C     C_R   0.972829 0.722895 0.557636 0.250751
C17   C     C_R   0.119521 0.398107 0.469774 0.714212
N2    N     N_R   0.148600 0.500714 0.508745 -0.441558
C18   C     C_R   0.121336 0.604221 0.547424 0.700982
O9    O     O_2   0.852257 0.718615 0.522625 -0.437328
O10   O     O_2   0.849620 0.294243 0.477131 -0.478340
O11   O     O_2   0.148764 0.301567 0.422950 -0.419978
O12   O     O_2   0.152300 0.698626 0.597521 -0.419719
C19   C     C_R   0.238264 0.566647 0.401471 0.249733
C20   C     C_R   0.298050 0.570332 0.399541 0.252873
C21   C     C_R   0.328742 0.505425 0.500348 -0.231453
C22   C     C_R   0.299736 0.441164 0.603524 -0.284403
H1    H     H_    0.323603 0.392637 0.681323 0.212391
C23   C     C_R   0.240479 0.438965 0.608676 0.357717
C24   C     C_R   0.209581 0.501058 0.505956 0.063363
C25   C     C_R   0.761487 0.470381 0.376843 0.266938
C26   C     C_R   0.701952 0.457735 0.382061 0.304833
C27   C     C_R   0.671985 0.498344 0.500137 -0.355460
C28   C     C_R   0.702615 0.540524 0.616946 0.297771
C29   C     C_R   0.762007 0.536701 0.617867 0.379996
C30   C     C_R   0.791486 0.506684 0.496783 0.003611
C31   C     C_2   0.497730 0.934878 0.387493 0.379579
C32   C     C_2   0.512217 0.866935 0.499418 0.096715
C33   C     C_2   0.507101 0.068318 0.389932 -0.217593
C34   C     C_2   0.492624 0.134493 0.500071 -0.242250
H2    H     H_    0.523159 0.112254 0.297330 0.183304
H3    H     H_    0.474908 0.091934 0.591674 0.182635
C35   C     C_2   0.460231 0.448971 0.921256 -0.086927
N3    N     N_2   0.499380 0.498660 0.846910 -0.295460
H4    H     H_    0.424229 0.406876 0.868932 0.190590
H5    H     H_    0.535323 0.531687 0.894798 0.213617
C36   C     C_2   0.462504 0.439944 0.076604 0.424112
N4    N     N_2   0.499370 0.498630 0.153040 -0.323785
H6    H     H_    0.526679 0.559109 0.106358 0.186841
O13   O     O_3   0.939950 0.183027 0.405077 -0.483948
C37   C     C_3   0.928034 0.185363 0.261987 -0.031487
H7    H     H_    0.898711 0.260402 0.235178 0.165728
H8    H     H_    0.906829 0.098275 0.232749 0.212558
H9    H     H_    0.967410 0.193935 0.199459 0.157254
O14   O     O_3   0.673117 0.413153 0.267509 -0.514674
C38   C     C_3   0.660374 0.288637 0.289379 -0.117371
H10   H     H_    0.639563 0.251464 0.195094 0.180955
H11   H     H_    0.630340 0.275575 0.376599 0.122669
H12   H     H_    0.699431 0.234974 0.308103 0.183702
O15   O     O_3   0.674817 0.580700 0.733876 -0.550192
C39   C     C_3   0.668714 0.708054 0.724526 -0.078019
H13   H     H_    0.644920 0.740066 0.816162 0.197411
H14   H     H_    0.643933 0.733884 0.631194 0.143585
H15   H     H_    0.710723 0.755418 0.724873 0.195198
O16   O     O_3   0.791631 0.571623 0.735213 -0.539382
C40   C     C_3   0.798499 0.468332 0.819429 -0.102615
H16   H     H_    0.822715 0.396034 0.765356 0.145762
H17   H     H_    0.756827 0.431724 0.855074 0.198964
H18   H     H_    0.823222 0.495606 0.912378 0.232267
O17   O     O_3   0.476501 0.876212 0.269358 -0.572217
C41   C     C_3   0.440251 0.950712 0.191031 -0.050217
H19   H     H_    0.465344 0.016583 0.128623 0.169427
H20   H     H_    0.408757 0.998134 0.257073 0.191091
H21   H     H_    0.416064 0.891987 0.117702 0.215692
N5    N     N_R   0.543356 0.918776 0.614412 0.072933
O18   O     O_R   0.529428 0.891286 0.740570 -0.342164
O19   O     O_R   0.589851 0.980889 0.592805 -0.374470
N6    N     N_R   0.420697 0.363333 0.140121 0.153751
O20   O     O_R   0.433740 0.251875 0.170242 -0.395307
O21   O     O_R   0.367415 0.390801 0.127488 -0.290496
N7    N     N_R   0.055778 0.170220 0.444699 0.211456
O22   O     O_R   0.083094 0.131984 0.552878 -0.184101
O23   O     O_R   0.050218 0.099234 0.337579 -0.237944
N8    N     N_R   0.062630 0.833783 0.581891 0.198452
O24   O     O_R   0.092847 0.879965 0.482306 -0.176858
O25   O     O_R   0.056455 0.894717 0.696247 -0.208570
N9    N     N_R   0.944912 0.835245 0.587398 0.188413
O26   O     O_R   0.920168 0.850422 0.706070 -0.250072
O27   O     O_R   0.950440 0.927169 0.503923 -0.220556
N10   N     N_R   0.206384 0.633283 0.300663 0.176474
O28   O     O_R   0.165020 0.580605 0.233123 -0.282225
O29   O     O_R   0.216891 0.748485 0.280657 -0.207083
N11   N     N_R   0.327236 0.642398 0.297849 0.170270
O30   O     O_R   0.364108 0.724941 0.336306 -0.342496
O31   O     O_R   0.314417 0.631509 0.167532 -0.238879
N12   N     N_R   0.212474 0.374679 0.719236 0.177578
O32   O     O_R   0.164205 0.411844 0.767641 -0.286170
O33   O     O_R   0.237740 0.285192 0.781125 -0.255829
N13   N     N_R   0.791508 0.448541 0.249755 0.160399
O34   O     O_R   0.775879 0.361231 0.166296 -0.347298
O35   O     O_R   0.833790 0.518960 0.214428 -0.361861

loop_
_geom_bond_atom_site_label_1
_geom_bond_atom_site_label_2
_geom_bond_distance
_ccdc_geom_bond_type
C16   N9    1.433539 S    
N10   O28   1.301113 A    
C28   O15   1.383139 S    
C7    C10   1.414912 A    
N8    O24   1.301036 A    
Cu1   N3    2.016573 S    
C29   O16   1.382424 S    
O17   C41   1.410771 S    
Cu1   Cu2   2.684165 S    
C40   H16   1.113269 S    
Cu1   O7    1.947272 S    
C15   C16   1.404506 A    
N2    C18   1.363853 A    
C17   N2    1.363337 A    
C21   C22   1.400135 A    
C39   H15   1.112931 S    
Cu2   N4    2.016868 S    
C22   H1    1.083774 S    
O7    C4    1.300263 A    
N5    O19   1.301730 A    
C5    N1    1.365897 A    
C14   C18   1.412035 A    
C31   O17   1.399054 S    
C7    C8    1.414227 A    
O5    C3    1.297774 A    
N13   O34   1.300845 A    
C37   H8    1.109192 S    
C29   C30   1.404663 A    
C8    C9    1.416514 A    
N1    C6    1.365000 A    
C20   C21   1.412697 A    
C33   H2    1.086403 S    
N12   O32   1.301142 A    
N6    O21   1.300353 A    
C10   O13   1.383602 S    
C31   C33   1.479127 S    
O14   C38   1.413009 S    
N4    H6    1.026255 S    
N10   O29   1.301215 A    
C10   C11   1.402536 A    
N12   O33   1.301591 A    
O3    Cu1   1.945960 S    
N1    C30   1.439816 S    
N11   O31   1.301181 A    
N11   O30   1.300983 A    
C33   C34   1.335671 D    
C40   H17   1.113098 S    
C5    C9    1.413481 A    
C35   H4    1.084846 S    
C18   O12   1.348687 S    
C38   H10   1.109263 S    
O16   C40   1.409424 S    
O3    C2    1.297299 A    
C1    C34   1.444571 S    
N5    O18   1.301182 A    
C36   N4    1.302900 D    
C28   C29   1.400886 A    
O1    C1    1.291000 A    
C19   C20   1.409337 A    
C26   C27   1.418841 A    
C37   H7    1.112314 S    
Cu2   O8    1.945965 S    
N7    O23   1.300555 A    
C6    C7    1.407657 A    
C2    C21   1.470835 S    
C12   C17   1.411131 A    
C13   C14   1.415258 A    
C23   N12   1.441473 S    
C3    C32   1.465178 S    
C39   H14   1.113678 S    
C23   C24   1.412648 A    
O8    C4    1.299592 A    
C17   O11   1.348906 S    
N9    O26   1.301076 A    
N9    O27   1.300591 A    
N3    H5    1.026327 S    
C25   C26   1.409435 A    
C27   C28   1.413577 A    
C4    C27   1.481678 S    
C35   C36   1.508349 S    
C40   H18   1.109000 S    
C38   H11   1.112055 S    
C15   N8    1.433220 S    
Cu1   O5    1.966659 S    
C35   N3    1.289134 D    
C31   C32   1.362380 D    
C37   H9    1.112758 S    
N2    C24   1.437495 S    
O1    Cu1   1.965350 S    
C32   N5    1.443284 S    
O2    Cu2   1.966659 S    
C39   H13   1.109296 S    
C19   N10   1.437092 S    
O6    C3    1.292650 A    
O4    Cu2   1.947272 S    
N8    O25   1.301036 A    
C5    O9    1.348581 S    
C9    C16   1.416871 A    
C41   H21   1.109311 S    
C41   H20   1.113742 S    
C20   N11   1.436990 S    
C38   H12   1.113348 S    
O2    C1    1.291972 A    
C14   C15   1.415784 A    
O15   C39   1.410416 S    
C22   C23   1.397537 A    
O4    C2    1.297728 A    
C26   O14   1.383968 S    
N7    O22   1.300988 A    
C8    C13   1.415358 A    
C25   C30   1.411525 A    
C25   N13   1.441908 S    
O13   C37   1.412987 S    
C19   C24   1.412924 A    
C36   N6    1.429770 S    
N13   O35   1.301382 A    
C12   C13   1.416700 A    
Cu2   O6    1.965349 S    
C41   H19   1.110359 S    
C6    O10   1.349600 S    
C11   N7    1.433939 S    
C11   C12   1.414998 A    
C34   H3    1.086059 S    
N6    O20   1.299030 A    
