data_mof_unit_4297.cif
_audit_creation_date              2012-12-11T14:01:23-0500
_audit_creation_method            fapswitch 2.2
_symmetry_space_group_name_H-M    P1
_symmetry_Int_Tables_number       1
_space_group_crystal_system       triclinic
_cell_length_a                    18.947779
_cell_length_b                    10.990048
_cell_length_c                    18.732635
_cell_angle_alpha                 90.088777
_cell_angle_beta                  90.26252
_cell_angle_gamma                 89.653371
_cell_volume                      3900.71088085

loop_
_atom_site_label
_atom_site_type_symbol
_atom_type_description
_atom_site_fract_x
_atom_site_fract_y
_atom_site_fract_z
_atom_type_partial_charge
C1    C     C_R   0.272449 0.042190 0.853605 0.548704
C2    C     C_R   0.727628 0.042589 0.146563 0.563005
C3    C     C_R   0.772393 0.542388 0.853519 0.554066
C4    C     C_R   0.228606 0.545852 0.148347 0.565753
C5    C     C_R   0.479243 0.049311 0.072295 -0.134084
C6    C     C_R   0.508443 0.058105 0.926887 -0.126497
C7    C     C_R   0.978936 0.549323 0.072126 -0.132523
C8    C     C_R   0.008550 0.558006 0.926795 -0.121571
C9    C     C_R   0.978031 0.661414 0.036548 0.280791
C10   C     C_R   0.993238 0.666238 0.963519 0.279835
C11   C     C_R   0.478711 0.161512 0.036886 0.282331
C12   C     C_R   0.493486 0.166376 0.963784 0.279677
C13   C     C_2   0.263907 0.634657 0.932143 -0.109101
C14   C     C_2   0.751418 0.579066 0.079666 -0.110523
C15   C     C_2   0.749334 0.079280 0.920481 -0.115550
C16   C     C_2   0.251667 0.078376 0.079919 -0.110193
C17   C     C_2   0.255528 0.607974 0.085852 -0.117132
C18   C     C_2   0.749846 0.586483 0.923057 -0.110782
C19   C     C_2   0.750106 0.087263 0.077344 -0.115937
C20   C     C_2   0.250014 0.085682 0.923308 -0.108971
C21   C     C_2   0.308652 0.562617 0.046942 -0.159558
C22   C     C_2   0.705251 0.520514 0.962667 -0.160109
C23   C     C_2   0.795743 0.022411 0.037801 -0.159690
C24   C     C_2   0.205809 0.018992 0.962978 -0.164941
C25   C     C_2   0.319409 0.604797 0.973505 -0.164768
C26   C     C_2   0.696662 0.544155 0.038968 -0.167481
C27   C     C_2   0.804531 0.047517 0.961794 -0.162052
C28   C     C_2   0.197073 0.042662 0.039260 -0.168601
C29   C     C_2   0.512476 0.838928 0.584703 -0.107147
C30   C     C_2   0.513050 0.827911 0.428325 -0.046452
C31   C     C_2   0.012475 0.338927 0.584702 -0.105856
C32   C     C_2   0.013051 0.327910 0.428326 -0.046411
C33   C     C_2   0.547038 0.749525 0.472110 -0.133176
C34   C     C_2   0.532227 0.741350 0.547682 -0.165455
C35   C     C_2   0.047042 0.249526 0.472111 -0.133257
C36   C     C_2   0.032228 0.241349 0.547682 -0.165095
C37   C     C_2   0.242091 0.558725 0.586557 -0.131769
C38   C     C_2   0.746113 0.611827 0.430521 -0.147704
C39   C     C_2   0.742089 0.058723 0.586556 -0.132059
C40   C     C_2   0.246115 0.111794 0.430510 -0.147653
C41   C     C_2   0.220047 0.519693 0.434882 -0.071212
C42   C     C_2   0.742236 0.603683 0.585706 -0.056496
C43   C     C_2   0.720044 0.019663 0.434883 -0.071412
C44   C     C_2   0.242240 0.103674 0.585700 -0.056200
C45   C     C_R   0.472988 0.822464 0.852082 0.536391
C46   C     C_R   0.529511 0.821795 0.145948 0.542249
C47   C     C_R   0.973017 0.322457 0.852060 0.545179
C48   C     C_R   0.029516 0.321812 0.145942 0.542219
C49   C     C_2   0.165912 0.544017 0.479041 0.227334
C50   C     C_2   0.777920 0.688888 0.550691 0.235876
C51   C     C_2   0.665911 0.043996 0.479041 0.227420
C52   C     C_2   0.277923 0.188862 0.550667 0.236031
C53   C     C_2   0.178843 0.571652 0.555003 -0.152045
C54   C     C_2   0.763951 0.704397 0.474268 -0.162025
C55   C     C_2   0.678842 0.071649 0.555001 -0.151973
C56   C     C_2   0.263892 0.204389 0.474259 -0.162042
C57   C     C_R   0.272774 0.679283 0.859882 0.566885
C58   C     C_R   0.739226 0.635811 0.148715 0.558837
C59   C     C_R   0.760969 0.135825 0.851397 0.555800
C60   C     C_R   0.239276 0.135652 0.148788 0.560088
C61   C     C_R   0.270537 0.048808 0.649911 0.576823
C62   C     C_R   0.708249 0.997215 0.359820 0.600967
C63   C     C_R   0.770534 0.548816 0.649916 0.574104
C64   C     C_R   0.208252 0.497224 0.359822 0.600348
C65   C     C_R   0.472369 0.824328 0.649473 0.551485
C66   C     C_R   0.531638 0.823299 0.353634 0.554484
C67   C     C_R   0.972368 0.324328 0.649472 0.551142
C68   C     C_R   0.031639 0.323299 0.353635 0.554589
C69   C     C_R   0.259151 0.632492 0.648253 0.570784
C70   C     C_R   0.738890 0.640732 0.355701 0.544304
C71   C     C_R   0.759154 0.132502 0.648244 0.560974
C72   C     C_R   0.238895 0.140709 0.355692 0.543870
C73   C     C_R   0.506283 0.828145 0.071503 0.017555
C74   C     C_R   0.506319 0.832963 0.922363 0.010538
C75   C     C_R   0.006355 0.328181 0.071474 0.016554
C76   C     C_R   0.006396 0.332944 0.922325 0.012414
C77   C     C_R   0.496353 0.940641 0.035826 -0.033795
C78   C     C_R   0.504051 0.944131 0.960971 -0.026783
C79   C     C_R   0.996336 0.440661 0.035764 -0.033155
C80   C     C_R   0.004108 0.444095 0.960915 -0.025625
C81   C     C_R   0.517444 0.723887 0.958563 -0.153055
C82   C     C_R   0.515847 0.721091 0.031551 -0.141985
C83   C     C_R   0.017551 0.223904 0.958546 -0.143685
C84   C     C_R   0.016038 0.221134 0.031534 -0.137587
Cr1   Cr    Cr6+3 0.230530 0.836340 0.748870 1.012539
Cr2   Cr    Cr6+3 0.769470 0.836340 0.251130 1.016184
Cr3   Cr    Cr6+3 0.730530 0.336340 0.748870 1.017035
Cr4   Cr    Cr6+3 0.269470 0.336340 0.251130 1.017962
Cr5   Cr    Cr6+3 0.387420 0.989430 0.750820 1.000136
Cr6   Cr    Cr6+3 0.612580 0.989430 0.249180 1.007942
Cr7   Cr    Cr6+3 0.887420 0.489430 0.750820 1.005665
Cr8   Cr    Cr6+3 0.112580 0.489430 0.249180 1.008311
Cr9   Cr    Cr6+3 0.385640 0.677860 0.749230 0.991479
Cr10  Cr    Cr6+3 0.614360 0.677860 0.250770 0.990738
Cr11  Cr    Cr6+3 0.885640 0.177860 0.749230 0.995114
Cr12  Cr    Cr6+3 0.114360 0.177860 0.250770 0.990921
H1    H     H_    0.522752 0.638183 0.930415 0.140296
H2    H     H_    0.524795 0.633582 0.056445 0.136521
H3    H     H_    0.023042 0.138273 0.930418 0.139017
H4    H     H_    0.025153 0.133657 0.056431 0.135956
H5    H     H_    0.136519 0.616672 0.583784 0.140943
H6    H     H_    0.773185 0.794003 0.452449 0.136107
H7    H     H_    0.636520 0.116688 0.583774 0.140543
H8    H     H_    0.273051 0.294020 0.452447 0.136143
H9    H     H_    0.274455 0.517573 0.452621 0.036871
H10   H     H_    0.697512 0.558360 0.560927 0.043767
H11   H     H_    0.774451 0.017535 0.452624 0.037062
H12   H     H_    0.197499 0.058376 0.560934 0.043464
H13   H     H_    0.284409 0.505168 0.563675 0.124957
H14   H     H_    0.735474 0.520399 0.449233 0.079873
H15   H     H_    0.784404 0.005157 0.563676 0.125830
H16   H     H_    0.235552 0.020336 0.449217 0.079674
H17   H     H_    0.464754 0.048377 0.128081 0.141683
H18   H     H_    0.525025 0.063877 0.871821 0.132597
H19   H     H_    0.964417 0.548390 0.127907 0.141735
H20   H     H_    0.025269 0.563804 0.871760 0.135920
H21   H     H_    0.341312 0.488268 0.066663 0.178558
H22   H     H_    0.675612 0.445663 0.939640 0.168907
H23   H     H_    0.826182 0.947846 0.060659 0.186111
H24   H     H_    0.176506 0.943721 0.939980 0.164619
H25   H     H_    0.372615 0.605923 0.952469 0.151626
H26   H     H_    0.644041 0.536001 0.061060 0.144199
H27   H     H_    0.857679 0.043906 0.940677 0.157989
H28   H     H_    0.144450 0.034180 0.061312 0.143619
H29   H     H_    0.225376 0.686032 0.066832 0.106246
H30   H     H_    0.777639 0.663527 0.946033 0.107989
H31   H     H_    0.721557 0.164031 0.054427 0.109380
H32   H     H_    0.277532 0.162997 0.946287 0.110667
H33   H     H_    0.210354 0.629421 0.952444 0.118907
H34   H     H_    0.804367 0.582993 0.057695 0.122407
H35   H     H_    0.696089 0.080369 0.941882 0.114328
H36   H     H_    0.304620 0.082571 0.057972 0.122218
H37   H     H_    0.583485 0.681674 0.451150 0.150527
H38   H     H_    0.531988 0.651024 0.571228 0.144658
H39   H     H_    0.083491 0.181679 0.451151 0.150572
H40   H     H_    0.031990 0.151023 0.571228 0.144734
H41   H     H_    0.476413 0.896590 0.447622 0.097879
H42   H     H_    0.516748 0.929709 0.562217 0.129107
H43   H     H_    0.976410 0.396580 0.447623 0.097844
H44   H     H_    0.016747 0.429707 0.562216 0.129138
O1    O     O_R   0.215090 0.709860 0.828130 -0.511775
O2    O     O_R   0.784910 0.709860 0.171870 -0.497464
O3    O     O_R   0.715090 0.209860 0.828130 -0.511468
O4    O     O_R   0.284910 0.209860 0.171870 -0.494510
O5    O     O_R   0.445660 0.919250 0.676780 -0.505718
O6    O     O_R   0.554340 0.919250 0.323220 -0.483092
O7    O     O_R   0.945660 0.419250 0.676780 -0.506936
O8    O     O_R   0.054340 0.419250 0.323220 -0.483065
O9    O     O_R   0.456260 0.718170 0.670000 -0.517699
O10   O     O_R   0.543740 0.718170 0.330000 -0.525873
O11   O     O_R   0.956260 0.218170 0.670000 -0.518294
O12   O     O_R   0.043740 0.218170 0.330000 -0.525859
O13   O     O_R   0.320940 0.626760 0.674370 -0.491973
O14   O     O_R   0.679060 0.626760 0.325630 -0.501285
O15   O     O_R   0.820940 0.126760 0.674370 -0.496451
O16   O     O_R   0.179060 0.126760 0.325630 -0.501479
O17   O     O_3   0.334530 0.834540 0.749640 -0.255956
O18   O     O_3   0.665470 0.834540 0.250360 -0.266331
O19   O     O_3   0.834530 0.334540 0.749640 -0.240095
O20   O     O_3   0.165470 0.334540 0.250360 -0.266087
O21   O     O_R   0.236990 0.958390 0.823710 -0.507666
O22   O     O_R   0.763010 0.958390 0.176290 -0.488045
O23   O     O_R   0.736990 0.458390 0.823710 -0.494512
O24   O     O_R   0.263010 0.458390 0.176290 -0.484976
O25   O     O_R   0.332380 0.074750 0.830850 -0.535877
O26   O     O_R   0.667620 0.074750 0.169150 -0.527497
O27   O     O_R   0.832380 0.574750 0.830850 -0.538038
O28   O     O_R   0.167620 0.574750 0.169150 -0.528695
O29   O     O_R   0.445800 0.917770 0.825070 -0.513233
O30   O     O_R   0.554200 0.917770 0.174930 -0.510478
O31   O     O_R   0.945800 0.417770 0.825070 -0.512213
O32   O     O_R   0.054200 0.417770 0.174930 -0.509288
O33   O     O_R   0.456410 0.716580 0.829970 -0.542539
O34   O     O_R   0.543590 0.716580 0.170030 -0.532494
O35   O     O_R   0.956410 0.216580 0.829970 -0.534218
O36   O     O_R   0.043590 0.216580 0.170030 -0.532736
O37   O     O_R   0.321080 0.625290 0.822650 -0.501564
O38   O     O_R   0.678920 0.625290 0.177350 -0.501888
O39   O     O_R   0.821080 0.125290 0.822650 -0.505036
O40   O     O_R   0.178920 0.125290 0.177350 -0.502415
O41   O     O_R   0.214930 0.711450 0.668160 -0.518377
O42   O     O_R   0.785070 0.711450 0.331840 -0.526231
O43   O     O_R   0.714930 0.211450 0.668160 -0.522290
O44   O     O_R   0.285070 0.211450 0.331840 -0.526603
O45   O     O_R   0.236850 0.959870 0.675420 -0.516656
O46   O     O_R   0.763150 0.959870 0.324580 -0.521401
O47   O     O_R   0.736850 0.459870 0.675420 -0.517620
O48   O     O_R   0.263150 0.459870 0.324580 -0.522801
O49   O     O_R   0.332230 0.076350 0.670880 -0.462309
O50   O     O_R   0.667770 0.076350 0.329120 -0.483237
O51   O     O_R   0.832230 0.576350 0.670880 -0.464186
O52   O     O_R   0.167770 0.576350 0.329120 -0.484316
O53   O     O_3   0.097537 0.547708 0.451732 -0.544874
C85   C     C_3   0.066563 0.663746 0.462330 -0.006518
H45   H     H_    0.105621 0.739004 0.457928 0.131044
H46   H     H_    0.041104 0.667339 0.515571 0.109454
C86   C     C_3   0.009762 0.685037 0.405925 -0.349480
H47   H     H_    0.968276 0.614512 0.409941 0.142396
H48   H     H_    0.985083 0.775913 0.413935 0.078683
H49   H     H_    0.033296 0.681603 0.351781 0.175623
O54   O     O_3   0.823632 0.765064 0.588204 -0.539121
C87   C     C_3   0.886095 0.786830 0.549542 -0.001977
H50   H     H_    0.876034 0.852401 0.505494 0.117149
H51   H     H_    0.908488 0.700585 0.527678 0.133970
C88   C     C_3   0.940606 0.842829 0.599407 -0.366452
H52   H     H_    0.953497 0.778556 0.643350 0.154102
H53   H     H_    0.989534 0.863189 0.569401 0.076417
H54   H     H_    0.919683 0.928841 0.622534 0.171748
O55   O     O_3   0.597536 0.047694 0.451730 -0.545036
C89   C     C_3   0.566582 0.163757 0.462292 -0.006418
H55   H     H_    0.605656 0.238994 0.457905 0.131186
H56   H     H_    0.541095 0.167378 0.515520 0.109402
C90   C     C_3   0.509817 0.185056 0.405848 -0.349524
H57   H     H_    0.468327 0.114529 0.409834 0.142391
H58   H     H_    0.485134 0.275934 0.413842 0.078627
H59   H     H_    0.533385 0.181627 0.351719 0.175562
O56   O     O_3   0.323704 0.264970 0.588145 -0.537903
C91   C     C_3   0.386070 0.286911 0.549354 -0.001943
H60   H     H_    0.375883 0.352570 0.505380 0.117028
H61   H     H_    0.408450 0.200744 0.527375 0.133712
C92   C     C_3   0.440667 0.342878 0.599130 -0.366021
H62   H     H_    0.453707 0.278507 0.642981 0.153867
H63   H     H_    0.489506 0.363409 0.569017 0.076155
H64   H     H_    0.419748 0.428792 0.622385 0.172105
O57   O     O_3   0.957710 0.765531 0.072511 -0.550090
C93   C     C_3   0.017110 0.814003 0.107963 -0.012552
H65   H     H_    0.054538 0.852602 0.068471 0.151868
H66   H     H_    0.045043 0.744124 0.140911 0.131308
C94   C     C_3   0.992936 0.915308 0.157722 -0.359795
H67   H     H_    0.958469 0.877534 0.199949 0.146349
H68   H     H_    0.039480 0.958533 0.183277 0.119469
H69   H     H_    0.962785 0.985167 0.127366 0.164644
O58   O     O_3   0.998768 0.778018 0.930081 -0.562648
C95   C     C_3   0.945217 0.789549 0.877721 -0.010716
H70   H     H_    0.892469 0.794376 0.903606 0.151280
H71   H     H_    0.946072 0.713208 0.838687 0.145087
C96   C     C_3   0.956685 0.905788 0.835668 -0.349804
H72   H     H_    0.008156 0.901506 0.807603 0.139320
H73   H     H_    0.913822 0.917616 0.795588 0.116510
H74   H     H_    0.956610 0.984822 0.872333 0.170626
O59   O     O_3   0.459311 0.265891 0.073132 -0.546203
C97   C     C_3   0.519027 0.311901 0.109218 -0.012239
H75   H     H_    0.557136 0.349757 0.070143 0.151206
H76   H     H_    0.545987 0.240697 0.142006 0.132334
C98   C     C_3   0.495733 0.413279 0.159362 -0.358851
H77   H     H_    0.460480 0.376140 0.201106 0.145549
H78   H     H_    0.542601 0.454415 0.185500 0.118984
H79   H     H_    0.466719 0.484714 0.129204 0.161198
O60   O     O_3   0.498487 0.278317 0.930428 -0.562106
C99   C     C_3   0.445340 0.288593 0.877575 -0.006584
H80   H     H_    0.392044 0.283747 0.902264 0.156017
H81   H     H_    0.450469 0.216816 0.835968 0.138976
C100  C     C_3   0.452111 0.410543 0.840292 -0.339282
H82   H     H_    0.504767 0.417812 0.814882 0.139824
H83   H     H_    0.410660 0.419626 0.798497 0.122543
H84   H     H_    0.445795 0.484999 0.879643 0.169819

loop_
_geom_bond_atom_site_label_1
_geom_bond_atom_site_label_2
_ccdc_geom_bond_type
C16   C28   D    
C85   H46   S    
C38   C70   S    
C98   H78   S    
C15   C59   S    
C72   O16   A    
C37   C69   S    
Cr8   O8    S    
Cr1   O21   S    
O54   C87   S    
Cr3   O23   S    
C35   C36   S    
Cr9   O13   S    
C2    O22   A    
Cr7   O7    S    
C81   C82   A    
C3    O27   A    
C62   O50   A    
C77   C78   A    
C31   C67   S    
C29   H42   S    
C52   O56   S    
C50   C54   S    
C7    C79   A    
C87   H51   S    
Cr11  O19   S    
C88   H54   S    
Cr7   O27   S    
C47   C76   S    
C5    C11   A    
C92   H64   S    
C89   H55   S    
C23   H23   S    
C100  H82   S    
C49   C53   S    
C75   C84   A    
Cr4   O44   S    
C85   C86   S    
C13   C57   S    
Cr1   O1    S    
C34   H38   S    
C99   H81   S    
Cr12  O12   S    
C55   H7    S    
C3    C18   S    
C50   O54   S    
O59   C97   S    
C16   C60   S    
C7    H19   S    
C86   H48   S    
Cr11  O35   S    
C6    H18   S    
C21   C25   S    
C48   O32   A    
Cr11  O11   S    
Cr9   O9    S    
C70   O42   A    
C26   H26   S    
C39   C55   D    
C20   C24   D    
C53   H5    S    
C40   C56   D    
C87   C88   S    
C97   H76   S    
C76   C80   A    
C4    O24   A    
Cr2   O22   S    
C23   C27   S    
C38   H14   S    
Cr12  O36   S    
O58   C95   S    
C2    O26   A    
Cr7   O19   S    
C68   O8    A    
C3    O23   A    
C62   O46   A    
C93   H66   S    
C37   C53   D    
C44   C52   D    
C99   C100  S    
C39   H15   S    
C85   H45   S    
C1    O21   A    
Cr10  O18   S    
C30   H41   S    
Cr10  O38   S    
C96   H72   S    
Cr6   O26   S    
C61   O49   A    
C82   H2    S    
C48   C75   S    
C13   C25   D    
C75   C79   A    
C60   O4    A    
C95   H71   S    
C36   H40   S    
C76   C83   A    
C41   C49   D    
C64   O52   A    
O55   C89   S    
C7    C9    A    
C44   H12   S    
Cr1   O45   S    
C14   C58   S    
C44   C61   S    
C24   H24   S    
C97   C98   S    
C87   H50   S    
C92   H63   S    
C67   O11   A    
C84   H4    S    
C32   C35   D    
C71   O43   A    
Cr9   O37   S    
C56   H8    S    
C32   H43   S    
C40   H16   S    
C35   H39   S    
C100  H83   S    
C27   H27   S    
C19   C23   D    
C5    H17   S    
Cr3   O47   S    
O56   C91   S    
C90   H57   S    
Cr7   O51   S    
C29   C34   D    
C69   O13   A    
C12   O60   S    
C46   O30   A    
C45   C74   S    
C83   H3    S    
C95   C96   S    
C70   O14   A    
Cr6   O18   S    
C86   H49   S    
Cr5   O5    S    
C17   H29   S    
C94   H67   S    
C68   O12   A    
C45   O33   A    
C92   H62   S    
Cr2   O18   S    
Cr8   O28   S    
C15   C27   D    
C83   C84   A    
C38   C54   D    
C1    O25   A    
Cr10  O14   S    
C71   O15   A    
Cr6   O30   S    
C61   O45   A    
O57   C93   S    
O60   C99   S    
Cr5   O17   S    
C58   O38   A    
C43   H11   S    
C14   C26   D    
Cr9   O17   S    
C42   H10   S    
C72   O44   A    
C30   C66   S    
C41   H9    S    
C42   C50   D    
Cr3   O43   S    
C29   C65   S    
C4    C17   S    
Cr11  O39   S    
Cr12  O20   S    
Cr10  O34   S    
Cr2   O46   S    
C63   O47   A    
C96   H73   S    
C67   O7    A    
C11   O59   S    
C98   H79   S    
C60   O40   A    
C95   H70   S    
C74   C81   A    
C5    C77   A    
Cr3   O19   S    
C89   C90   S    
C6    C12   A    
C73   C82   A    
Cr6   O6    S    
Cr2   O2    S    
C91   C92   S    
C8    C80   A    
Cr6   O50   S    
C90   H59   S    
C22   H22   S    
C14   H34   S    
C88   H52   S    
C10   O58   S    
Cr1   O41   S    
C58   O2    A    
C40   C72   S    
C30   C33   D    
C97   H75   S    
C2    C19   S    
C18   C22   D    
C37   H13   S    
C54   H6    S    
C33   H37   S    
C24   C28   S    
Cr2   O42   S    
C1    C20   S    
C45   O29   A    
C100  H84   S    
C47   O31   A    
C11   C12   A    
C28   H28   S    
C66   O10   A    
C20   H32   S    
Cr7   O31   S    
C51   O55   S    
C94   H69   S    
C93   C94   S    
C25   H25   S    
C74   C78   A    
C89   H56   S    
C57   O1    A    
C91   H61   S    
Cr8   O20   S    
Cr12  O40   S    
C59   O39   A    
C99   H80   S    
C90   H58   S    
Cr5   O29   S    
C94   H68   S    
Cr4   O24   S    
Cr5   O49   S    
C18   H30   S    
C32   C68   S    
C57   O37   A    
C43   C51   D    
C91   H60   S    
Cr12  O16   S    
C49   O53   S    
Cr8   O32   S    
C63   O51   A    
C52   C56   S    
Cr9   O33   S    
C81   H1    S    
C33   C34   S    
C9    C10   A    
C51   C55   S    
Cr11  O15   S    
Cr4   O20   S    
C65   O9    A    
C86   H47   S    
C16   H36   S    
C17   C21   D    
C64   O48   A    
C66   O6    A    
C21   H21   S    
C6    C78   A    
C8    H20   S    
C47   O35   A    
C59   O3    A    
C79   C80   A    
C4    O28   A    
Cr10  O10   S    
Cr4   O48   S    
C15   H35   S    
C8    C10   A    
C93   H65   S    
C22   C26   S    
C96   H74   S    
C46   O34   A    
Cr1   O17   S    
C73   C77   A    
C31   C36   D    
C9    O57   S    
C19   H31   S    
C41   C64   S    
Cr3   O3    S    
C31   H44   S    
C98   H77   S    
C88   H53   S    
C65   O5    A    
C42   C63   S    
Cr4   O4    S    
C46   C73   S    
C13   H33   S    
Cr8   O52   S    
C43   C62   S    
C69   O41   A    
O53   C85   S    
C48   O36   A    
C39   C71   S    
Cr5   O25   S    
