data_mof_unit_560.cif
_audit_creation_date              2012-10-26T19:23:44-0400
_audit_creation_method            fapswitch 2.2
_symmetry_space_group_name_H-M    P1
_symmetry_Int_Tables_number       1
_space_group_crystal_system       triclinic
_cell_length_a                    27.814071
_cell_length_b                    12.987681
_cell_length_c                    11.76042
_cell_angle_alpha                 100.635748
_cell_angle_beta                  94.734951
_cell_angle_gamma                 90.803213
_cell_volume                      4159.24676471

loop_
_atom_site_label
_atom_site_type_symbol
_atom_type_description
_atom_site_fract_x
_atom_site_fract_y
_atom_site_fract_z
_atom_type_partial_charge
C1    C     C_R   0.499043 0.298994 0.478137 0.573329
C2    C     C_R   0.870556 0.417182 0.488744 0.023543
C3    C     C_R   0.354609 0.497636 0.501307 0.001925
C4    C     C_R   0.645497 0.506027 0.504211 -0.003047
C5    C     C_R   0.972429 0.409750 0.495412 0.017187
C6    C     C_R   0.026853 0.596659 0.498360 0.017215
C7    C     C_R   0.976697 0.601684 0.512184 0.017170
C8    C     C_R   0.023563 0.408180 0.505091 0.017407
C9    C     C_R   0.949406 0.507383 0.505412 0.034295
C10   C     C_R   0.050413 0.500905 0.501261 0.034467
C11   C     C_R   0.943361 0.317000 0.475058 -0.142170
C12   C     C_R   0.501828 0.700965 0.522030 0.578248
C13   C     C_R   0.054350 0.683799 0.480765 -0.142296
C14   C     C_R   0.893274 0.320830 0.469663 -0.113592
C15   C     C_R   0.103841 0.677761 0.471465 -0.114657
C16   C     C_R   0.407578 0.499193 0.499785 0.594074
C17   C     C_R   0.592434 0.502181 0.500911 0.587553
C18   C     C_R   0.048929 0.317450 0.520160 -0.142847
C19   C     C_R   0.952864 0.697835 0.534160 -0.143051
C20   C     C_R   0.502182 0.814778 0.535236 0.027541
C21   C     C_R   0.500200 0.185282 0.465877 0.033215
C22   C     C_R   0.513578 0.014807 0.351492 -0.125545
C23   C     C_R   0.101330 0.497942 0.500642 -0.027745
C24   C     C_R   0.490475 0.985569 0.650900 -0.111738
C25   C     C_R   0.510642 0.122787 0.360841 -0.107985
C26   C     C_R   0.493393 0.877559 0.641587 -0.083336
C27   C     C_R   0.493208 0.139250 0.562272 -0.099182
C28   C     C_R   0.509417 0.860810 0.439044 -0.121847
C29   C     C_R   0.496685 0.031496 0.554176 0.053138
C30   C     C_R   0.506663 0.968720 0.447699 0.050544
C31   C     C_R   0.452840 0.407461 0.015977 -0.136954
C32   C     C_R   0.546178 0.596182 0.983729 -0.137016
C33   C     C_R   0.457936 0.411318 0.137149 0.176728
C34   C     C_R   0.898599 0.510687 0.508681 -0.027519
C35   C     C_R   0.543095 0.587089 0.861579 0.188842
C36   C     C_R   0.519834 0.542441 0.159030 0.045992
C37   C     C_R   0.479040 0.460666 0.841369 0.060339
C38   C     C_R   0.516398 0.535954 0.036127 -0.005952
C39   C     C_R   0.482501 0.467825 0.964066 -0.006320
C40   C     C_R   0.176373 0.407959 0.523245 0.382004
C41   C     C_R   0.825717 0.608673 0.540260 0.381695
C42   C     C_R   0.178065 0.580137 0.479741 0.392942
C43   C     C_R   0.820185 0.422298 0.487448 0.393212
C44   C     C_R   0.282583 0.573293 0.585499 0.043515
C45   C     C_R   0.125716 0.406854 0.516656 0.025151
C46   C     C_R   0.723064 0.460114 0.592164 0.043022
C47   C     C_R   0.331864 0.583573 0.566278 0.190492
C48   C     C_R   0.672778 0.440814 0.568054 0.172876
C49   C     C_R   0.326553 0.407676 0.446400 -0.064615
C50   C     C_R   0.669715 0.578769 0.450725 -0.056226
C51   C     C_R   0.276283 0.413022 0.440250 -0.065288
C52   C     C_R   0.719994 0.576731 0.452301 -0.066470
C53   C     C_R   0.253801 0.493860 0.510470 0.198675
C54   C     C_R   0.747050 0.518914 0.522632 0.199453
C55   C     C_3   0.348481 0.304256 0.397590 -0.294385
C56   C     C_R   0.875783 0.607444 0.531256 0.025229
C57   C     C_3   0.332126 0.216013 0.456804 -0.413893
C58   C     C_3   0.644267 0.660847 0.392841 -0.293864
C59   C     C_3   0.655686 0.770927 0.462902 -0.426970
C60   C     C_3   0.578493 0.658001 0.818237 -0.239304
C61   C     C_3   0.630777 0.626196 0.839064 -0.439636
C62   C     C_3   0.424770 0.335728 0.178630 -0.247899
C63   C     C_3   0.434387 0.221397 0.127762 -0.456415
C64   C     C_3   0.750257 0.425183 0.695765 -0.242979
C65   C     C_3   0.771603 0.518800 0.784888 -0.445598
C66   C     C_3   0.261936 0.639746 0.690168 -0.243163
C67   C     C_R   0.099132 0.317533 0.527798 -0.112997
C68   C     C_3   0.243664 0.572461 0.772415 -0.435179
C69   C     C_R   0.903433 0.700503 0.545478 -0.113264
C70   C     C_R   0.127881 0.586029 0.483870 0.022964
Cu1   Cu    Cu3+1 0.503580 0.507730 0.615930 1.028665
Cu2   Cu    Cu3+1 0.496420 0.492270 0.384070 0.965059
H1    H     H_    0.487691 0.843020 0.716665 0.161525
H2    H     H_    0.738523 0.623974 0.401612 0.154595
H3    H     H_    0.117014 0.246647 0.541251 0.164966
H4    H     H_    0.886867 0.776084 0.563957 0.165520
H5    H     H_    0.872450 0.247670 0.452771 0.165887
H6    H     H_    0.123377 0.746323 0.457122 0.164715
H7    H     H_    0.958414 0.240097 0.458826 0.111948
H8    H     H_    0.038152 0.756736 0.469880 0.111582
H9    H     H_    0.030849 0.246327 0.531040 0.110834
H10   H     H_    0.971968 0.772535 0.547494 0.111041
H11   H     H_    0.516838 0.812682 0.357066 0.112749
H12   H     H_    0.517734 0.157559 0.287008 0.136250
H13   H     H_    0.485323 0.187223 0.643946 0.119649
H14   H     H_    0.340748 0.237630 0.552296 0.167590
H15   H     H_    0.292758 0.199136 0.437695 0.182839
H16   H     H_    0.351345 0.143522 0.424203 0.148513
H17   H     H_    0.338139 0.283266 0.302749 0.147035
H18   H     H_    0.388257 0.308347 0.412053 0.132792
H19   H     H_    0.644233 0.776705 0.552136 0.157513
H20   H     H_    0.694912 0.790299 0.468017 0.187753
H21   H     H_    0.635786 0.829137 0.420359 0.147626
H22   H     H_    0.655931 0.655817 0.303875 0.144472
H23   H     H_    0.521690 0.967596 0.269674 0.108484
H24   H     H_    0.604625 0.650652 0.383413 0.159975
H25   H     H_    0.641958 0.635555 0.933278 0.141750
H26   H     H_    0.635246 0.543676 0.797259 0.212499
H27   H     H_    0.655075 0.676688 0.800944 0.133541
H28   H     H_    0.572269 0.662031 0.726749 0.193064
H29   H     H_    0.574850 0.739782 0.864904 0.109492
H30   H     H_    0.473709 0.207677 0.132323 0.161005
H31   H     H_    0.416708 0.168740 0.177330 0.141947
H32   H     H_    0.419448 0.200819 0.035714 0.149077
H33   H     H_    0.428047 0.343249 0.271596 0.202008
H34   H     H_    0.483030 0.032960 0.733169 0.114461
H35   H     H_    0.386678 0.352661 0.153710 0.121007
H36   H     H_    0.699889 0.219392 0.527103 0.362450
H37   H     H_    0.306914 0.801379 0.550713 0.359101
H38   H     H_    0.800908 0.559014 0.750039 0.186963
H39   H     H_    0.743079 0.575460 0.810277 0.158334
H40   H     H_    0.787095 0.491289 0.863710 0.147098
H41   H     H_    0.726012 0.383085 0.742994 0.218553
H42   H     H_    0.779232 0.370903 0.668220 0.193421
H43   H     H_    0.210401 0.527160 0.733695 0.180914
H44   H     H_    0.271842 0.517740 0.794191 0.169842
H45   H     H_    0.452588 0.407562 0.786874 0.107983
H46   H     H_    0.234886 0.623839 0.854057 0.147598
H47   H     H_    0.289817 0.693436 0.743482 0.221836
H48   H     H_    0.232599 0.689140 0.663049 0.189979
H49   H     H_    0.545770 0.596586 0.213656 0.100339
H50   H     H_    0.425881 0.355390 0.961555 0.093764
H51   H     H_    0.572183 0.650734 0.038126 0.085686
H52   H     H_    0.254362 0.350153 0.386168 0.156696
N1    N     N_R   0.201717 0.494129 0.505206 -0.390693
N2    N     N_R   0.798794 0.516714 0.518531 -0.391563
N3    N     N_R   0.508960 0.519350 0.790140 -0.211861
N4    N     N_R   0.491040 0.480650 0.209860 -0.222817
O1    O     O_R   0.502540 0.354460 0.582000 -0.484637
O2    O     O_2   0.804233 0.700939 0.571336 -0.518168
O3    O     O_2   0.792763 0.333516 0.454633 -0.511742
O4    O     O_2   0.203024 0.659758 0.450338 -0.512356
O5    O     O_2   0.624222 0.348336 0.713248 -0.261835
O6    O     O_2   0.606984 0.281528 0.505226 -0.278690
O7    O     O_3   0.687171 0.231696 0.604553 -0.509285
O8    O     O_2   0.392864 0.707311 0.724037 -0.260214
O9    O     O_2   0.396322 0.723694 0.520802 -0.282539
O10   O     O_3   0.325129 0.806573 0.627683 -0.520851
O11   O     O_R   0.497460 0.645540 0.418000 -0.505115
O12   O     O_R   0.496500 0.341410 0.386200 -0.527095
O13   O     O_R   0.503500 0.658590 0.613800 -0.512370
O14   O     O_R   0.433290 0.506540 0.597890 -0.476397
O15   O     O_R   0.566710 0.493460 0.402110 -0.506643
O16   O     O_R   0.427240 0.493490 0.402090 -0.511462
O17   O     O_R   0.572760 0.506510 0.597910 -0.482012
O18   O     O_2   0.200067 0.324194 0.549273 -0.520817
S1    S     S_3+6 0.645901 0.324505 0.598820 0.011324
S2    S     S_3+6 0.363377 0.706719 0.610946 0.004813

loop_
_geom_bond_atom_site_label_1
_geom_bond_atom_site_label_2
_ccdc_geom_bond_type
Cu2   O15   S    
C66   C68   S    
C34   C56   A    
C23   C45   A    
C27   C29   A    
C22   H23   S    
O9    S2    D    
C44   C66   S    
C61   H26   S    
C23   C70   A    
C26   H1    S    
C3    C49   A    
C41   C56   A    
C62   H33   S    
C61   H27   S    
C12   O13   A    
C1    C21   S    
O6    S1    D    
C54   N2    S    
C29   C30   A    
Cu2   N4    S    
C16   O16   A    
C24   C26   A    
C5    C11   A    
C55   H18   S    
C1    O1    A    
C41   O2    S    
C11   C14   A    
C15   H6    S    
C48   S1    S    
C42   C70   A    
C18   H9    S    
C57   H14   S    
C69   H4    S    
Cu2   O16   S    
C14   H5    S    
C3    C47   A    
C27   H13   S    
C58   H24   S    
C24   C29   A    
C65   H39   S    
C42   N1    A    
C68   H46   S    
C44   C53   A    
Cu2   O11   S    
O10   S2    S    
C33   C62   S    
C49   C51   A    
C22   C25   A    
C45   C67   A    
C25   H12   S    
C50   C52   A    
C31   C33   A    
O5    S1    D    
C32   C38   A    
C19   H10   S    
C46   C54   A    
C44   C47   A    
Cu1   O13   S    
C2    C34   A    
C21   C27   A    
C13   H8    S    
C66   H48   S    
C28   H11   S    
C51   H52   S    
C32   H51   S    
Cu1   N3    S    
C36   N4    A    
C11   H7    S    
C63   H30   S    
C43   N2    A    
C52   C54   A    
C40   C45   A    
C46   C48   A    
C64   H42   S    
C50   C58   S    
C32   C35   A    
C38   C39   A    
H36   O7    S    
C63   H31   S    
C62   H35   S    
C20   C28   A    
C18   C67   A    
C49   C55   S    
C33   N4    A    
C8    C18   A    
C57   H15   S    
C4    C50   A    
C60   C61   S    
C51   C53   A    
C16   O14   A    
C65   H40   S    
C5    C9    A    
C62   C63   S    
Cu1   O1    S    
C13   C15   A    
Cu2   O12   S    
C2    C43   A    
C12   C20   S    
C12   O11   A    
C37   H45   S    
C59   H19   S    
C35   N3    A    
O8    S2    D    
C1    O12   A    
C53   N1    S    
C68   H44   S    
Cu1   O14   S    
C4    C17   S    
O7    S1    S    
C8    C10   A    
Cu1   O17   S    
C7    C19   A    
C66   H47   S    
C55   C57   S    
C17   O17   A    
C19   C69   A    
C67   H3    S    
C60   H29   S    
C35   C60   S    
C4    C48   A    
C7    C9    A    
C15   C70   A    
C21   C25   A    
C47   S2    S    
C64   H41   S    
C22   C30   A    
C41   N2    A    
C61   H25   S    
C31   H50   S    
C63   H32   S    
C60   H28   S    
C6    C10   A    
C5    C8    A    
C6    C7    A    
C10   C23   A    
C52   H2    S    
C57   H16   S    
C40   O18   S    
C17   O15   A    
C64   C65   S    
C43   O3    S    
C36   H49   S    
C58   C59   S    
C28   C30   A    
C55   H17   S    
C6    C13   A    
C9    C34   A    
C20   C26   A    
C40   N1    A    
C36   C38   A    
C31   C39   A    
C59   H20   S    
C58   H22   S    
C2    C14   A    
C65   H38   S    
C68   H43   S    
Cu1   Cu2   S    
C24   H34   S    
C37   C39   A    
C56   C69   A    
C46   C64   S    
H37   O10   S    
C42   O4    S    
C59   H21   S    
C3    C16   S    
C37   N3    A    
