data_mof_unit_2358.cif
_audit_creation_date              2013-03-05T16:01:31-0500
_audit_creation_method            fapswitch 2.2
_symmetry_space_group_name_H-M    P1
_symmetry_Int_Tables_number       1
_space_group_crystal_system       triclinic
_cell_length_a                    20.022818
_cell_length_b                    7.216709
_cell_length_c                    19.854836
_cell_angle_alpha                 90.273739
_cell_angle_beta                  98.99273
_cell_angle_gamma                 90.400902
_cell_volume                      2833.61631213

loop_
_atom_site_label
_atom_site_type_symbol
_atom_site_description
_atom_site_fract_x
_atom_site_fract_y
_atom_site_fract_z
_atom_type_partial_charge
O1    O     O_R   0.188410 0.619490 0.310050 -0.543150
O2    O     O_R   0.811590 0.380510 0.689950 -0.567487
O3    O     O_R   0.311590 0.119490 0.189950 -0.544418
O4    O     O_R   0.688410 0.880510 0.810050 -0.562620
O5    O     O_R   0.327280 0.288800 0.321740 -0.590757
O6    O     O_R   0.672720 0.711200 0.678260 -0.595626
O7    O     O_R   0.172720 0.788800 0.178260 -0.592412
O8    O     O_R   0.827280 0.211200 0.821740 -0.583929
C1    C     C_R   0.351571 0.457944 0.338666 0.992951
C2    C     C_R   0.648495 0.542063 0.661219 0.995613
C3    C     C_R   0.148383 0.956175 0.161208 1.000860
C4    C     C_R   0.851464 0.043852 0.839112 1.003478
O9    O     O_R   0.189900 0.289710 0.318190 -0.566565
O10   O     O_R   0.810100 0.710290 0.681810 -0.582241
O11   O     O_R   0.310100 0.789710 0.181810 -0.566058
O12   O     O_R   0.689900 0.210290 0.818190 -0.566193
O13   O     O_R   0.173230 0.120350 0.186370 -0.594002
O14   O     O_R   0.826770 0.879650 0.813630 -0.593337
O15   O     O_R   0.326770 0.620350 0.313630 -0.595016
O16   O     O_R   0.673230 0.379650 0.686370 -0.590567
C5    C     C_R   0.169136 0.459285 0.333816 0.928219
C6    C     C_R   0.831468 0.541646 0.667349 0.962527
C7    C     C_R   0.330740 0.959603 0.166075 0.924851
C8    C     C_R   0.668768 0.041074 0.832929 0.922811
O17   O     O_3   0.244690 0.453290 0.206760 -0.249415
O18   O     O_3   0.755310 0.546710 0.793240 -0.269862
O19   O     O_3   0.255310 0.953290 0.293240 -0.249661
O20   O     O_3   0.744690 0.046710 0.706760 -0.290552
V1    V     V_3+5 0.250980 0.178070 0.258020 1.270802
V2    V     V_3+5 0.749020 0.821930 0.741980 1.221763
V3    V     V_3+5 0.249020 0.678070 0.241980 1.271791
V4    V     V_3+5 0.750980 0.321930 0.758020 1.235478
C9    C     C_R   0.448347 0.157592 0.047839 -0.279572
C10   C     C_R   0.524729 0.873672 0.923674 -0.246826
C11   C     C_R   0.049161 0.655108 0.449853 -0.278493
C12   C     C_R   0.974519 0.374481 0.575658 -0.262008
H1    H     H_    0.462177 0.292222 0.030181 0.131704
H2    H     H_    0.487565 0.762648 0.918472 0.153866
H3    H     H_    0.034653 0.789667 0.466900 0.132714
H4    H     H_    0.012542 0.267323 0.581188 0.163525
C13   C     C_R   0.401818 0.148850 0.093670 0.407420
C14   C     C_R   0.570743 0.881623 0.877283 0.386765
C15   C     C_R   0.096510 0.647202 0.404843 0.407944
C16   C     C_R   0.930703 0.386839 0.624264 0.384095
C17   C     C_R   0.380480 0.975038 0.116763 -0.302845
C18   C     C_R   0.618774 0.028430 0.881108 -0.291267
C19   C     C_R   0.118869 0.473769 0.382670 -0.301306
C20   C     C_R   0.881948 0.530287 0.619621 -0.279383
C21   C     C_R   0.408485 0.814718 0.092645 -0.132490
C22   C     C_R   0.618614 0.164347 0.932041 -0.127042
C23   C     C_R   0.091194 0.312805 0.407065 -0.130079
C24   C     C_R   0.880191 0.660203 0.566866 -0.136666
H5    H     H_    0.394447 0.680944 0.109229 0.231395
H6    H     H_    0.654749 0.277861 0.936647 0.158078
H7    H     H_    0.106159 0.179169 0.391343 0.231206
H8    H     H_    0.843407 0.770614 0.561668 0.148937
C25   C     C_R   0.455618 0.824435 0.047559 -0.152701
C26   C     C_R   0.573002 0.153586 0.978701 -0.145672
C27   C     C_R   0.043390 0.321600 0.451498 -0.151753
C28   C     C_R   0.924654 0.647247 0.519167 -0.127896
H9    H     H_    0.476632 0.696632 0.031614 0.122611
H10   H     H_    0.575721 0.258557 0.018179 0.118650
H11   H     H_    0.022876 0.193243 0.467903 0.125217
H12   H     H_    0.920867 0.748432 0.478699 0.117229
C29   C     C_R   0.476079 0.996324 0.024318 0.108241
C30   C     C_R   0.525473 0.007788 0.975221 0.087492
C31   C     C_R   0.021821 0.493217 0.473723 0.105870
C32   C     C_R   0.972453 0.504104 0.522903 0.087591
C33   C     C_R   0.087751 0.952330 0.106833 -0.237130
C34   C     C_R   0.911952 0.048418 0.893913 -0.197126
C35   C     C_R   0.412973 0.459040 0.391930 -0.197530
C36   C     C_R   0.587201 0.541167 0.607760 -0.197567
C37   C     C_R   0.006806 0.228608 0.957705 0.650600
C38   C     C_R   0.992833 0.775022 0.043614 0.676405
C39   C     C_R   0.484600 0.702813 0.554261 0.617773
C40   C     C_R   0.515690 0.297803 0.445243 0.627068
C41   C     C_R   0.951390 0.211695 0.904375 -0.257685
C42   C     C_R   0.047048 0.791427 0.097521 -0.269722
C43   C     C_R   0.539679 0.683315 0.607824 -0.261151
C44   C     C_R   0.460823 0.317895 0.391474 -0.301594
C45   C     C_R   0.927471 0.901156 0.939308 -0.239375
C46   C     C_R   0.072999 0.098808 0.060891 -0.183755
C47   C     C_R   0.578504 0.412405 0.553964 -0.247823
C48   C     C_R   0.421525 0.587322 0.445861 -0.223710
C49   C     C_R   0.980106 0.918395 0.995557 -0.061876
C50   C     C_R   0.019922 0.083087 0.004862 -0.029821
C51   C     C_R   0.523757 0.427108 0.499666 -0.035296
C52   C     C_R   0.476380 0.572945 0.500036 -0.040562
H13   H     H_    0.104551 0.222133 0.067638 0.195587
H14   H     H_    0.896655 0.776469 0.932345 0.186293
H15   H     H_    0.384328 0.695522 0.446123 0.195163
H16   H     H_    0.615562 0.303795 0.553828 0.185203
H17   H     H_    0.057529 0.675674 0.132003 0.165951
H18   H     H_    0.938060 0.328746 0.871474 0.188544
H19   H     H_    0.455071 0.223273 0.348479 0.153466
H20   H     H_    0.545919 0.779370 0.650333 0.178717
N1    N     N_R   0.377399 0.319486 0.116361 0.218634
O21   O     O_R   0.322521 0.391228 0.083270 -0.413205
O22   O     O_R   0.405207 0.390530 0.174474 -0.448638
N2    N     N_R   0.565879 0.742792 0.825067 0.225238
O23   O     O_R   0.602350 0.594180 0.835470 -0.397552
O24   O     O_R   0.514030 0.742329 0.776622 -0.422872
N3    N     N_R   0.121046 0.818288 0.382377 0.217978
O25   O     O_R   0.176602 0.890822 0.414913 -0.405629
O26   O     O_R   0.092989 0.887886 0.324557 -0.450819
N4    N     N_R   0.939346 0.259158 0.680064 0.236013
O27   O     O_R   0.952250 0.085834 0.669572 -0.407527
O28   O     O_R   0.946193 0.321507 0.742328 -0.447899
O29   O     O_3   0.045247 0.390796 0.969199 -0.618263
C53   C     C_3   0.058868 0.471393 0.908083 -0.152674
H21   H     H_    0.016212 0.560475 0.885566 0.158153
H22   H     H_    0.070640 0.365997 0.870542 0.146872
H23   H     H_    0.103977 0.562662 0.920376 0.170786
O30   O     O_3   0.955388 0.612422 0.035062 -0.600378
C54   C     C_3   0.910459 0.608869 0.083064 -0.283349
H24   H     H_    0.876926 0.732174 0.077993 0.132639
H25   H     H_    0.938129 0.598626 0.136023 0.148188
H26   H     H_    0.877687 0.484024 0.073186 0.180273
O31   O     O_3   0.435553 0.838957 0.554924 -0.622395
C55   C     C_3   0.463097 0.009722 0.581564 -0.191231
H27   H     H_    0.513047 0.041207 0.566120 0.130227
H28   H     H_    0.466907 0.011931 0.637969 0.178572
H29   H     H_    0.428224 0.122098 0.561264 0.179811
O32   O     O_3   0.564745 0.161812 0.444465 -0.633593
C56   C     C_3   0.536989 0.990714 0.418384 -0.254420
H30   H     H_    0.533013 0.987282 0.361976 0.159240
H31   H     H_    0.487059 0.960017 0.434018 0.150479
H32   H     H_    0.571808 0.878452 0.438917 0.176469

loop_
_geom_bond_atom_site_label_1
_geom_bond_atom_site_label_2
_geom_bond_distance
_ccdc_geom_bond_type
C26   H10   1.082420 S    
C6    C20   1.492037 S    
C51   C52   1.422572 A    
O1    C5    1.328221 A    
C7    C17   1.505722 S    
O19   V1    1.766867 S    
O13   V1    1.978322 S    
O3    C7    1.326998 A    
C10   C14   1.401988 A    
O4    V2    1.998142 S    
O15   V3    1.985760 S    
C10   C30   1.403585 A    
O30   C54   1.409323 S    
C9    C29   1.402084 A    
C49   C50   1.421585 A    
O7    C3    1.331036 A    
C47   H16   1.083364 S    
C26   C30   1.407924 A    
C22   H6    1.083164 S    
C46   H13   1.083371 S    
O9    V1    2.008332 S    
C36   C43   1.404198 A    
O4    C8    1.326997 A    
N4    O27   1.301374 A    
C42   H17   1.083334 S    
C54   H24   1.113958 S    
C38   O30   1.383435 S    
C41   H18   1.079544 S    
O1    V3    1.997283 S    
C21   C25   1.400242 A    
O2    V4    1.997283 S    
C14   C18   1.419611 A    
O3    V1    1.998144 S    
C34   C45   1.401625 A    
C53   H21   1.110728 S    
C33   C46   1.402176 A    
C24   C28   1.400766 A    
C53   H22   1.114313 S    
C27   C31   1.406056 A    
C1    O15   1.343092 A    
C2    O16   1.343448 A    
C54   H25   1.112315 S    
O2    C6    1.329058 A    
C56   H32   1.109425 S    
O14   V2    1.978323 S    
C48   H15   1.083407 S    
C11   C31   1.402398 A    
C11   C15   1.402069 A    
C55   H29   1.109412 S    
O11   C7    1.344832 A    
O12   C8    1.338223 A    
C34   C41   1.410150 A    
C33   C42   1.408674 A    
O10   V2    2.008331 S    
C35   C44   1.404222 A    
N1    O22   1.301431 A    
C55   H28   1.110582 S    
N1    O21   1.301024 A    
O5    V1    1.985494 S    
O7    V3    1.998919 S    
C31   C32   1.496281 S    
C40   O32   1.395074 S    
C1    C35   1.491082 S    
C12   H4    1.082874 S    
C39   O31   1.395493 S    
O18   V4    1.759602 S    
C19   C23   1.404034 A    
C46   C50   1.416822 A    
O11   V3    2.006044 S    
C9    H1    1.083246 S    
O8    V4    1.998919 S    
C11   H3    1.083268 S    
O5    C1    1.332738 A    
C14   N2    1.430122 S    
C53   H23   1.109230 S    
C17   C21   1.403590 A    
O8    C4    1.331144 A    
C54   H26   1.109325 S    
N2    O24   1.300301 A    
C22   C26   1.400924 A    
O9    C5    1.345568 A    
N3    O26   1.301401 A    
C44   H19   1.082091 S    
C25   H9    1.082687 S    
C40   C51   1.413567 A    
C45   H14   1.083470 S    
O6    V2    1.985494 S    
C56   H30   1.110473 S    
C13   N1    1.424925 S    
C12   C16   1.404977 A    
C23   C27   1.400995 A    
C55   H27   1.113235 S    
C35   C48   1.401423 A    
O16   V4    1.985762 S    
C4    C34   1.496313 S    
C3    O13   1.345085 A    
C37   C41   1.413099 A    
C10   H2    1.083146 S    
O17   V3    1.759602 S    
C40   C44   1.415871 A    
C25   C29   1.406061 A    
C15   C19   1.423019 A    
C47   C51   1.417191 A    
O6    C2    1.332708 A    
O31   C55   1.412696 S    
C12   C32   1.403662 A    
C37   O29   1.394418 S    
C16   N4    1.434736 S    
O12   V4    2.006044 S    
C18   C22   1.405826 A    
C27   H11   1.082705 S    
C28   H12   1.082547 S    
C9    C13   1.401700 A    
O10   C6    1.337559 A    
O20   V2    1.766867 S    
C8    C18   1.491422 S    
C43   H20   1.081065 S    
C3    C33   1.493204 S    
O29   C53   1.411778 S    
C48   C52   1.416850 A    
N4    O28   1.300150 A    
C21   H5    1.071266 S    
N2    O23   1.300798 A    
C23   H7    1.071317 S    
C38   C49   1.408208 A    
C15   N3    1.424799 S    
C37   C50   1.408864 A    
C36   C47   1.401703 A    
C16   C20   1.421309 A    
C39   C52   1.413290 A    
C20   C24   1.405614 A    
C28   C32   1.407479 A    
C29   C30   1.495407 S    
C38   C42   1.404190 A    
C4    O14   1.346312 A    
N3    O25   1.301022 A    
C56   H31   1.113314 S    
C13   C17   1.423158 A    
C39   C43   1.415621 A    
C45   C49   1.415039 A    
C24   H8    1.083156 S    
O32   C56   1.412784 S    
C5    C19   1.506830 S    
C2    C36   1.491792 S    
