data_mof_unit_1807.cif
_audit_creation_date              2012-10-26T19:08:21-0400
_audit_creation_method            fapswitch 2.2
_symmetry_space_group_name_H-M    P1
_symmetry_Int_Tables_number       1
_space_group_crystal_system       triclinic
_cell_length_a                    14.835758
_cell_length_b                    15.09772
_cell_length_c                    19.202312
_cell_angle_alpha                 74.235402
_cell_angle_beta                  101.548495
_cell_angle_gamma                 116.36863
_cell_volume                      3692.79300024

loop_
_atom_site_label
_atom_site_type_symbol
_atom_type_description
_atom_site_fract_x
_atom_site_fract_y
_atom_site_fract_z
_atom_type_partial_charge
C1    C     C_R   0.879804 0.312717 0.511377 0.544382
C2    C     C_R   0.286137 0.819842 0.523722 -0.134449
C3    C     C_R   0.314850 0.163681 0.336296 -0.095746
C4    C     C_R   0.816064 0.949309 0.567770 0.047116
C5    C     C_R   0.769452 0.876209 0.524327 -0.085635
C6    C     C_R   0.809421 0.807096 0.526863 -0.113648
C7    C     C_R   0.897084 0.811081 0.571757 -0.102280
C8    C     C_R   0.944673 0.884004 0.614438 -0.092739
C9    C     C_R   0.904314 0.952534 0.612929 -0.079928
C10   C     C_R   0.159013 0.034114 0.467325 0.046688
C11   C     C_R   0.091909 0.046367 0.406338 -0.079078
C12   C     C_R   0.042534 0.108252 0.401675 -0.100936
C13   C     C_R   0.635046 0.077110 0.519707 0.004166
C14   C     C_R   0.058308 0.156713 0.458305 -0.099955
C15   C     C_R   0.121659 0.141516 0.520470 -0.113340
C16   C     C_R   0.171662 0.080131 0.525212 -0.092777
C17   C     C_R   0.354316 0.922223 0.516358 0.005808
C18   C     C_R   0.671405 0.002245 0.556739 0.026956
C19   C     C_R   0.316115 0.996896 0.483857 0.033087
C20   C     C_R   0.528731 0.050579 0.506276 0.005588
C21   C     C_R   0.460193 0.951053 0.534410 0.006833
C22   C     C_R   0.499063 0.883228 0.580479 -0.157208
C23   C     C_R   0.488619 0.120000 0.464750 -0.155197
C24   C     C_R   0.602660 0.907472 0.592091 -0.027608
C25   C     C_R   0.119294 0.686235 0.492411 0.549760
C26   C     C_R   0.385400 0.096432 0.456949 -0.023781
C27   C     C_R   0.711854 0.649204 0.362440 -0.049380
C28   C     C_R   0.289706 0.349387 0.634740 -0.044910
C29   C     C_R   0.999973 0.500657 0.631715 0.542057
C30   C     C_R   0.998854 0.498028 0.367764 0.543972
C31   C     C_R   0.796434 0.628650 0.390269 0.021521
C32   C     C_R   0.202570 0.365757 0.606390 0.017630
C33   C     C_R   0.717522 0.519964 0.497423 0.104562
C34   C     C_R   0.287369 0.491165 0.506496 0.104871
C35   C     C_R   0.633369 0.546219 0.474969 -0.023634
C36   C     C_R   0.810011 0.204641 0.519875 -0.017866
C37   C     C_R   0.371065 0.465075 0.526495 -0.028883
C38   C     C_R   0.626525 0.600453 0.402639 0.014009
C39   C     C_R   0.377285 0.406924 0.597101 0.017052
C40   C     C_R   0.550036 0.510006 0.517827 0.017430
C41   C     C_R   0.455251 0.506491 0.483702 0.013905
C42   C     C_R   0.447082 0.541675 0.407967 -0.130520
C43   C     C_R   0.558328 0.480282 0.593934 -0.143617
C44   C     C_R   0.531735 0.595104 0.369511 -0.124069
C45   C     C_R   0.473412 0.420045 0.631713 -0.136250
C46   C     C_R   0.997309 0.421726 0.762306 -0.144713
C47   C     C_R   0.185104 0.791972 0.496134 -0.016332
C48   C     C_R   0.930664 0.529170 0.238235 -0.135886
C49   C     C_R   0.993534 0.424030 0.833517 -0.138790
C50   C     C_R   0.929007 0.530544 0.165294 -0.138299
C51   C     C_R   0.996756 0.510425 0.849957 0.030316
C52   C     C_R   0.995510 0.502960 0.143388 0.038839
C53   C     C_R   0.002468 0.595565 0.793946 -0.012258
C54   C     C_R   0.062002 0.470080 0.195322 -0.012524
C55   C     C_R   0.003089 0.590828 0.722219 -0.146073
C56   C     C_R   0.057565 0.461594 0.269092 -0.151694
C57   C     C_R   0.000843 0.504564 0.706605 0.007403
C58   C     C_R   0.776693 0.026894 0.560554 -0.016578
C59   C     C_R   0.995861 0.495783 0.290940 -0.001902
C60   C     C_R   0.993998 0.508224 0.066362 0.330548
C61   C     C_R   0.996217 0.509931 0.925968 0.325851
C62   C     C_R   0.305271 0.592311 0.457766 0.093968
C63   C     C_R   0.382266 0.678970 0.479874 -0.096060
C64   C     C_R   0.414659 0.772588 0.431226 -0.121074
C65   C     C_R   0.367785 0.781978 0.360737 -0.106270
C66   C     C_R   0.292291 0.696660 0.337619 -0.127514
C67   C     C_R   0.263904 0.602484 0.385232 -0.064612
C68   C     C_R   0.708133 0.431077 0.558227 0.094931
C69   C     C_R   0.209152 0.966209 0.473688 -0.019377
C70   C     C_R   0.752955 0.442612 0.629045 -0.071769
C71   C     C_R   0.732711 0.359224 0.687069 -0.126723
C72   C     C_R   0.663529 0.263694 0.675967 -0.111601
C73   C     C_R   0.613577 0.251994 0.607152 -0.120193
C74   C     C_R   0.635661 0.335070 0.548649 -0.087270
C75   C     C_R   0.715012 0.721680 0.292089 0.010297
C76   C     C_R   0.692123 0.804367 0.286737 -0.100890
C77   C     C_R   0.696300 0.873467 0.220732 -0.113722
C78   C     C_R   0.723769 0.860907 0.159760 -0.101989
C79   C     C_R   0.747259 0.779289 0.164716 -0.111979
C80   C     C_R   0.844898 0.128766 0.546881 -0.148973
C81   C     C_R   0.743178 0.709972 0.230614 -0.103978
C82   C     C_R   0.287117 0.271910 0.702252 0.008784
C83   C     C_R   0.244620 0.267446 0.763028 -0.104761
C84   C     C_R   0.242024 0.193942 0.826240 -0.114732
C85   C     C_R   0.281718 0.124441 0.829364 -0.108432
C86   C     C_R   0.323478 0.127825 0.769100 -0.124050
C87   C     C_R   0.325615 0.200675 0.705623 -0.106108
C88   C     C_R   0.007300 0.689464 0.808356 0.045681
C89   C     C_R   0.936116 0.686056 0.848757 -0.071057
C90   C     C_R   0.942701 0.774871 0.862999 -0.100921
C91   C     C_R   0.145843 0.864584 0.475931 -0.150382
C92   C     C_R   0.018575 0.867994 0.835543 -0.097103
C93   C     C_R   0.088663 0.872270 0.794446 -0.122306
C94   C     C_R   0.083395 0.783570 0.780996 -0.098356
C95   C     C_R   0.139619 0.449160 0.173503 0.028119
C96   C     C_R   0.111909 0.371434 0.136114 -0.083174
C97   C     C_R   0.186224 0.355117 0.113525 -0.116816
C98   C     C_R   0.288436 0.415712 0.128489 -0.099598
C99   C     C_R   0.316571 0.492724 0.166138 -0.104362
C100  C     C_R   0.242513 0.509597 0.188541 -0.100507
C101  C     C_R   0.637181 0.840596 0.652163 0.039927
C102  C     C_R   0.706718 0.177498 0.500636 -0.132562
C103  C     C_R   0.694544 0.877338 0.713985 -0.085203
C104  C     C_R   0.724718 0.814309 0.772038 -0.108018
C105  C     C_R   0.697654 0.714132 0.768989 -0.093324
C106  C     C_R   0.640913 0.677074 0.707696 -0.101698
C107  C     C_R   0.610640 0.739896 0.649397 -0.090397
C108  C     C_R   0.351583 0.172303 0.408539 0.033109
C109  C     C_R   0.346097 0.246479 0.436244 -0.080181
C110  C     C_R   0.295096 0.304415 0.394146 -0.093972
C111  C     C_R   0.256072 0.293728 0.323035 -0.096477
C112  C     C_R   0.267843 0.224999 0.293481 -0.111328
Cu1   Cu    Cu3+1 0.081740 0.475680 0.518680 0.925999
Cu2   Cu    Cu3+1 0.918260 0.524320 0.481320 0.925308
H1    H     H_    0.995204 0.354635 0.750397 0.109866
H2    H     H_    0.877732 0.555888 0.125571 0.112998
H3    H     H_    0.005580 0.654513 0.678357 0.102033
H4    H     H_    0.101792 0.427407 0.308882 0.104189
H5    H     H_    0.311476 0.760541 0.546129 0.132060
H6    H     H_    0.684160 0.237649 0.474132 0.128687
H7    H     H_    0.065117 0.842113 0.463200 0.133865
H8    H     H_    0.925306 0.148782 0.555471 0.119328
H9    H     H_    0.449696 0.812124 0.611244 0.109338
H10   H     H_    0.535464 0.193183 0.435432 0.103745
H11   H     H_    0.418888 0.672994 0.534413 0.089536
H12   H     H_    0.880790 0.554533 0.253152 0.124664
H13   H     H_    0.476594 0.837833 0.447825 0.122265
H14   H     H_    0.392265 0.854598 0.323410 0.110642
H15   H     H_    0.259513 0.702459 0.281789 0.107606
H16   H     H_    0.218772 0.536420 0.363543 0.101585
H17   H     H_    0.799128 0.517395 0.640081 0.113588
H18   H     H_    0.768126 0.369359 0.741071 0.120824
H19   H     H_    0.646294 0.199333 0.721104 0.110042
H20   H     H_    0.556460 0.178763 0.599635 0.121561
H21   H     H_    0.593583 0.325898 0.496239 0.094228
H22   H     H_    0.671544 0.815479 0.333741 0.106897
H23   H     H_    0.520764 0.624748 0.311944 0.123660
H24   H     H_    0.678482 0.936905 0.216905 0.106592
H25   H     H_    0.727016 0.914507 0.108708 0.106871
H26   H     H_    0.768625 0.769708 0.117472 0.102455
H27   H     H_    0.761160 0.646859 0.233564 0.093704
H28   H     H_    0.214432 0.321370 0.761797 0.103270
H29   H     H_    0.209437 0.191029 0.872897 0.102290
H30   H     H_    0.279585 0.067571 0.878332 0.113054
H31   H     H_    0.353516 0.073465 0.771384 0.104794
H32   H     H_    0.357066 0.201424 0.659062 0.106015
H33   H     H_    0.875529 0.614806 0.869203 0.109189
H34   H     H_    0.484151 0.391762 0.689534 0.130005
H35   H     H_    0.888554 0.771468 0.895039 0.093155
H36   H     H_    0.022947 0.936813 0.845959 0.103363
H37   H     H_    0.146732 0.944325 0.772501 0.113235
H38   H     H_    0.138845 0.788301 0.749426 0.102749
H39   H     H_    0.033017 0.323777 0.124422 0.122565
H40   H     H_    0.164597 0.295264 0.084621 0.101414
H41   H     H_    0.345820 0.402662 0.111215 0.108445
H42   H     H_    0.395721 0.539322 0.177989 0.110783
H43   H     H_    0.265249 0.569891 0.217291 0.098548
H44   H     H_    0.715157 0.954560 0.717367 0.104266
H45   H     H_    0.134385 0.324034 0.634146 0.120412
H46   H     H_    0.768343 0.843036 0.819596 0.096003
H47   H     H_    0.720181 0.665006 0.814217 0.102628
H48   H     H_    0.620059 0.599484 0.705694 0.104134
H49   H     H_    0.568293 0.710626 0.601899 0.100680
H50   H     H_    0.373608 0.253455 0.492058 0.107479
H51   H     H_    0.281276 0.353949 0.417655 0.107456
H52   H     H_    0.214177 0.336543 0.291804 0.120701
H53   H     H_    0.236826 0.216114 0.238560 0.110441
H54   H     H_    0.318848 0.106708 0.314352 0.104674
H55   H     H_    0.702690 0.873357 0.487885 0.099851
H56   H     H_    0.862276 0.663575 0.360071 0.130995
H57   H     H_    0.773144 0.751335 0.493268 0.117344
H58   H     H_    0.928600 0.758269 0.572948 0.113956
H59   H     H_    0.013645 0.888250 0.647964 0.112414
H60   H     H_    0.942345 0.008452 0.646464 0.093858
H61   H     H_    0.079317 0.009405 0.362003 0.100501
H62   H     H_    0.992612 0.119220 0.353926 0.105235
H63   H     H_    0.021364 0.205970 0.453886 0.123999
H64   H     H_    0.132107 0.177278 0.564940 0.107305
H65   H     H_    0.220503 0.068834 0.573658 0.095293
H66   H     H_    0.375199 0.526065 0.376865 0.097482
H67   H     H_    0.629871 0.505920 0.625152 0.105830
H68   H     H_    0.989785 0.358860 0.876200 0.121110
N1    N     N_R   0.919144 0.437521 0.964432 -0.249881
N2    N     N_R   0.071495 0.580306 0.028140 -0.215066
N3    N     N_R   0.917885 0.436877 0.033585 -0.244376
N4    N     N_R   0.072274 0.581527 0.958742 -0.210416
N5    N     N_R   0.795420 0.560800 0.453240 -0.251673
N6    N     N_R   0.204580 0.439200 0.546760 -0.247425
O1    O     O_R   0.977910 0.338110 0.524620 -0.515816
O2    O     O_R   0.022090 0.661890 0.475380 -0.514621
O3    O     O_R   0.839850 0.379180 0.493080 -0.489056
O4    O     O_R   0.160150 0.620820 0.506920 -0.487771
O5    O     O_R   0.069040 0.479450 0.615630 -0.499776
O6    O     O_R   0.930960 0.520550 0.384370 -0.506871
O7    O     O_R   0.930990 0.520520 0.584090 -0.507229
O8    O     O_R   0.069010 0.479480 0.415910 -0.507941

loop_
_geom_bond_atom_site_label_1
_geom_bond_atom_site_label_2
_ccdc_geom_bond_type
C60   N2    A    
C4    C9    A    
C101  C107  A    
C60   N3    A    
Cu2   O2    S    
C87   H32   S    
C34   C37   A    
C41   C42   A    
C111  C112  A    
C51   C61   S    
C78   H25   S    
C97   C98   A    
C76   H22   S    
C7    C8    A    
C80   H8    S    
C77   C78   A    
C47   C91   A    
C46   C49   A    
C93   C94   A    
C13   C18   A    
C109  H50   S    
C83   C84   A    
C18   C24   A    
C21   C22   A    
C25   O2    A    
N1    N3    A    
C5    C6    A    
C110  H51   S    
C106  C107  A    
C27   C38   A    
C68   C74   A    
C82   C87   A    
C45   H34   S    
C34   C62   S    
C108  C109  A    
C36   C102  A    
C24   C101  S    
C73   C74   A    
C23   C26   A    
C19   C26   A    
C110  C111  A    
C92   C93   A    
C52   C60   S    
C17   C19   A    
C71   H18   S    
C100  H43   S    
C18   C58   A    
C40   C43   A    
C30   O8    A    
C95   C96   A    
C42   H66   S    
C8    C9    A    
C49   C51   A    
C50   C52   A    
C70   C71   A    
C25   C47   S    
C77   H24   S    
C16   H65   S    
C58   C80   A    
C39   C45   A    
C66   H15   S    
C48   C50   A    
C66   C67   A    
C101  C103  A    
C7    H58   S    
C74   H21   S    
C2    C17   A    
Cu1   O5    S    
C42   C44   A    
C104  H46   S    
C90   H35   S    
C27   C75   S    
C85   H30   S    
C104  C105  A    
C52   C54   A    
C3    H54   S    
C6    C7    A    
C88   C94   A    
C6    H57   S    
C53   C55   A    
C54   C56   A    
C61   N1    A    
Cu2   O7    S    
C32   N6    A    
C28   C82   S    
C65   H14   S    
C22   H9    S    
C35   C38   A    
C84   C85   A    
C95   C100  A    
C72   C73   A    
C36   C80   A    
C26   C108  S    
C79   C81   A    
C8    H59   S    
C75   C81   A    
C28   C39   A    
C46   H1    S    
C85   C86   A    
C112  H53   S    
C27   C31   A    
C43   H67   S    
C17   C21   A    
Cu2   N5    S    
C49   H68   S    
C51   C53   A    
C75   C76   A    
C96   C97   A    
C38   C44   A    
C62   C63   A    
C90   C92   A    
C96   H39   S    
C20   C23   A    
C28   C32   A    
C3    C112  A    
C2    H5    S    
C64   H13   S    
C99   H42   S    
C20   C21   A    
C9    H60   S    
C33   N5    A    
C111  H52   S    
C97   H40   S    
C73   H20   S    
C34   N6    A    
C43   C45   A    
C54   C95   S    
C63   H11   S    
C44   H23   S    
C62   C67   A    
C40   C41   A    
C70   H17   S    
C107  H49   S    
C98   C99   A    
C55   C57   A    
C46   C57   A    
C92   H36   S    
C2    C47   A    
Cu1   O8    S    
C22   C24   A    
C93   H37   S    
C67   H16   S    
C31   N5    A    
C86   H31   S    
C1    O3    A    
C102  H6    S    
C48   C59   A    
Cu1   Cu2   S    
C55   H3    S    
C89   H33   S    
Cu1   O4    S    
C98   H41   S    
Cu2   O3    S    
Cu2   O6    S    
C13   C20   A    
C86   C87   A    
C56   H4    S    
C29   C57   S    
C4    C5    A    
C25   O4    A    
C83   H28   S    
C11   C12   A    
C13   C102  A    
C103  H44   S    
C23   H10   S    
C31   H56   S    
C3    C108  A    
Cu1   O1    S    
C105  C106  A    
C11   H61   S    
C84   H29   S    
C56   C59   A    
C12   H62   S    
C64   C65   A    
C32   H45   S    
C35   C40   A    
C12   C14   A    
C71   C72   A    
C37   C39   A    
C29   O7    A    
C99   C100  A    
C76   C77   A    
C78   C79   A    
C72   H19   S    
C30   O6    A    
C29   O5    A    
C81   H27   S    
C61   N4    A    
C33   C35   A    
N2    N4    A    
C79   H26   S    
C53   C88   S    
C50   H2    S    
C106  H48   S    
C37   C41   A    
C14   H63   S    
C19   C69   A    
C10   C11   A    
C48   H12   S    
C63   C64   A    
C10   C69   S    
C109  C110  A    
C88   C89   A    
C33   C68   S    
C68   C70   A    
C65   C66   A    
C91   H7    S    
C15   H64   S    
C4    C58   S    
C103  C104  A    
C30   C59   S    
C5    H55   S    
C14   C15   A    
Cu1   N6    S    
C105  H47   S    
C10   C16   A    
C82   C83   A    
C89   C90   A    
C69   C91   A    
C94   H38   S    
C15   C16   A    
C1    C36   S    
C1    O1    A    
