data_mof_unit_921.cif
_audit_creation_date              2012-12-11T14:08:31-0500
_audit_creation_method            fapswitch 2.2
_symmetry_space_group_name_H-M    P1
_symmetry_Int_Tables_number       1
_space_group_crystal_system       triclinic
_cell_length_a                    28.203299
_cell_length_b                    7.178345
_cell_length_c                    17.305565
_cell_angle_alpha                 89.909334
_cell_angle_beta                  101.92729
_cell_angle_gamma                 89.881126
_cell_volume                      3427.909478

loop_
_atom_site_label
_atom_site_type_symbol
_atom_type_description
_atom_site_fract_x
_atom_site_fract_y
_atom_site_fract_z
_atom_type_partial_charge
O1    O     O_R   0.000700 0.436510 0.857920 -0.561738
O2    O     O_R   0.999300 0.563490 0.142080 -0.561756
O3    O     O_R   0.999300 0.936510 0.642080 -0.562004
O4    O     O_R   0.000700 0.063490 0.357920 -0.561988
O5    O     O_R   0.930080 0.766380 0.721890 -0.506268
O6    O     O_R   0.069920 0.233620 0.278110 -0.506271
O7    O     O_R   0.069920 0.266380 0.778110 -0.505812
O8    O     O_R   0.930080 0.733620 0.221890 -0.505812
C1    C     C_R   0.910464 0.597987 0.709015 0.769855
C2    C     C_R   0.089536 0.402013 0.290986 0.769833
C3    C     C_R   0.089502 0.097459 0.791109 0.769637
C4    C     C_R   0.910498 0.902541 0.208891 0.769608
O9    O     O_R   0.996180 0.766230 0.862310 -0.503423
O10   O     O_R   0.003820 0.233770 0.137690 -0.503464
O11   O     O_R   0.003820 0.266230 0.637690 -0.504091
O12   O     O_R   0.996180 0.733770 0.362310 -0.504080
O13   O     O_R   0.065870 0.936460 0.783500 -0.548623
O14   O     O_R   0.934130 0.063540 0.216500 -0.548619
O15   O     O_R   0.934130 0.436460 0.716500 -0.547059
O16   O     O_R   0.065870 0.563540 0.283500 -0.547053
C5    C     C_R   0.997870 0.595615 0.894117 0.725173
C6    C     C_R   0.002123 0.404383 0.105880 0.725016
C7    C     C_R   0.002058 0.095784 0.605822 0.721223
C8    C     C_R   0.997942 0.904216 0.394178 0.721266
O17   O     O_3   0.022790 0.603020 0.723980 -0.369107
O18   O     O_3   0.977210 0.396980 0.276020 -0.369082
O19   O     O_3   0.977210 0.103020 0.776020 -0.367496
O20   O     O_3   0.022790 0.896980 0.223980 -0.367530
V1    V     V_3+5 0.995770 0.877900 0.754830 1.603643
V2    V     V_3+5 0.004230 0.122100 0.245170 1.603509
V3    V     V_3+5 0.004230 0.377900 0.745170 1.603009
V4    V     V_3+5 0.995770 0.622100 0.254830 1.602949
C9    C     C_2   0.009721 0.074339 0.523552 -0.249212
C10   C     C_2   0.990279 0.925659 0.476448 -0.249229
C11   C     C_2   0.990090 0.574047 0.976277 -0.250507
C12   C     C_2   0.009892 0.425948 0.023716 -0.250520
C13   C     C_R   0.683949 0.998339 0.027010 0.799613
C14   C     C_R   0.316051 0.001678 0.972992 0.799609
C15   C     C_R   0.316729 0.438942 0.474527 0.789918
C16   C     C_R   0.683271 0.561061 0.525463 0.789956
O21   O     O_2   0.713964 0.019673 0.976231 -0.425292
O22   O     O_2   0.286036 0.980342 0.023772 -0.425306
O23   O     O_2   0.286961 0.428165 0.526166 -0.426730
O24   O     O_2   0.713040 0.571807 0.473824 -0.426716
N1    N     N_R   0.702956 0.957177 0.104594 -0.547019
N2    N     N_R   0.297044 0.042837 0.895408 -0.547017
N3    N     N_R   0.297304 0.441794 0.395154 -0.544644
N4    N     N_R   0.702695 0.558226 0.604836 -0.544644
C17   C     C_R   0.673481 0.935636 0.157660 0.708006
C18   C     C_R   0.326519 0.064381 0.842343 0.707997
C19   C     C_R   0.326516 0.447010 0.341124 0.710695
C20   C     C_R   0.673482 0.553047 0.658865 0.710662
C21   C     C_R   0.776440 0.770719 0.155717 -0.183684
C22   C     C_R   0.223560 0.229287 0.844280 -0.183693
C23   C     C_R   0.223467 0.264893 0.338655 -0.192942
C24   C     C_R   0.776532 0.735097 0.661367 -0.192939
C25   C     C_R   0.826785 0.755465 0.181229 0.633707
C26   C     C_R   0.173214 0.244537 0.818767 0.633690
C27   C     C_R   0.173078 0.253300 0.313262 0.631872
C28   C     C_R   0.826921 0.746682 0.686766 0.631897
C29   C     C_R   0.834464 0.086541 0.158732 -0.302675
C30   C     C_R   0.165536 0.913466 0.841273 -0.302695
C31   C     C_R   0.165964 0.579209 0.345949 -0.300651
C32   C     C_R   0.834036 0.420815 0.654024 -0.300647
C33   C     C_R   0.784206 0.100932 0.133343 0.730471
C34   C     C_R   0.215794 0.899077 0.866663 0.730457
C35   C     C_R   0.216353 0.589709 0.371535 0.725906
C36   C     C_R   0.783648 0.410319 0.628434 0.725896
C37   C     C_R   0.754840 0.942865 0.131331 0.107968
C38   C     C_R   0.245160 0.057145 0.868671 0.107973
C39   C     C_R   0.245398 0.432389 0.368125 0.121670
C40   C     C_R   0.754601 0.567624 0.631868 0.121674
C41   C     C_R   0.602346 0.985941 0.052949 -0.155580
C42   C     C_R   0.397654 0.014082 0.947054 -0.155578
C43   C     C_R   0.397991 0.462359 0.447565 -0.154915
C44   C     C_R   0.602007 0.537694 0.552422 -0.154919
C45   C     C_R   0.633344 0.017336 0.999972 -0.260014
C46   C     C_R   0.366657 0.982685 0.000031 -0.260009
C47   C     C_R   0.367512 0.446056 0.502347 -0.255341
C48   C     C_R   0.632487 0.553967 0.497641 -0.255353
C49   C     C_R   0.613177 0.077821 0.923061 0.590133
C50   C     C_R   0.386823 0.922202 0.076942 0.590126
C51   C     C_R   0.388705 0.425528 0.582697 0.582467
C52   C     C_R   0.611296 0.574486 0.417290 0.582464
C53   C     C_R   0.622825 0.951023 0.132978 -0.112601
C54   C     C_R   0.377175 0.048999 0.867025 -0.112601
C55   C     C_R   0.377257 0.455976 0.366295 -0.107707
C56   C     C_R   0.622740 0.544095 0.633692 -0.107698
C57   C     C_R   0.856680 0.913954 0.182911 -0.289769
C58   C     C_R   0.143320 0.086049 0.817089 -0.289774
C59   C     C_R   0.143424 0.410993 0.316709 -0.285278
C60   C     C_R   0.856576 0.589008 0.683292 -0.285249
H1    H     H_    0.855946 0.211427 0.158965 0.227874
H2    H     H_    0.144054 0.788580 0.841044 0.227864
H3    H     H_    0.144610 0.703098 0.349800 0.218144
H4    H     H_    0.855391 0.296941 0.650151 0.218082
C61   C     C_R   0.479600 0.031064 0.918435 -0.006264
C62   C     C_R   0.520400 0.968963 0.081568 -0.006262
C63   C     C_R   0.520538 0.510500 0.582466 -0.001836
C64   C     C_R   0.479460 0.489574 0.417520 -0.001844
C65   C     C_R   0.469085 0.963240 0.053915 -0.120618
C66   C     C_R   0.530915 0.036787 0.946088 -0.120620
C67   C     C_R   0.530235 0.521402 0.443833 -0.123436
C68   C     C_R   0.469764 0.478660 0.556153 -0.123440
C69   C     C_R   0.449009 0.005521 0.973500 -0.062724
C70   C     C_R   0.550991 0.994505 0.026502 -0.062725
C71   C     C_R   0.550777 0.520342 0.526111 -0.066637
C72   C     C_R   0.449221 0.479722 0.473874 -0.066637
C73   C     C_R   0.457339 0.036282 0.836912 0.760925
C74   C     C_R   0.542661 0.963746 0.163090 0.760936
C75   C     C_R   0.542217 0.546660 0.662718 0.754825
C76   C     C_R   0.457780 0.453433 0.337266 0.754840
C77   C     C_R   0.407365 0.055103 0.812489 -0.118358
C78   C     C_R   0.592636 0.944922 0.187513 -0.118347
C79   C     C_R   0.592359 0.553112 0.687875 -0.121901
C80   C     C_R   0.407637 0.446986 0.312111 -0.121899
O25   O     O_2   0.306872 0.098527 0.765692 -0.459271
O26   O     O_2   0.693128 0.901488 0.234311 -0.459268
O27   O     O_2   0.693447 0.556071 0.736758 -0.467465
O28   O     O_2   0.306549 0.444002 0.263231 -0.467471
C81   C     C_R   0.563168 0.096969 0.898089 0.621218
C82   C     C_R   0.436832 0.903057 0.101914 0.621217
C83   C     C_R   0.438891 0.431559 0.608462 0.625736
C84   C     C_R   0.561110 0.568484 0.391524 0.625738
H5    H     H_    0.245941 0.352026 0.845373 0.231160
H6    H     H_    0.754058 0.647980 0.154621 0.231165
H7    H     H_    0.754368 0.857222 0.664304 0.221990
H8    H     H_    0.245631 0.142754 0.335738 0.222019
H9    H     H_    0.392207 0.064565 0.749744 0.233148
H10   H     H_    0.607793 0.935461 0.250259 0.233141
H11   H     H_    0.607213 0.575071 0.750099 0.217752
H12   H     H_    0.392782 0.425043 0.249886 0.217758
C85   C     C_2   0.046855 0.199403 0.500673 0.468708
H13   H     H_    0.068922 0.152088 0.460081 0.042459
O29   O     O_2   0.053927 0.355882 0.528135 -0.499902
C86   C     C_2   0.953148 0.800585 0.499329 0.468704
H14   H     H_    0.931083 0.847886 0.539926 0.042443
O30   O     O_2   0.946075 0.644111 0.471863 -0.499904
C87   C     C_2   0.952531 0.698210 0.998715 0.468921
H15   H     H_    0.930820 0.651024 0.039849 0.045301
O31   O     O_2   0.944670 0.853743 0.970226 -0.498748
C88   C     C_2   0.047438 0.301756 0.001262 0.468899
H16   H     H_    0.069204 0.349069 0.960231 0.045221
O32   O     O_2   0.055213 0.146045 0.029606 -0.498811
F1    F     F_    0.764022 0.269437 0.111021 -0.631704
F2    F     F_    0.235979 0.730576 0.888990 -0.631711
F3    F     F_    0.236944 0.753373 0.399570 -0.633923
F4    F     F_    0.763058 0.246672 0.600374 -0.633913
F5    F     F_    0.641766 0.131738 0.872817 -0.561979
F6    F     F_    0.358235 0.868284 0.127186 -0.561990
F7    F     F_    0.361324 0.386746 0.636710 -0.569290
F8    F     F_    0.638679 0.613238 0.363277 -0.569288
F9    F     F_    0.154210 0.414293 0.795434 -0.642816
F10   F     F_    0.845789 0.585706 0.204556 -0.642813
F11   F     F_    0.846212 0.912083 0.715244 -0.639945
F12   F     F_    0.153786 0.087873 0.284818 -0.640009
F13   F     F_    0.482265 0.999616 0.779516 -0.556073
F14   F     F_    0.517735 0.000416 0.220486 -0.556089
F15   F     F_    0.515873 0.599707 0.716222 -0.564463
F16   F     F_    0.484121 0.400396 0.283758 -0.564462
F17   F     F_    0.547654 0.196804 0.830969 -0.548768
F18   F     F_    0.452346 0.803225 0.169034 -0.548772
F19   F     F_    0.456600 0.367443 0.682588 -0.546456
F20   F     F_    0.543404 0.632609 0.317399 -0.546461

loop_
_geom_bond_atom_site_label_1
_geom_bond_atom_site_label_2
_ccdc_geom_bond_type
O17   V3    S    
O1    C5    A    
C62   C74   A    
C23   C27   A    
O19   V1    S    
C18   O25   S    
O13   V1    S    
O3    C7    A    
C11   C12   D    
C76   C80   A    
C48   C52   A    
C73   F13   S    
C68   C83   A    
C79   H11   S    
O7    C3    A    
C25   C57   A    
C54   C77   A    
C32   C36   A    
O9    V1    S    
C53   C78   A    
O10   V2    S    
C14   O22   S    
N4    C20   A    
C22   C26   A    
O4    C8    A    
C33   C37   A    
C31   H3    S    
O1    V3    S    
C83   F19   S    
O2    V4    S    
C62   C70   A    
C24   H7    S    
O3    V1    S    
C75   F15   S    
C12   C88   S    
C11   C87   S    
C1    O15   A    
C2    O16   A    
C24   C40   A    
C80   H12   S    
O2    C6    A    
C16   C48   A    
C63   C75   A    
O14   V2    S    
C10   C86   S    
C66   C81   A    
C44   C56   A    
O5    V1    S    
C61   C66   A    
C74   F14   S    
C73   C77   A    
C61   C69   A    
O11   C7    A    
C63   C68   A    
O15   V3    S    
C43   C72   A    
O12   C8    A    
C78   H10   S    
C31   C59   A    
N4    C40   S    
C67   C84   A    
C1    C60   S    
C29   C57   A    
C9    C10   D    
C51   F7    S    
C28   C60   A    
C65   C69   A    
C22   H5    S    
C31   C35   A    
C64   C72   A    
O7    V3    S    
C30   C34   A    
N1    C37   S    
O8    V4    S    
C17   C53   A    
C4    C57   S    
C20   C56   A    
C32   H4    S    
C86   O30   D    
C19   C55   A    
C21   C25   A    
O18   V4    S    
N3    C19   A    
C14   C46   A    
C7    C9    S    
C21   C37   A    
C13   C45   A    
C64   C67   A    
C8    C10   S    
C24   C28   A    
C49   C81   A    
C36   C40   A    
C15   C47   A    
O5    C1    A    
C26   F9    S    
C9    C85   S    
C61   C73   A    
C46   C50   A    
C17   O26   S    
C22   C38   A    
N1    C17   A    
O8    C4    A    
C81   F17   S    
C19   O28   S    
O9    C5    A    
C27   C59   A    
C42   C54   A    
C26   C58   A    
N3    C39   S    
C55   C80   A    
C50   F6    S    
C77   H9    S    
C52   F8    S    
C43   C55   A    
O6    V2    S    
C2    C59   S    
C64   C76   A    
C44   C71   A    
C30   H2    S    
C35   F3    S    
C85   H13   S    
C88   O32   D    
C52   C84   A    
C32   C60   A    
C13   N1    A    
C68   C72   A    
C34   F2    S    
C63   C71   A    
C87   H15   S    
C15   N3    A    
O16   V4    S    
C16   N4    A    
C74   C78   A    
C3    O13   A    
C76   F16   S    
C44   C48   A    
C86   H14   S    
C36   F4    S    
O6    C2    A    
C15   O23   S    
C27   F12   S    
O11   V3    S    
C5    C11   S    
O12   V4    S    
C62   C65   A    
C6    C12   S    
C25   F10   S    
N2    C18   A    
C65   C82   A    
C82   F18   S    
O10   C6    A    
C56   C79   A    
O20   V2    S    
C28   F11   S    
C41   C53   A    
N2    C38   S    
C42   C69   A    
C47   C51   A    
C87   O31   D    
C3    C58   S    
C41   C70   A    
C34   C38   A    
C43   C47   A    
C49   F5    S    
C30   C58   A    
C66   C70   A    
C35   C39   A    
C13   O21   S    
O4    V2    S    
C14   N2    A    
C21   H6    S    
C18   C54   A    
C20   O27   S    
C29   C33   A    
C16   O24   S    
C23   H8    S    
C75   C79   A    
C45   C49   A    
C42   C46   A    
C4    O14   A    
C85   O29   D    
C41   C45   A    
C88   H16   S    
C67   C71   A    
C51   C83   A    
C29   H1    S    
C33   F1    S    
C50   C82   A    
C23   C39   A    
C84   F20   S    
