data_mof_unit_4748.cif
_audit_creation_date              2013-03-05T15:49:43-0500
_audit_creation_method            fapswitch 2.2
_symmetry_space_group_name_H-M    P1
_symmetry_Int_Tables_number       1
_space_group_crystal_system       triclinic
_cell_length_a                    13.4613
_cell_length_b                    13.517986
_cell_length_c                    27.57301
_cell_angle_alpha                 90.569869
_cell_angle_beta                  90.321619
_cell_angle_gamma                 60.104876
_cell_volume                      4349.60873911

loop_
_atom_site_label
_atom_site_type_symbol
_atom_site_description
_atom_site_fract_x
_atom_site_fract_y
_atom_site_fract_z
_atom_type_partial_charge
O1    O     O_R   0.301780 0.195490 0.553940 -0.487218
O2    O     O_R   0.522450 0.158840 0.550250 -0.496193
C1    C     C_R   0.620121 0.100265 0.570256 0.543267
O3    O     O_R   0.694460 0.003360 0.553820 -0.499214
O4    O     O_R   0.657750 0.819520 0.549120 -0.484251
C2    C     C_R   0.600383 0.778576 0.568103 0.554146
O5    O     O_R   0.501990 0.803120 0.552700 -0.504379
O6    O     O_R   0.318230 0.023430 0.549370 -0.494513
C3    C     C_R   0.278556 0.121201 0.569550 0.562479
O7    O     O_R   0.302950 0.194150 0.446980 -0.466282
O8    O     O_R   0.523540 0.157600 0.451100 -0.509683
C4    C     C_R   0.622262 0.100371 0.431673 0.539294
O9    O     O_R   0.695630 0.002030 0.446860 -0.489552
O10   O     O_R   0.658840 0.818280 0.449970 -0.447407
C5    C     C_R   0.601368 0.777165 0.430188 0.556813
O11   O     O_R   0.503160 0.801780 0.445740 -0.530498
O12   O     O_R   0.319320 0.022190 0.450230 -0.507454
C6    C     C_R   0.280157 0.119573 0.430665 0.595669
Cr1   Cr    Cr6+3 0.417550 0.169090 0.500530 1.075791
Cr2   Cr    Cr6+3 0.669180 0.913420 0.499920 1.109193
Cr3   Cr    Cr6+3 0.413260 0.917540 0.499520 1.049914
O13   O     O_3   0.499990 0.000010 0.499990 -0.281676
C7    C     C_3   0.755522 0.543946 0.726740 -0.104581
C8    C     C_3   0.794123 0.599845 0.765703 0.252423
H1    H     H_    0.812616 0.466630 0.705076 0.115028
H2    H     H_    0.743066 0.783925 0.737560 0.125092
C9    C     C_1   0.718489 0.555081 0.892253 0.017717
C10   C     C_1   0.635112 0.726789 0.614466 0.003795
C11   C     C_3   0.657164 0.559840 0.760983 -0.148501
C12   C     C_3   0.698460 0.614422 0.799601 0.036618
C13   C     C_3   0.577493 0.679823 0.739874 -0.112470
C14   C     C_3   0.675833 0.663730 0.706528 0.022224
C15   C     C_3   0.619062 0.734137 0.778997 -0.141353
C16   C     C_3   0.716945 0.719421 0.744734 -0.087083
C17   C     C_1   0.709346 0.583855 0.850670 -0.007431
C18   C     C_1   0.657223 0.694051 0.655480 -0.037479
H3    H     H_    0.562860 0.811756 0.800699 0.116344
H4    H     H_    0.487192 0.713202 0.728419 0.124929
H5    H     H_    0.629008 0.497152 0.768026 0.109351
C19   C     C_3   0.134149 0.089851 0.740236 -0.092830
C20   C     C_3   0.230055 0.052314 0.779154 -0.117317
H6    H     H_    0.278427 0.966345 0.795572 0.114577
H7    H     H_    0.101902 0.035771 0.723936 0.114905
H8    H     H_    0.376539 0.074596 0.742013 0.107288
C21   C     C_1   0.100750 0.198941 0.900965 0.011107
C22   C     C_1   0.233479 0.135656 0.617711 0.002474
C23   C     C_3   0.061503 0.201857 0.768794 0.032363
C24   C     C_3   0.156152 0.164593 0.807114 0.061642
C25   C     C_3   0.113740 0.262111 0.740182 -0.054489
C26   C     C_3   0.187572 0.149859 0.712360 0.025082
C27   C     C_3   0.209520 0.224402 0.778964 -0.080035
C28   C     C_3   0.284018 0.111940 0.750319 -0.122875
C29   C     C_1   0.131332 0.178818 0.859266 -0.027593
C30   C     C_1   0.208211 0.143090 0.659984 -0.048332
H9    H     H_    0.240784 0.279278 0.795272 0.138523
H10   H     H_    0.064948 0.347262 0.723221 0.171874
C31   C     C_3   0.570467 0.267129 0.743725 -0.095077
C32   C     C_3   0.546370 0.197538 0.781558 -0.094750
H11   H     H_    0.462017 0.222743 0.798154 0.111955
H12   H     H_    0.506165 0.350307 0.728190 0.119743
H13   H     H_    0.596057 0.021543 0.742229 0.098345
C33   C     C_1   0.687147 0.203765 0.902748 -0.004068
C34   C     C_1   0.633495 0.128693 0.619165 -0.004465
C35   C     C_3   0.678762 0.244962 0.772308 -0.109732
C36   C     C_3   0.654687 0.175328 0.809335 0.049558
C37   C     C_3   0.752424 0.134780 0.742490 -0.101345
C38   C     C_3   0.644389 0.157058 0.714574 0.050899
C39   C     C_3   0.728428 0.065194 0.780169 -0.095445
C40   C     C_3   0.620045 0.087041 0.751485 -0.102232
C41   C     C_1   0.667716 0.189338 0.861347 -0.048008
C42   C     C_1   0.639673 0.144551 0.661890 -0.049747
H14   H     H_    0.792937 0.982087 0.795693 0.128304
H15   H     H_    0.836904 0.109333 0.725944 0.112099
H16   H     H_    0.702951 0.309493 0.782413 0.096914
C43   C     C_R   0.632238 0.729150 0.381120 0.001411
C44   C     C_R   0.727383 0.723230 0.356934 0.206392
C45   C     C_R   0.727701 0.723244 0.306485 -0.116326
C46   C     C_R   0.640367 0.719764 0.280105 -0.015772
C47   C     C_R   0.552214 0.712764 0.304061 -0.021514
C48   C     C_R   0.548939 0.717828 0.354444 -0.136396
C49   C     C_R   0.587573 0.763116 0.192811 -0.116569
C50   C     C_R   0.605657 0.725024 0.144780 -0.125728
C51   C     C_R   0.771620 0.545770 0.170219 -0.019306
C52   C     C_R   0.752421 0.584756 0.217578 -0.093712
C53   C     C_R   0.660859 0.691697 0.228974 0.016427
C54   C     C_R   0.697754 0.616786 0.133267 0.050011
H17   H     H_    0.515684 0.846109 0.201942 0.116445
H18   H     H_    0.547294 0.778655 0.116823 0.133738
H19   H     H_    0.799929 0.719114 0.287412 0.162741
H20   H     H_    0.807243 0.530135 0.246302 0.132852
H21   H     H_    0.477569 0.718539 0.372765 0.163076
C55   C     C_R   0.244465 0.129156 0.380189 0.020243
C56   C     C_R   0.322258 0.042680 0.348948 -0.162181
C57   C     C_R   0.308020 0.053336 0.299244 -0.139735
C58   C     C_R   0.213884 0.149257 0.279991 -0.011483
C59   C     C_R   0.134915 0.236152 0.310507 -0.095682
C60   C     C_R   0.149339 0.227786 0.361055 0.199302
C61   C     C_R   0.216736 0.228689 0.199071 -0.055083
C62   C     C_R   0.180143 0.248128 0.150414 0.165326
C63   C     C_R   0.112900 0.110669 0.157875 0.178285
C64   C     C_R   0.148179 0.092033 0.206565 -0.019767
C65   C     C_R   0.194049 0.156046 0.227554 -0.024823
C66   C     C_R   0.120292 0.195792 0.130733 -0.035933
H22   H     H_    0.397682 0.968633 0.363044 0.133407
H23   H     H_    0.369933 0.986591 0.275712 0.123733
H24   H     H_    0.061590 0.309414 0.294701 0.150317
C67   C     C_R   0.643509 0.140290 0.385732 -0.025842
C68   C     C_R   0.559970 0.244887 0.366491 -0.099732
C69   C     C_R   0.563729 0.271144 0.317814 0.213620
C70   C     C_R   0.654835 0.190452 0.288365 0.000424
C71   C     C_R   0.743576 0.091201 0.309230 -0.158615
C72   C     C_R   0.738186 0.066363 0.357447 -0.121281
C73   C     C_R   0.681641 0.115703 0.203802 -0.104708
C74   C     C_R   0.697131 0.125363 0.154525 -0.077939
C75   C     C_R   0.662594 0.317435 0.168984 -0.102685
C76   C     C_R   0.652478 0.305855 0.218328 -0.052075
C77   C     C_R   0.660867 0.205390 0.236027 0.059083
C78   C     C_R   0.687725 0.226341 0.137060 0.054661
H25   H     H_    0.487128 0.303074 0.388410 0.175599
H26   H     H_    0.688740 0.037243 0.217052 0.115980
H27   H     H_    0.718230 0.054004 0.130307 0.136659
H28   H     H_    0.639594 0.374579 0.242727 0.139104
H29   H     H_    0.657211 0.395402 0.156107 0.128879
H30   H     H_    0.815869 0.030696 0.287605 0.144105
H31   H     H_    0.804936 0.986058 0.371666 0.196212
O14   O     O_R   0.819250 0.149410 0.965240 -0.500351
O15   O     O_R   0.006940 0.180310 0.968270 -0.498844
C79   C     C_R   0.050139 0.234837 0.948109 0.546286
O16   O     O_R   0.028420 0.332670 0.963010 -0.481214
O17   O     O_R   0.810130 0.520390 0.966030 -0.474567
C80   C     C_R   0.730580 0.516062 0.940952 0.543145
O18   O     O_R   0.636050 0.541380 0.962520 -0.498247
O19   O     O_R   0.666480 0.323610 0.968170 -0.504930
C81   C     C_R   0.721776 0.223816 0.949393 0.537668
O20   O     O_R   0.817280 0.156800 0.072180 -0.448704
O21   O     O_R   0.005110 0.187160 0.067410 -0.444992
C82   C     C_R   0.051789 0.241016 0.085554 0.557570
O22   O     O_R   0.026450 0.340060 0.069950 -0.467358
O23   O     O_R   0.808300 0.527240 0.065170 -0.491852
C83   C     C_R   0.709829 0.571202 0.084449 0.540178
O24   O     O_R   0.634070 0.548770 0.069460 -0.501331
O25   O     O_R   0.664650 0.330470 0.067300 -0.503244
C84   C     C_R   0.720356 0.234147 0.087695 0.542659
Cr4   Cr    Cr6+3 0.909770 0.175810 0.018240 1.111162
Cr5   Cr    Cr6+3 0.913300 0.427650 0.016090 1.100776
Cr6   Cr    Cr6+3 0.657770 0.431010 0.016900 1.057050
O26   O     O_3   0.826940 0.344820 0.017080 -0.304912
N1    N     N_R   0.913268 0.557569 0.779294 0.063749
O27   O     O_R   0.983349 0.562078 0.748322 -0.357158
O28   O     O_R   0.949479 0.518485 0.822585 -0.344024
C85   C     C_3   0.934640 0.253658 0.779473 -0.408622
H32   H     H_    0.886641 0.272125 0.744816 0.116619
H33   H     H_    0.920388 0.192720 0.800857 0.133489
H34   H     H_    0.903661 0.334095 0.800517 0.168335
N2    N     N_R   0.824619 0.714537 0.382735 0.106745
O29   O     O_R   0.885856 0.754342 0.363817 -0.344677
O30   O     O_R   0.863043 0.650951 0.421101 -0.247235
C86   C     C_3   0.869767 0.427689 0.160923 -0.368703
H35   H     H_    0.941383 0.436194 0.146261 0.195156
H36   H     H_    0.900555 0.376808 0.194690 0.109231
H37   H     H_    0.844380 0.379946 0.135552 0.135141
C87   C     C_3   0.463388 0.697336 0.276713 -0.350182
H38   H     H_    0.401856 0.691551 0.301561 0.176278
H39   H     H_    0.413880 0.770928 0.252439 0.121026
H40   H     H_    0.505900 0.617548 0.254738 0.173133
C88   C     C_3   0.281289 0.284523 0.219698 -0.290390
H41   H     H_    0.352578 0.269129 0.194991 0.193374
H42   H     H_    0.222303 0.377695 0.223875 0.206740
H43   H     H_    0.320522 0.250404 0.255537 0.156621
N3    N     N_R   0.205332 0.319699 0.120754 0.089462
O31   O     O_R   0.169650 0.425194 0.133270 -0.319943
O32   O     O_R   0.259871 0.280679 0.079970 -0.308936
C89   C     C_3   0.134800 0.006157 0.237002 -0.335366
H44   H     H_    0.101385 0.957810 0.216820 0.202487
H45   H     H_    0.219220 0.941265 0.251404 0.121332
H46   H     H_    0.075688 0.050667 0.267730 0.141309
N4    N     N_R   0.065808 0.045622 0.136791 0.088131
O33   O     O_R   0.124668 0.965975 0.105035 -0.309613
O34   O     O_R   0.966872 0.061850 0.151175 -0.351504
N5    N     N_R   0.067021 0.317996 0.391815 0.092323
O35   O     O_R   0.998780 0.418383 0.373944 -0.283136
O36   O     O_R   0.052083 0.298137 0.436494 -0.307226
N6    N     N_R   0.471875 0.376355 0.299041 0.062430
O37   O     O_R   0.420683 0.465832 0.327141 -0.339168
O38   O     O_R   0.429658 0.380155 0.256121 -0.360504

loop_
_geom_bond_atom_site_label_1
_geom_bond_atom_site_label_2
_geom_bond_distance
_ccdc_geom_bond_type
C19   C23   1.542014 S    
C62   C66   1.414126 A    
C57   H23   1.083747 S    
C56   C57   1.381737 A    
N2    O30   1.301614 A    
C9    C80   1.426098 S    
C67   C72   1.399029 A    
O25   Cr6   1.922912 S    
C64   C89   1.521139 S    
C58   C59   1.401236 A    
N6    O37   1.301803 A    
C79   O16   1.268230 A    
C49   C50   1.394079 A    
C51   C54   1.415978 A    
C23   C25   1.539552 S    
C62   N3    1.437266 S    
C45   C46   1.399377 A    
C68   C69   1.399348 A    
C45   H19   1.084477 S    
C64   C65   1.408422 A    
C76   H28   1.083507 S    
C12   C17   1.457370 S    
C14   C18   1.455018 S    
N1    O28   1.300333 A    
C73   C74   1.393007 A    
C66   C82   1.488685 S    
O4    C2    1.270043 A    
C19   C26   1.538212 S    
O23   Cr5   1.931321 S    
N3    O31   1.301062 A    
O22   Cr5   2.034508 S    
C36   C41   1.465662 S    
C87   H40   1.110661 S    
C76   C77   1.398217 A    
C70   C77   1.467466 S    
C20   H6    1.110090 S    
C85   H34   1.109536 S    
C70   C71   1.402882 A    
C55   C56   1.405336 A    
C86   H37   1.109448 S    
C49   H17   1.083237 S    
C74   H27   1.083188 S    
C52   C53   1.388132 A    
H2    C16   1.110381 S    
C19   H7    1.110173 S    
C2    C10   1.423989 S    
C71   C72   1.385546 A    
O6    C3    1.275426 A    
N4    O34   1.300802 A    
C26   C28   1.541355 S    
C67   C68   1.403036 A    
C13   C15   1.550122 S    
C43   C48   1.407608 A    
C20   C28   1.553191 S    
O16   Cr5   2.048594 S    
O9    Cr2   2.041528 S    
C58   C65   1.464263 S    
C54   C83   1.450546 S    
C69   N6    1.440156 S    
O20   C84   1.271239 A    
C37   C38   1.534147 S    
C71   H30   1.083942 S    
C21   C29   1.205357 T    
C3    C22   1.433713 S    
Cr3   O13   1.975611 S    
O17   Cr5   1.919118 S    
C88   H42   1.109645 S    
C68   H25   1.083411 S    
C11   H5    1.106230 S    
C52   H20   1.085817 S    
C31   C38   1.536061 S    
Cr4   O26   1.981339 S    
C63   N4    1.433285 S    
C56   H22   1.083549 S    
Cr5   O26   1.975958 S    
N5    O36   1.301280 A    
C55   C60   1.414299 A    
O12   C6    1.273200 A    
C87   H39   1.108658 S    
C89   H45   1.107602 S    
C24   C29   1.467061 S    
C24   C27   1.539470 S    
O1    Cr1   2.045898 S    
C37   C39   1.547477 S    
C27   C28   1.551118 S    
C23   C24   1.532707 S    
O10   Cr2   1.926491 S    
Cr1   O13   1.981644 S    
C75   H29   1.083127 S    
C44   C45   1.391052 A    
C61   C88   1.512586 S    
C78   C84   1.453473 S    
C8    N1    1.457121 S    
O4    Cr2   1.925234 S    
C46   C47   1.405482 A    
C39   C40   1.550345 S    
C60   N5    1.441287 S    
C27   H9    1.109980 S    
C25   C27   1.551085 S    
C32   H11   1.109918 S    
C89   H44   1.105489 S    
C37   H15   1.110154 S    
C63   C66   1.423448 A    
C8    C16   1.537622 S    
C1    O3    1.268600 A    
C39   H14   1.110108 S    
C38   C40   1.539855 S    
C14   C16   1.541364 S    
C86   H35   1.105370 S    
C43   C44   1.413476 A    
C11   C12   1.540731 S    
C61   C65   1.411156 A    
C73   H26   1.083428 S    
C32   C36   1.535716 S    
C51   C52   1.379866 A    
O7    Cr1   2.034250 S    
C85   H32   1.109069 S    
C75   C78   1.404327 A    
O8    Cr1   1.927198 S    
C59   C60   1.404007 A    
C22   C30   1.205175 T    
C15   C16   1.554727 S    
O1    C3    1.270644 A    
C32   C40   1.552479 S    
C26   C30   1.465524 S    
C83   O24   1.266424 A    
O14   C81   1.269250 A    
C72   H31   1.082464 S    
C74   C78   1.396903 A    
O24   Cr6   2.046751 S    
N4    O33   1.300919 A    
C73   C77   1.407464 A    
C46   C53   1.448136 S    
O20   Cr4   2.043404 S    
Cr2   O13   1.974789 S    
C61   C62   1.407911 A    
O19   C81   1.277279 A    
C6    C55   1.455594 S    
N1    O27   1.300152 A    
C8    C12   1.525661 S    
C36   C39   1.536404 S    
C47   C87   1.509033 S    
O15   C79   1.276532 A    
C7    C11   1.554712 S    
N5    O35   1.301452 A    
C31   C35   1.546763 S    
C15   H3    1.110252 S    
Cr6   O26   1.974468 S    
C89   H46   1.110510 S    
H13   C40   1.110358 S    
C59   H24   1.083673 S    
C19   C20   1.554989 S    
C12   C15   1.539914 S    
O2    Cr1   1.918244 S    
O25   C84   1.269056 A    
C13   C14   1.538740 S    
C23   C85   1.517540 S    
O21   C82   1.272949 A    
C31   H12   1.110053 S    
O6    Cr3   1.931313 S    
C4    C67   1.465981 S    
O23   C83   1.268544 A    
C33   C41   1.205271 T    
O11   Cr3   2.049008 S    
C2    O5    1.266162 A    
C1    C34   1.433412 S    
C87   H38   1.110688 S    
C25   H10   1.108463 S    
C82   O22   1.283981 A    
C44   N2    1.439120 S    
C13   H4    1.110283 S    
C5    C43   1.464371 S    
C9    C17   1.200265 T    
C35   C36   1.536356 S    
C33   C81   1.434300 S    
C48   H21   1.083710 S    
N6    O38   1.300245 A    
O2    C1    1.273847 A    
O18   Cr6   2.040709 S    
C11   C13   1.548367 S    
C50   C54   1.401981 A    
C69   C70   1.418889 A    
C7    C14   1.537209 S    
O5    Cr3   2.037896 S    
C86   H36   1.111719 S    
H8    C28   1.110234 S    
C31   C32   1.551104 S    
C88   H41   1.110752 S    
C51   C86   1.500857 S    
N3    O32   1.301230 A    
O7    C6    1.269092 A    
C50   H18   1.083330 S    
C5    O11   1.267812 A    
O14   Cr4   2.037363 S    
C63   C64   1.404163 A    
C20   C24   1.538794 S    
O17   C80   1.296770 A    
C38   C42   1.465481 S    
O15   Cr4   1.927243 S    
C85   H33   1.109731 S    
C57   C58   1.391807 A    
O12   Cr3   1.919153 S    
C7    C8    1.537579 S    
C47   C48   1.390081 A    
O3    Cr2   2.042925 S    
C7    H1    1.109899 S    
C4    O9    1.271088 A    
C10   C18   1.199258 T    
C88   H43   1.108406 S    
O21   Cr4   1.918692 S    
C25   C26   1.536530 S    
N2    O29   1.301423 A    
C35   H16   1.105389 S    
O10   C5    1.273893 A    
O19   Cr6   1.928782 S    
C21   C79   1.434301 S    
C75   C76   1.386276 A    
C34   C42   1.205111 T    
C49   C53   1.399378 A    
C80   O18   1.288560 A    
O8    C4    1.275303 A    
C35   C37   1.546035 S    
