data_mof_unit_1466.cif
_audit_creation_date              2013-03-05T16:46:36-0500
_audit_creation_method            fapswitch 2.2
_symmetry_space_group_name_H-M    P1
_symmetry_Int_Tables_number       1
_space_group_crystal_system       triclinic
_cell_length_a                    12.827942
_cell_length_b                    8.921411
_cell_length_c                    8.123764
_cell_angle_alpha                 89.880234
_cell_angle_beta                  98.169163
_cell_angle_gamma                 90.060634
_cell_volume                      920.274513496

loop_
_atom_site_label
_atom_site_type_symbol
_atom_site_description
_atom_site_fract_x
_atom_site_fract_y
_atom_site_fract_z
_atom_type_partial_charge
O1    O     O_R   0.499990 0.285340 0.636850 -0.613094
O2    O     O_R   0.500010 0.714660 0.363150 -0.613094
O3    O     O_R   0.500010 0.285340 0.363150 -0.614254
O4    O     O_R   0.499990 0.714660 0.636850 -0.614255
N1    N     N_1   0.500020 0.500000 0.073640 -0.030973
N2    N     N_1   0.499980 0.500000 0.926360 -0.030972
C1    C     C_R   0.500241 0.218073 0.500159 0.918396
C2    C     C_R   0.499759 0.781927 0.499841 0.918392
O5    O     O_R   0.346350 0.500000 0.614250 -0.609292
O6    O     O_R   0.653650 0.500000 0.385750 -0.609291
O7    O     O_R   0.346360 0.500000 0.340500 -0.621984
O8    O     O_R   0.653640 0.500000 0.659500 -0.621983
C3    C     C_R   0.297966 0.497155 0.466095 0.900239
C4    C     C_R   0.702033 0.502846 0.533904 0.900245
Zn1   Zn    Zn3+2 0.499990 0.500000 0.682780 0.986691
Zn2   Zn    Zn3+2 0.500010 0.500000 0.317220 0.986691
C5    C     C_R   0.814218 0.513064 0.558324 -0.054788
C6    C     C_R   0.185781 0.486944 0.441676 -0.054788
C7    C     C_R   0.033280 0.328899 0.387151 -0.191889
C8    C     C_R   0.966716 0.671117 0.612838 -0.191889
C9    C     C_R   0.138357 0.353995 0.375080 0.115016
C10   C     C_R   0.861638 0.646024 0.624900 0.115025
C11   C     C_R   0.128422 0.599239 0.509634 0.098253
C12   C     C_R   0.871580 0.400766 0.490378 0.098251
C13   C     C_R   0.023873 0.568507 0.530381 0.073143
C14   C     C_R   0.976126 0.431502 0.469621 0.073145
H1    H     H_    0.997816 0.226340 0.335012 0.164794
H2    H     H_    0.002177 0.773682 0.664966 0.164792
C15   C     C_1   0.500097 0.065228 0.500168 -0.192447
C16   C     C_1   0.499902 0.934772 0.499832 -0.192448
C17   C     C_3   0.821418 0.249609 0.440493 -0.895816
H3    H     H_    0.871865 0.157757 0.499928 0.233868
H4    H     H_    0.743364 0.233461 0.481546 0.232488
H5    H     H_    0.811558 0.237203 0.303168 0.249002
C18   C     C_3   0.178588 0.750389 0.559537 -0.895807
H6    H     H_    0.128151 0.842248 0.500093 0.233865
H7    H     H_    0.188435 0.762790 0.696861 0.249002
H8    H     H_    0.256649 0.766531 0.518506 0.232493
C19   C     C_3   0.800098 0.765447 0.701227 -0.864481
H9    H     H_    0.849878 0.863617 0.744436 0.230379
H10   H     H_    0.734479 0.806224 0.608031 0.227344
H11   H     H_    0.767826 0.718773 0.810302 0.259388
C20   C     C_3   0.199889 0.234586 0.298718 -0.864478
H12   H     H_    0.232159 0.281282 0.189652 0.259392
H13   H     H_    0.265511 0.193789 0.391897 0.227348
H14   H     H_    0.150105 0.136427 0.255488 0.230380

loop_
_geom_bond_atom_site_label_1
_geom_bond_atom_site_label_2
_geom_bond_distance
_ccdc_geom_bond_type
C20   H12   1.110077 S    
C17   H4    1.108565 S    
C15   C16   1.163857 T    
O1    Zn1   1.951847 S    
C6    C9    1.406138 A    
C20   H13   1.110172 S    
O7    Zn2   2.006638 S    
O3    C1    1.263036 A    
C5    C10   1.406139 A    
O8    Zn1   2.006638 S    
O4    C2    1.263036 A    
C2    C16   1.363592 S    
O4    Zn1   1.950315 S    
O5    Zn1   1.970406 S    
C17   H5    1.110483 S    
C19   H10   1.110176 S    
C13   C14   1.424004 A    
O6    Zn2   1.970406 S    
O7    C3    1.267644 A    
C4    C5    1.427355 S    
C3    C6    1.427359 S    
C1    C15   1.363592 S    
C10   C19   1.512102 S    
C7    H1    1.081443 S    
C7    C9    1.383274 A    
O8    C4    1.267643 A    
C19   H11   1.110083 S    
C11   C18   1.524195 S    
C11   C13   1.401964 A    
N1    N2    1.196395 T    
C20   H14   1.111049 S    
O2    C2    1.263741 A    
C12   C17   1.524197 S    
C5    C12   1.403264 A    
C8    C13   1.402809 A    
C8    C10   1.383273 A    
C6    C11   1.403268 A    
C18   H8    1.108565 S    
O2    Zn2   1.951846 S    
O6    C4    1.273675 A    
C19   H9    1.111056 S    
C7    C14   1.402805 A    
O5    C3    1.273676 A    
N1    Zn2   1.978804 S    
C8    H2    1.081444 S    
C18   H7    1.110482 S    
N2    Zn1   1.978805 S    
O1    C1    1.263741 A    
C9    C20   1.512097 S    
O3    Zn2   1.950316 S    
C17   H3    1.110895 S    
C12   C14   1.401962 A    
C18   H6    1.110895 S    
