data_mof_unit_1872.cif
_audit_creation_date              2013-03-05T16:06:18-0500
_audit_creation_method            fapswitch 2.2
_symmetry_space_group_name_H-M    P1
_symmetry_Int_Tables_number       1
_space_group_crystal_system       triclinic
_cell_length_a                    10.679472
_cell_length_b                    9.719273
_cell_length_c                    27.755355
_cell_angle_alpha                 89.812718
_cell_angle_beta                  92.851185
_cell_angle_gamma                 89.63776
_cell_volume                      2877.27205397

loop_
_atom_site_label
_atom_site_type_symbol
_atom_site_description
_atom_site_fract_x
_atom_site_fract_y
_atom_site_fract_z
_atom_type_partial_charge
O1    O     O_R   0.319640 0.618740 0.500000 -0.578627
O2    O     O_R   0.680360 0.381260 0.500000 -0.576809
O3    O     O_R   0.680360 0.618740 0.500000 -0.576212
O4    O     O_R   0.319640 0.381260 0.500000 -0.579063
C1    C     C_R   0.262929 0.500364 0.499751 0.779431
C2    C     C_R   0.737040 0.499715 0.499902 0.784955
O5    O     O_R   0.500020 0.618770 0.430260 -0.577012
O6    O     O_R   0.499980 0.381230 0.569740 -0.581638
O7    O     O_R   0.499980 0.618770 0.569740 -0.579869
O8    O     O_R   0.500020 0.381230 0.430260 -0.580368
C3    C     C_R   0.501392 0.499640 0.407982 0.795012
C4    C     C_R   0.493706 0.499889 0.592216 0.800819
Cu1   Cu    Cu3+1 0.500000 0.640660 0.500000 0.946860
Cu2   Cu    Cu3+1 0.500000 0.359340 0.500000 0.944480
C5    C     C_R   0.419583 0.393254 0.178476 0.593616
C6    C     C_R   0.576019 0.547857 0.822335 0.587841
O9    O     O_2   0.337462 0.319979 0.203402 -0.514593
O10   O     O_2   0.671342 0.596498 0.797225 -0.506536
N1    N     N_R   0.508554 0.469467 0.203270 -0.461647
N2    N     N_R   0.470898 0.500350 0.797738 -0.461212
C7    C     C_R   0.596994 0.541226 0.179942 0.536951
C8    C     C_R   0.372583 0.447780 0.821281 0.536644
C9    C     C_R   0.603135 0.416551 0.283791 -0.160361
C10   C     C_R   0.473849 0.376537 0.721076 -0.177107
C11   C     C_R   0.602313 0.425337 0.333928 -0.245054
C12   C     C_R   0.477911 0.376031 0.671009 -0.232089
C13   C     C_R   0.408047 0.555088 0.326928 -0.299358
C14   C     C_R   0.460255 0.623736 0.669675 -0.285791
C15   C     C_R   0.408618 0.547895 0.276618 0.196538
C16   C     C_R   0.455830 0.625295 0.720029 0.200182
C17   C     C_R   0.506659 0.477896 0.254899 0.364533
C18   C     C_R   0.466104 0.501038 0.745932 0.376373
C19   C     C_R   0.503342 0.467581 0.102780 -0.096393
C20   C     C_R   0.484409 0.489449 0.898222 -0.095478
C21   C     C_R   0.413448 0.391931 0.127451 -0.028659
C22   C     C_R   0.585098 0.544854 0.873340 -0.031176
C23   C     C_R   0.320862 0.318266 0.100403 0.182199
C24   C     C_R   0.691613 0.593200 0.900135 0.180084
C25   C     C_R   0.596834 0.540639 0.129458 -0.009213
C26   C     C_R   0.377782 0.440337 0.871776 -0.008989
C27   C     C_R   0.505466 0.496359 0.355555 -0.030287
C28   C     C_R   0.478441 0.499908 0.644940 -0.049707
H1    H     H_    0.329624 0.601670 0.343684 0.148830
H2    H     H_    0.447350 0.719131 0.650139 0.148264
C29   C     C_R   0.391146 0.419667 0.973769 0.064815
C30   C     C_R   0.594481 0.541834 0.027302 0.063626
C31   C     C_R   0.593954 0.539003 0.976078 0.016146
C32   C     C_R   0.400955 0.405286 0.024802 0.015432
C33   C     C_R   0.489945 0.482695 0.949505 0.068212
C34   C     C_R   0.499694 0.471253 0.051478 0.067629
C35   C     C_R   0.284501 0.375010 0.946064 -0.212451
C36   C     C_R   0.685805 0.614945 0.055338 -0.210634
C37   C     C_R   0.278166 0.385342 0.896134 -0.147195
C38   C     C_R   0.686641 0.614307 0.105330 -0.145856
O11   O     O_2   0.270012 0.402813 0.795793 -0.545619
O12   O     O_2   0.683893 0.614583 0.205599 -0.548481
C39   C     C_R   0.315547 0.325753 0.050090 -0.264656
C40   C     C_R   0.694844 0.589897 0.950473 -0.265655
H3    H     H_    0.479247 0.278592 0.652889 0.153705
H4    H     H_    0.677033 0.376922 0.355873 0.138717
H5    H     H_    0.477964 0.279981 0.740696 0.148247
H6    H     H_    0.678469 0.361793 0.267313 0.151712
H7    H     H_    0.194282 0.349448 0.876635 0.184640
H8    H     H_    0.758232 0.672872 0.125053 0.184582
H9    H     H_    0.202197 0.335055 0.962007 0.138187
H10   H     H_    0.755943 0.677962 0.039721 0.139462
H11   H     H_    0.244506 0.264372 0.031679 0.138902
H12   H     H_    0.780410 0.624792 0.968548 0.137796
C41   C     C_R   0.070696 0.495239 0.543597 -0.232437
C42   C     C_R   0.929266 0.505907 0.455867 -0.231638
C43   C     C_R   0.940906 0.494971 0.543513 -0.152222
C44   C     C_R   0.059112 0.506906 0.455945 -0.159636
H13   H     H_    0.125393 0.491091 0.577524 0.128699
H14   H     H_    0.874508 0.510282 0.421956 0.123065
H15   H     H_    0.894827 0.491258 0.577396 0.148391
H16   H     H_    0.105189 0.512129 0.422078 0.141876
C45   C     C_R   0.870996 0.499425 0.499708 0.008162
C46   C     C_R   0.128986 0.501089 0.499772 0.007595
C47   C     C_R   0.413125 0.075260 0.472297 0.030542
C48   C     C_R   0.589472 0.925073 0.526439 0.029666
C49   C     C_R   0.590426 0.072837 0.525939 0.027220
C50   C     C_R   0.411060 0.927386 0.473301 0.031754
N3    N     N_R   0.500000 0.852070 0.500000 -0.200172
N4    N     N_R   0.500000 0.147930 0.500000 -0.200415
C51   C     C_R   0.323759 0.147575 0.438065 0.179591
C52   C     C_R   0.356852 0.170410 0.390311 -0.125069
C53   C     C_R   0.267727 0.218682 0.355602 -0.136819
C54   C     C_R   0.143472 0.238249 0.367680 -0.133543
C55   C     C_R   0.108409 0.209984 0.414493 -0.148940
C56   C     C_R   0.198192 0.166230 0.449673 -0.108466
H17   H     H_    0.451458 0.149185 0.379900 0.129694
H18   H     H_    0.294487 0.238166 0.319106 0.170980
H19   H     H_    0.074043 0.273637 0.340634 0.138061
H20   H     H_    0.011556 0.221958 0.423571 0.137021
H21   H     H_    0.169543 0.143038 0.485644 0.107325
C57   C     C_R   0.686476 0.853737 0.557592 0.189683
C58   C     C_R   0.666736 0.835719 0.606752 -0.136404
C59   C     C_R   0.764595 0.792697 0.638708 -0.136412
C60   C     C_R   0.885028 0.774675 0.622205 -0.123035
C61   C     C_R   0.907293 0.799503 0.573789 -0.148853
C62   C     C_R   0.808350 0.837303 0.541520 -0.116074
H22   H     H_    0.577424 0.863459 0.620544 0.102590
H23   H     H_    0.748017 0.778333 0.676545 0.156540
H24   H     H_    0.961518 0.744130 0.647071 0.139551
H25   H     H_    0.001212 0.789483 0.561221 0.137929
H26   H     H_    0.826816 0.858896 0.504314 0.106133
C63   C     C_R   0.695701 0.141368 0.552859 0.188983
C64   C     C_R   0.812744 0.150621 0.531922 -0.130710
C65   C     C_R   0.920422 0.182074 0.560312 -0.141983
C66   C     C_R   0.912085 0.207489 0.609561 -0.123336
C67   C     C_R   0.796463 0.198031 0.630682 -0.139849
C68   C     C_R   0.689556 0.161852 0.602615 -0.130043
H27   H     H_    0.821112 0.127824 0.494031 0.109604
H28   H     H_    0.010320 0.186988 0.544125 0.134276
H29   H     H_    0.995456 0.232789 0.631417 0.138578
H30   H     H_    0.790550 0.213211 0.669116 0.145718
H31   H     H_    0.604157 0.138915 0.619966 0.101753
C69   C     C_R   0.306477 0.859705 0.445843 0.190678
C70   C     C_R   0.312323 0.843214 0.395773 -0.148912
C71   C     C_R   0.202898 0.819762 0.367203 -0.164248
C72   C     C_R   0.087532 0.809676 0.388389 -0.113597
C73   C     C_R   0.080858 0.825478 0.438129 -0.145681
C74   C     C_R   0.189396 0.851168 0.466752 -0.133910
H32   H     H_    0.400242 0.856992 0.378568 0.132907
H33   H     H_    0.207256 0.811525 0.328468 0.133526
H34   H     H_    0.003111 0.791268 0.366215 0.136111
H35   H     H_    0.991276 0.819759 0.454380 0.132500
H36   H     H_    0.181751 0.870435 0.504918 0.110033
N5    N     N_3   0.310005 0.611338 0.247434 -0.571193
H37   H     H_    0.224856 0.570002 0.257386 0.230339
H38   H     H_    0.309123 0.716375 0.255396 0.212876
N6    N     N_3   0.440815 0.752587 0.744949 -0.572875
H39   H     H_    0.514771 0.816936 0.736500 0.223823
H40   H     H_    0.357431 0.798872 0.731621 0.212983
N7    N     N_3   0.230426 0.235565 0.123461 -0.512198
H41   H     H_    0.238591 0.134548 0.111087 0.216607
H42   H     H_    0.140898 0.272003 0.112824 0.217647
N8    N     N_3   0.798074 0.646275 0.876799 -0.509010
H43   H     H_    0.876716 0.587460 0.887881 0.217523
H44   H     H_    0.813032 0.747281 0.888504 0.217517

loop_
_geom_bond_atom_site_label_1
_geom_bond_atom_site_label_2
_geom_bond_distance
_ccdc_geom_bond_type
C16   C18   1.404360 A    
C53   C54   1.396750 A    
C49   C63   1.481573 S    
C10   H5    1.083015 S    
C13   C15   1.398663 A    
C63   C68   1.400629 A    
C67   C68   1.397284 A    
Cu2   N4    2.054752 S    
C44   H16   1.083668 S    
O3    C2    1.302312 A    
N1    C17   1.436739 S    
C58   C59   1.397696 A    
N8    H43   1.045865 S    
N7    H41   1.045760 S    
C31   C33   1.416370 A    
C51   C52   1.405914 A    
C5    N1    1.368292 A    
C61   H25   1.082120 S    
C19   C25   1.410039 A    
O1    C1    1.303466 A    
C21   C23   1.411559 A    
C10   C12   1.392477 A    
C52   H17   1.083344 S    
C68   H31   1.076548 S    
C25   C38   1.396587 A    
C29   C35   1.413549 A    
C59   H23   1.082389 S    
C30   C36   1.413682 A    
C55   H20   1.082354 S    
C64   C65   1.397364 A    
C5    O9    1.349067 S    
C35   H9    1.077535 S    
C14   C28   1.404705 A    
C73   H35   1.079452 S    
C41   C43   1.385991 A    
O7    Cu1   1.946635 S    
C66   C67   1.396393 A    
C4    C28   1.480453 S    
C24   C40   1.396109 A    
C9    H6    1.082797 S    
C15   N5    1.431455 S    
N6    H39   1.045785 S    
C42   H14   1.083651 S    
C44   C46   1.395872 A    
C63   C64   1.407661 A    
C23   N7    1.434003 S    
C41   H13   1.083655 S    
C67   H30   1.082259 S    
C11   H4    1.083597 S    
C48   C57   1.483061 S    
C12   H3    1.074096 S    
C58   H22   1.078296 S    
O3    Cu1   1.936557 S    
C6    N2    1.368193 A    
C32   C34   1.416041 A    
C60   H24   1.082247 S    
Cu1   Cu2   2.734226 S    
C69   C70   1.403877 A    
C42   C45   1.395427 A    
C41   C46   1.394858 A    
O2    C2    1.304163 A    
C39   H11   1.077858 S    
C48   N3    1.377373 A    
C5    C21   1.414582 A    
C36   C38   1.387112 A    
C51   C56   1.405422 A    
C32   C39   1.411082 A    
C57   C62   1.405039 A    
O8    Cu2   1.946635 S    
C11   C27   1.400704 A    
C54   H19   1.082264 S    
C52   C53   1.397960 A    
O4    C1    1.302908 A    
C2    C45   1.430840 S    
C19   C34   1.422841 A    
C70   H32   1.083205 S    
C14   H2    1.077177 S    
C35   C37   1.387381 A    
C9    C17   1.402490 A    
C64   H27   1.083382 S    
O5    C3    1.314742 A    
C10   C18   1.398879 A    
C47   C50   1.437740 A    
C13   C27   1.395274 A    
C60   C61   1.396774 A    
C7    C25   1.401134 A    
C29   C33   1.420659 A    
O6    C4    1.315905 A    
C8    C26   1.401465 A    
C57   C58   1.401551 A    
C24   N8    1.434138 S    
C6    O10   1.349095 S    
C72   C73   1.394843 A    
N8    H44   1.045807 S    
C65   H28   1.081289 S    
C40   H12   1.077580 S    
N2    C8    1.365022 A    
C59   C60   1.396770 A    
C20   C26   1.410427 A    
O1    Cu1   1.939234 S    
C50   C69   1.479477 S    
C55   C56   1.397367 A    
C43   C45   1.395170 A    
C49   N4    1.379153 A    
C36   H10   1.077237 S    
C71   C72   1.395190 A    
C12   C28   1.402848 A    
N5    H37   1.045705 S    
N2    C18   1.436261 S    
C29   C32   1.421471 A    
C62   H26   1.081078 S    
N7    H42   1.045792 S    
Cu1   N3    2.054752 S    
C30   C31   1.421836 A    
C20   C33   1.422933 A    
O6    Cu2   1.948017 S    
N1    C7    1.365259 A    
C71   H33   1.081640 S    
C48   C49   1.436282 A    
C56   H21   1.082129 S    
C7    O12   1.350056 S    
C70   C71   1.399551 A    
C8    O11   1.349952 S    
C30   C34   1.420871 A    
C14   C16   1.400870 A    
C73   C74   1.396577 A    
C72   H34   1.082211 S    
C15   C17   1.406769 A    
C65   C66   1.396936 A    
C6    C22   1.414368 A    
C31   C40   1.411127 A    
C43   H15   1.083459 S    
C37   H7    1.083558 S    
C74   H36   1.083301 S    
C47   N4    1.375388 A    
C38   H8    1.083569 S    
C16   N6    1.431390 S    
C22   C24   1.411636 A    
C61   C62   1.397295 A    
C19   C21   1.414979 A    
C47   C51   1.484763 S    
C3    C27   1.458402 S    
C20   C22   1.414911 A    
C69   C74   1.407226 A    
C9    C11   1.394937 A    
O4    Cu2   1.936557 S    
O2    Cu2   1.939234 S    
O7    C4    1.314957 A    
O8    C3    1.305177 A    
C13   H1    1.076123 S    
O5    Cu1   1.948017 S    
C54   C55   1.396877 A    
N6    H40   1.045607 S    
C26   C37   1.396752 A    
C42   C44   1.386672 A    
C50   N3    1.380146 A    
C1    C46   1.430440 S    
C53   H18   1.082520 S    
C66   H29   1.082223 S    
C23   C39   1.396427 A    
N5    H38   1.045313 S    
