data_mof_unit_4367.cif
_audit_creation_date              2012-10-26T20:21:18-0400
_audit_creation_method            fapswitch 2.2
_symmetry_space_group_name_H-M    P1
_symmetry_Int_Tables_number       1
_space_group_crystal_system       triclinic
_cell_length_a                    9.506256
_cell_length_b                    10.814383
_cell_length_c                    15.416707
_cell_angle_alpha                 89.396486
_cell_angle_beta                  74.753373
_cell_angle_gamma                 89.762145
_cell_volume                      1529.03311222

loop_
_atom_site_label
_atom_site_type_symbol
_atom_type_description
_atom_site_fract_x
_atom_site_fract_y
_atom_site_fract_z
_atom_type_partial_charge
C1    C     C_R   0.000725 0.262251 0.499039 0.560503
C2    C     C_R   0.130191 0.063012 0.457234 0.234675
C3    C     C_R   0.997946 0.871857 0.499975 -0.018419
C4    C     C_R   0.001701 0.128600 0.497177 -0.021704
C5    C     C_R   0.547943 0.432711 0.562506 0.013108
C6    C     C_R   0.452144 0.566914 0.437276 -0.005402
C7    C     C_R   0.399049 0.432860 0.562535 0.030916
C8    C     C_R   0.601087 0.566560 0.437128 0.002092
C9    C     C_R   0.918747 0.501239 0.672555 0.571617
C10   C     C_R   0.081248 0.495772 0.327616 0.548376
C11   C     C_R   0.875513 0.503725 0.771706 0.039660
C12   C     C_R   0.999218 0.737912 0.500732 0.575010
C13   C     C_R   0.125435 0.477444 0.229533 0.019378
C14   C     C_R   0.923997 0.541799 0.915852 -0.132972
C15   C     C_R   0.086208 0.398829 0.090998 -0.128175
C16   C     C_R   0.973812 0.535329 0.822286 0.086794
C17   C     C_R   0.031084 0.426439 0.182270 0.082250
C18   C     C_R   0.730138 0.477051 0.816078 -0.161018
C19   C     C_R   0.271293 0.500331 0.184558 -0.173351
C20   C     C_R   0.678562 0.481887 0.910235 0.025633
C21   C     C_R   0.329915 0.466302 0.094592 0.020640
C22   C     C_R   0.777756 0.517581 0.959655 0.029674
C23   C     C_R   0.584722 0.512579 0.097088 -0.143595
C24   C     C_R   0.233678 0.418008 0.047357 0.025816
C25   C     C_R   0.530312 0.456822 0.956252 0.042270
C26   C     C_R   0.480948 0.479769 0.050240 0.039903
C27   C     C_3   0.635460 0.888280 0.533401 0.002418
C28   C     C_3   0.497111 0.821989 0.584585 -0.343940
C29   C     C_3   0.268034 0.147501 0.327267 0.002766
C30   C     C_3   0.403356 0.224399 0.286255 -0.354172
C31   C     C_R   0.430336 0.407967 0.911863 -0.137819
C32   C     C_R   0.730095 0.530569 0.052400 -0.145184
C33   C     C_R   0.285465 0.387919 0.957038 -0.144578
C34   C     C_R   0.871930 0.065883 0.536331 -0.168254
C35   C     C_R   0.128051 0.934752 0.460880 -0.171678
C36   C     C_R   0.867706 0.937396 0.536257 0.237928
Cu1   Cu    Cu3+1 0.140660 0.500020 0.500000 0.958627
Cu2   Cu    Cu3+1 0.859340 0.499980 0.500000 0.956734
H1    H     H_    0.805564 0.557288 0.090633 0.106177
H2    H     H_    0.227925 0.884490 0.431751 0.133336
H3    H     H_    0.582834 0.378464 0.612436 0.102092
H4    H     H_    0.417266 0.621164 0.387348 0.100718
H5    H     H_    0.321683 0.379003 0.612526 0.120241
H6    H     H_    0.678453 0.620332 0.387093 0.096028
H7    H     H_    0.825132 0.482870 0.238201 0.223431
H8    H     H_    0.833605 0.346881 0.185971 0.217781
H9    H     H_    0.189659 0.504991 0.803355 0.216865
H10   H     H_    0.142667 0.655177 0.797620 0.230220
H11   H     H_    0.674565 0.845648 0.465820 0.129347
H12   H     H_    0.213051 0.348934 0.920703 0.105775
H13   H     H_    0.607031 0.986910 0.525182 0.127301
H14   H     H_    0.451057 0.867412 0.650254 0.154378
H15   H     H_    0.414982 0.825426 0.544976 0.109386
H16   H     H_    0.521503 0.723883 0.596892 0.180831
H17   H     H_    0.171303 0.200763 0.319510 0.138166
H18   H     H_    0.276162 0.059413 0.289451 0.116961
H19   H     H_    0.502611 0.173172 0.290975 0.151276
H20   H     H_    0.410675 0.244319 0.214385 0.102759
H21   H     H_    0.397811 0.313309 0.322427 0.184379
H22   H     H_    0.337194 0.545578 0.221764 0.112263
H23   H     H_    0.657762 0.456548 0.775034 0.116700
H24   H     H_    0.999555 0.568544 0.954134 0.111895
H25   H     H_    0.014173 0.360351 0.054186 0.107053
H26   H     H_    0.558217 0.522195 0.169043 0.092940
H27   H     H_    0.461190 0.380157 0.842557 0.096055
H28   H     H_    0.774315 0.116661 0.569323 0.135127
N1    N     N_R   0.352080 0.500030 0.499980 -0.222353
N2    N     N_R   0.647920 0.499970 0.500020 -0.220891
N3    N     N_3   0.881688 0.398952 0.227249 -0.607226
N4    N     N_3   0.122576 0.565550 0.779137 -0.606819
O1    O     O_R   0.118740 0.319660 0.500000 -0.454463
O2    O     O_3   0.259960 0.123287 0.418648 -0.540697
O3    O     O_R   0.881260 0.680340 0.500000 -0.465460
O4    O     O_R   0.881170 0.319630 0.500010 -0.515078
O5    O     O_R   0.118830 0.680370 0.499990 -0.516986
O6    O     O_R   0.055570 0.500030 0.629830 -0.464885
O7    O     O_R   0.944430 0.499970 0.370170 -0.480519
O8    O     O_R   0.818000 0.500000 0.629840 -0.517907
O9    O     O_R   0.182000 0.500000 0.370160 -0.530131
O10   O     O_3   0.741873 0.876148 0.582017 -0.532589

loop_
_geom_bond_atom_site_label_1
_geom_bond_atom_site_label_2
_ccdc_geom_bond_type
C2    C35   A    
C25   C31   A    
C21   C26   A    
C11   C18   A    
C17   N3    S    
C34   H28   S    
Cu1   O9    S    
C1    O1    A    
C22   C32   A    
C1    O4    A    
C19   C21   A    
Cu1   Cu2   S    
C32   H1    S    
C20   C25   A    
C14   H24   S    
C30   H19   S    
Cu1   N1    S    
C15   C17   A    
C23   C26   A    
H8    N3    S    
C3    C12   S    
C31   C33   A    
C9    O6    A    
C7    H5    S    
C18   C20   A    
C29   O2    S    
Cu1   O5    S    
C12   O3    A    
C5    N2    A    
C2    O2    S    
C10   O7    A    
C27   H13   S    
C4    C34   A    
C13   C19   A    
H7    N3    S    
C23   H26   S    
C16   N4    S    
C27   O10   S    
C36   O10   S    
H10   N4    S    
C5    C7    A    
C28   H16   S    
C6    C8    A    
Cu2   O8    S    
C25   C26   A    
C2    C4    A    
H9    N4    S    
C29   C30   S    
C11   C16   A    
C3    C35   A    
C10   O9    A    
C30   H21   S    
C9    C11   S    
C15   C24   A    
C29   H18   S    
Cu1   O6    S    
Cu2   N2    S    
C8    N2    A    
Cu1   O1    S    
C14   C16   A    
C12   O5    A    
Cu2   O4    S    
C31   H27   S    
C5    H3    S    
C6    N1    A    
C8    H6    S    
C20   C22   A    
C10   C13   S    
C28   H15   S    
C18   H23   S    
Cu2   O7    S    
C19   H22   S    
C29   H17   S    
C24   C33   A    
C13   C17   A    
C1    C4    S    
C23   C32   A    
C14   C22   A    
C35   H2    S    
C33   H12   S    
C28   H14   S    
C3    C36   A    
C30   H20   S    
C34   C36   A    
C9    O8    A    
C7    N1    A    
C6    H4    S    
C21   C24   A    
C27   C28   S    
C15   H25   S    
C27   H11   S    
Cu2   O3    S    
