data_mof_unit_1278.cif
_audit_creation_date              2012-10-26T19:20:35-0400
_audit_creation_method            fapswitch 2.2
_symmetry_space_group_name_H-M    P1
_symmetry_Int_Tables_number       1
_space_group_crystal_system       triclinic
_cell_length_a                    10.798685
_cell_length_b                    11.065289
_cell_length_c                    9.863977
_cell_angle_alpha                 111.167264
_cell_angle_beta                  98.53123
_cell_angle_gamma                 90.278511
_cell_volume                      1084.78340844

loop_
_atom_site_label
_atom_site_type_symbol
_atom_type_description
_atom_site_fract_x
_atom_site_fract_y
_atom_site_fract_z
_atom_type_partial_charge
C1    C     C_R   0.491054 0.254269 0.440793 0.534061
C2    C     C_R   0.736908 0.499682 0.498771 0.523787
C3    C     C_R   0.150734 0.733035 0.660180 -0.094295
C4    C     C_R   0.849265 0.266975 0.339803 -0.094287
C5    C     C_R   0.096165 0.846875 0.734265 -0.119942
C6    C     C_R   0.903832 0.153139 0.265694 -0.119926
C7    C     C_R   0.966811 0.848291 0.726714 -0.129019
C8    C     C_R   0.033185 0.151722 0.273235 -0.129023
C9    C     C_R   0.891576 0.735097 0.646612 -0.113832
C10   C     C_R   0.108423 0.264914 0.353352 -0.113827
C11   C     C_R   0.945206 0.616784 0.575067 0.004224
C12   C     C_R   0.508945 0.745731 0.559207 0.534059
C13   C     C_R   0.054794 0.383225 0.424920 0.004225
C14   C     C_R   0.076268 0.616097 0.580171 0.006192
C15   C     C_R   0.923733 0.383910 0.419821 0.006192
C16   C     C_R   0.870428 0.500391 0.496395 -0.020261
C17   C     C_R   0.129572 0.499615 0.503603 -0.020265
C18   C     C_3   0.726372 0.689225 0.941056 0.058928
C19   C     C_3   0.801876 0.772166 0.089028 -0.416390
C20   C     C_3   0.273672 0.310704 0.058892 0.058914
C21   C     C_3   0.198172 0.227922 0.910838 -0.416405
C22   C     C_2   0.486243 0.115077 0.407580 -0.140628
C23   C     C_2   0.513755 0.884923 0.592420 -0.140627
C24   C     C_2   0.502123 0.069533 0.516557 -0.160217
C25   C     C_2   0.497872 0.930467 0.483443 -0.160216
C26   C     C_2   0.504645 0.514918 0.082300 0.106601
C27   C     C_2   0.495339 0.485094 0.917702 0.106604
C28   C     C_R   0.263093 0.500322 0.501230 0.523793
Cu1   Cu    Cu3+1 0.521920 0.521810 0.644910 0.957909
Cu2   Cu    Cu3+1 0.478080 0.478190 0.355090 0.957935
H1    H     H_    0.075470 0.062494 0.217539 0.110521
H2    H     H_    0.518448 0.135046 0.631254 0.163095
H3    H     H_    0.530242 0.950715 0.706929 0.111150
H4    H     H_    0.469757 0.049285 0.293072 0.111142
H5    H     H_    0.438546 0.399942 0.841368 0.139816
H6    H     H_    0.561418 0.600083 0.158635 0.139840
H7    H     H_    0.727800 0.740977 0.863753 0.165193
H8    H     H_    0.773127 0.596048 0.900269 0.150923
H9    H     H_    0.812276 0.716919 0.163928 0.150509
H10   H     H_    0.896451 0.799974 0.074074 0.102849
H11   H     H_    0.752598 0.861043 0.139923 0.156880
H12   H     H_    0.924524 0.937522 0.782388 0.110533
H13   H     H_    0.226917 0.403870 0.099822 0.150981
H14   H     H_    0.272222 0.258807 0.136057 0.165066
H15   H     H_    0.247409 0.139039 0.859855 0.156861
H16   H     H_    0.103561 0.200118 0.925695 0.102857
H17   H     H_    0.187855 0.283291 0.836063 0.150511
H18   H     H_    0.251535 0.738258 0.666744 0.140125
H19   H     H_    0.748464 0.261751 0.333243 0.140133
H20   H     H_    0.154577 0.934423 0.796835 0.106704
H21   H     H_    0.845418 0.065595 0.203110 0.106695
H22   H     H_    0.791243 0.741816 0.640485 0.116639
H23   H     H_    0.208754 0.258195 0.359466 0.116664
H24   H     H_    0.481546 0.864954 0.368746 0.163090
N1    N     N_2   0.445130 0.445420 0.137360 -0.076413
N2    N     N_2   0.554870 0.554580 0.862640 -0.076407
O1    O     O_R   0.511700 0.332340 0.577400 -0.516490
O2    O     O_3   0.398182 0.328065 0.039785 -0.502959
O3    O     O_R   0.488300 0.667660 0.422600 -0.516498
O4    O     O_R   0.474680 0.295500 0.332650 -0.485304
O5    O     O_R   0.525320 0.704500 0.667350 -0.485330
O6    O     O_R   0.338170 0.518410 0.622370 -0.506265
O7    O     O_R   0.661830 0.481590 0.377630 -0.506240
O8    O     O_R   0.301150 0.481570 0.377630 -0.524059
O9    O     O_R   0.698850 0.518430 0.622370 -0.524081
O10   O     O_3   0.601874 0.671912 0.960224 -0.502997

loop_
_geom_bond_atom_site_label_1
_geom_bond_atom_site_label_2
_ccdc_geom_bond_type
C23   H3    S    
C7    H12   S    
Cu1   Cu2   S    
Cu1   N2    S    
Cu2   O8    S    
C6    H21   S    
C18   O10   S    
C2    C16   S    
Cu2   N1    S    
C14   C17   A    
C13   C17   A    
C4    H19   S    
C9    C11   A    
C2    O9    A    
C26   N1    D    
C20   C21   S    
C4    C15   A    
C23   C25   D    
C18   H8    S    
C3    C5    A    
C1    C22   S    
Cu1   O5    S    
Cu2   O7    S    
C24   C25   S    
C12   O5    A    
C12   O3    A    
C12   C23   S    
C26   C27   S    
C9    H22   S    
C19   H9    S    
C25   H24   S    
C3    C14   A    
N2    O10   S    
C28   O8    A    
C22   C24   D    
C4    C6    A    
C20   H14   S    
C18   H7    S    
Cu1   O1    S    
C21   H16   S    
C21   H15   S    
C13   C15   A    
C22   H4    S    
C11   C14   A    
Cu1   O9    S    
C5    H20   S    
N1    O2    S    
C19   H10   S    
C20   O2    S    
C15   C16   A    
C7    C9    A    
C3    H18   S    
C20   H13   S    
Cu2   O4    S    
C2    O7    A    
C10   H23   S    
C8    C10   A    
C18   C19   S    
C11   C16   A    
C1    O4    A    
C26   H6    S    
C24   H2    S    
C5    C7    A    
Cu2   O3    S    
Cu1   O6    S    
C6    C8    A    
C27   H5    S    
C27   N2    D    
C17   C28   S    
C8    H1    S    
C19   H11   S    
C28   O6    A    
C21   H17   S    
C10   C13   A    
C1    O1    A    
