data_mof_unit_2325.cif
_audit_creation_date              2012-12-10T17:16:41-0500
_audit_creation_method            fapswitch 2.2
_symmetry_space_group_name_H-M    P1
_symmetry_Int_Tables_number       1
_space_group_crystal_system       triclinic
_cell_length_a                    10.055253
_cell_length_b                    10.465729
_cell_length_c                    10.808439
_cell_angle_alpha                 90.057419
_cell_angle_beta                  95.229507
_cell_angle_gamma                 84.36096
_cell_volume                      1127.17980307

loop_
_atom_site_label
_atom_site_type_symbol
_atom_type_description
_atom_site_fract_x
_atom_site_fract_y
_atom_site_fract_z
_atom_type_partial_charge
Br1   Br    Br    0.980974 0.157319 0.618695 -0.554444
Br2   Br    Br    0.032462 0.839434 0.419067 -0.563271
C1    C     C_R   0.443283 0.505868 0.266759 0.909557
C2    C     C_R   0.509689 0.738333 0.521838 0.897351
C3    C     C_R   0.677598 0.077263 0.343450 0.205753
C4    C     C_R   0.333323 0.910996 0.681932 0.191446
C5    C     C_R   0.804126 0.009649 0.338566 -0.220386
C6    C     C_R   0.208114 0.979428 0.691930 -0.210843
C7    C     C_R   0.851470 0.914371 0.426060 0.303912
C8    C     C_R   0.160306 0.078314 0.608545 0.299764
C9    C     C_R   0.766300 0.877240 0.513571 0.217218
C10   C     C_R   0.242821 0.116873 0.519781 0.191221
C11   C     C_R   0.630306 0.929612 0.502614 -0.026947
C12   C     C_R   0.556380 0.489181 0.732897 0.892450
C13   C     C_R   0.378782 0.064707 0.525575 -0.019768
C14   C     C_R   0.594059 0.043433 0.434907 0.054282
C15   C     C_R   0.415275 0.948930 0.590728 0.056255
C16   C     C_R   0.528497 0.872090 0.556613 -0.196439
C17   C     C_R   0.478846 0.120885 0.465866 -0.198172
C18   C     C_3   0.632512 0.175935 0.243404 -0.874272
C19   C     C_3   0.379285 0.806339 0.776379 -0.856656
C20   C     C_3   0.823165 0.808610 0.632651 -0.851397
C21   C     C_3   0.178549 0.191341 0.407331 -0.792610
C22   C     C_3   0.728242 0.497190 0.923080 -0.896761
C23   C     C_2   0.408853 0.496695 0.133567 0.012448
C24   C     C_3   0.270269 0.545070 0.075908 -0.893653
C25   C     C_2   0.589659 0.474226 0.865611 0.028829
C26   C     C_2   0.506344 0.446128 0.066268 -0.172515
C27   C     C_2   0.490907 0.444779 0.932598 -0.153414
C28   C     C_2   0.064074 0.516203 0.474262 -0.075747
C29   C     C_2   0.928231 0.509489 0.513395 -0.050098
C30   C     C_R   0.492345 0.258788 0.485892 0.887206
H1    H     H_    0.868403 0.034654 0.268954 0.175115
H2    H     H_    0.697436 0.255726 0.253950 0.247602
H3    H     H_    0.642592 0.131979 0.150736 0.232692
H4    H     H_    0.312293 0.728196 0.764742 0.254125
H5    H     H_    0.484545 0.766348 0.769372 0.218122
H6    H     H_    0.373932 0.845759 0.871427 0.229693
H7    H     H_    0.815958 0.877547 0.710461 0.248114
H8    H     H_    0.766042 0.727703 0.654252 0.227536
H9    H     H_    0.930301 0.772671 0.631880 0.251437
H10   H     H_    0.103872 0.134372 0.356561 0.251637
H11   H     H_    0.125630 0.280602 0.437628 0.245300
H12   H     H_    0.145047 0.952183 0.761648 0.178843
H13   H     H_    0.251396 0.213775 0.341288 0.217032
H14   H     H_    0.792802 0.526861 0.852364 0.247684
H15   H     H_    0.720626 0.575018 0.992760 0.248261
H16   H     H_    0.777977 0.407784 0.968714 0.250079
H17   H     H_    0.205980 0.588477 0.146159 0.265260
H18   H     H_    0.277887 0.619838 0.004720 0.249169
H19   H     H_    0.220308 0.464307 0.031835 0.240362
H20   H     H_    0.392613 0.428638 0.888207 0.175492
H21   H     H_    0.605296 0.413954 0.109852 0.177258
H22   H     H_    0.900660 0.553413 0.599006 0.151702
H23   H     H_    0.087462 0.485728 0.382086 0.151930
H24   H     H_    0.871943 0.407417 0.367686 0.161197
H25   H     H_    0.131909 0.576572 0.638845 0.164948
H26   H     H_    0.525946 0.214098 0.245640 0.216234
N1    N     N_2   0.157300 0.551390 0.551120 -0.166055
N2    N     N_2   0.842700 0.448610 0.448880 -0.171455
O1    O     O_R   0.568940 0.489660 0.307530 -0.637535
O2    O     O_R   0.431060 0.510340 0.692470 -0.645317
O3    O     O_R   0.348880 0.522640 0.340350 -0.597021
O4    O     O_R   0.651120 0.477360 0.659650 -0.599252
O5    O     O_R   0.610030 0.300280 0.483580 -0.560106
O6    O     O_R   0.389970 0.699720 0.516420 -0.550991
O7    O     O_R   0.389970 0.333270 0.516400 -0.605953
O8    O     O_R   0.610030 0.666730 0.483600 -0.609202
Zn1   Zn    Zn3+2 0.646940 0.477980 0.478080 0.963816
Zn2   Zn    Zn3+2 0.353060 0.522020 0.521920 0.961946

loop_
_geom_bond_atom_site_label_1
_geom_bond_atom_site_label_2
_ccdc_geom_bond_type
C29   N2    D    
C2    O6    A    
C26   H21   S    
C22   C25   S    
C21   H13   S    
C1    O3    A    
C12   C25   S    
C25   C27   D    
C7    C9    A    
C28   H23   S    
C9    C20   S    
C2    O8    A    
C10   C13   A    
C1    C23   S    
O7    Zn2   S    
C2    C16   S    
C28   N1    D    
C22   H15   S    
C24   H18   S    
C15   C16   A    
C22   H14   S    
C19   H4    S    
C24   H19   S    
C4    C19   S    
C23   C26   D    
C13   C17   A    
C19   H6    S    
C5    H1    S    
C10   C21   S    
O6    Zn2   S    
C21   H10   S    
C8    C10   A    
N2    Zn1   S    
C30   O7    A    
O5    Zn1   S    
C12   O4    A    
C11   C16   A    
C26   C27   S    
H24   N2    S    
C3    C5    A    
C1    O1    A    
C29   H22   S    
C14   C17   A    
C28   C29   S    
C3    C18   S    
H25   N1    S    
C20   H9    S    
C17   C30   S    
N1    Zn2   S    
C18   H26   S    
C18   H2    S    
C12   O2    A    
C5    C7    A    
C9    C11   A    
C21   H11   S    
C30   O5    A    
O2    Zn2   S    
C19   H5    S    
C6    C8    A    
C11   C14   A    
O1    Zn1   S    
C13   C15   A    
C4    C15   A    
C20   H8    S    
O8    Zn1   S    
C3    C14   A    
C4    C6    A    
C23   C24   S    
O4    Zn1   S    
Br2   C7    S    
C20   H7    S    
C18   H3    S    
Br1   C8    S    
C6    H12   S    
C22   H16   S    
O3    Zn2   S    
C27   H20   S    
C24   H17   S    
