data_mof_unit_2538.cif
_audit_creation_date              2012-12-11T16:04:49-0500
_audit_creation_method            fapswitch 2.2
_symmetry_space_group_name_H-M    P1
_symmetry_Int_Tables_number       1
_space_group_crystal_system       triclinic
_cell_length_a                    10.687351
_cell_length_b                    10.590489
_cell_length_c                    16.942894
_cell_angle_alpha                 98.476257
_cell_angle_beta                  98.590619
_cell_angle_gamma                 61.540322
_cell_volume                      1660.58956875

loop_
_atom_site_label
_atom_site_type_symbol
_atom_type_description
_atom_site_fract_x
_atom_site_fract_y
_atom_site_fract_z
_atom_type_partial_charge
C1    C     C_R   0.353620 0.777102 0.399239 0.551674
C2    C     C_3   0.424902 0.696931 0.256499 -0.132877
C3    C     C_3   0.342199 0.818400 0.319824 0.088288
C4    C     C_R   0.370835 0.346825 0.358718 0.537824
C5    C     C_3   0.383484 0.921224 0.288937 -0.135525
C6    C     C_3   0.244708 0.971559 0.231642 -0.100402
C7    C     C_3   0.207479 0.866279 0.262629 0.244935
C8    C     C_3   0.286712 0.745869 0.199275 -0.135197
C9    C     C_3   0.327257 0.849290 0.168572 0.007243
C10   C     C_3   0.479539 0.280369 0.792010 0.219037
C11   C     C_3   0.429847 0.424594 0.758900 0.202301
C12   C     C_3   0.714704 0.332807 0.234451 -0.176324
C13   C     C_3   0.378443 0.366543 0.679740 0.009981
C14   C     C_3   0.429394 0.219568 0.712864 -0.124534
C15   C     C_3   0.281040 0.282689 0.743041 0.203970
C16   C     C_R   0.720391 0.408630 0.389811 0.551568
C17   C     C_3   0.227957 0.428020 0.708837 -0.135347
C18   C     C_3   0.280904 0.486318 0.789951 -0.180945
C19   C     C_3   0.332755 0.339235 0.822859 0.075084
C20   C     C_1   0.820481 0.339753 0.708976 0.021481
C21   C     C_1   0.847048 0.313545 0.777563 0.019369
C22   C     C_1   0.337188 0.814059 0.709405 0.026852
C23   C     C_3   0.783113 0.370638 0.314363 0.045817
C24   C     C_1   0.312081 0.841325 0.778112 0.016884
C25   C     C_R   0.951437 0.287173 0.102968 0.547211
C26   C     C_R   0.319068 0.299828 0.120223 0.527660
C27   C     C_R   0.296286 0.887669 0.087263 0.529016
C28   C     C_R   0.356334 0.772083 0.627024 0.551889
C29   C     C_R   0.886227 0.299044 0.860478 0.594226
C30   C     C_R   0.310723 0.297780 0.894995 0.604099
C31   C     C_R   0.279447 0.885663 0.858755 0.549690
C32   C     C_R   0.408765 0.377988 0.601172 0.597100
C33   C     C_R   0.775591 0.378413 0.629253 0.566227
C34   C     C_3   0.929958 0.244767 0.297968 -0.119754
C35   C     C_1   0.344129 0.336689 0.275002 -0.053001
C36   C     C_1   0.331931 0.326819 0.203827 -0.051936
C37   C     C_3   0.862502 0.206358 0.216551 -0.094716
C38   C     C_3   0.962093 0.347340 0.258101 -0.120782
C39   C     C_3   0.815071 0.472270 0.275243 0.252643
C40   C     C_3   0.746267 0.436210 0.194891 -0.101614
C41   C     C_3   0.893107 0.310314 0.178470 0.011627
C42   C     C_3   0.465445 0.800884 0.224077 -0.100376
Cl1   Cl    Cl    0.795956 0.645814 0.314426 -0.593681
Cr1   Cr    Cr6+3 0.608340 0.611040 0.520430 1.072912
Cr2   Cr    Cr6+3 0.287650 0.601120 0.489350 1.083372
Cr3   Cr    Cr6+3 0.604040 0.287870 0.490280 1.055146
Cr4   Cr    Cr6+3 0.054020 0.052700 0.970850 1.052675
Cr5   Cr    Cr6+3 0.059230 0.375120 0.993390 1.046612
Cr6   Cr    Cr6+3 0.374950 0.061200 0.992340 1.064086
H1    H     H_    0.612991 0.326215 0.226309 0.121711
H2    H     H_    0.672387 0.513084 0.150908 0.134406
H3    H     H_    0.495115 0.584942 0.271196 0.104467
H4    H     H_    0.568599 0.775427 0.202666 0.182000
H5    H     H_    0.421390 0.993040 0.327156 0.151428
H6    H     H_    0.026758 0.863626 0.240874 0.333810
H7    H     H_    0.526782 0.521844 0.822991 0.331777
H8    H     H_    0.682719 0.162945 0.798777 0.328728
H9    H     H_    0.183574 0.185579 0.678886 0.318006
H10   H     H_    0.173550 0.083681 0.217186 0.096897
H11   H     H_    0.248295 0.673993 0.161526 0.119807
H12   H     H_    0.488175 0.110473 0.681889 0.139339
H13   H     H_    0.124398 0.485273 0.672828 0.153766
H14   H     H_    0.223229 0.593734 0.822825 0.135673
H15   H     H_    0.881943 0.097640 0.189042 0.162795
H16   H     H_    0.003259 0.169647 0.342835 0.179238
H17   H     H_    0.064073 0.353364 0.266197 0.127494
O1    O     O_R   0.751220 0.499230 0.435170 -0.454877
O2    O     O_R   0.412990 0.180750 0.091610 -0.505065
O3    O     O_R   0.366620 0.943130 0.065760 -0.503754
O4    O     O_R   0.477220 0.727600 0.436870 -0.508206
O5    O     O_R   0.160510 0.906330 0.879210 -0.517586
O6    O     O_R   0.930190 0.179050 0.889450 -0.476021
O7    O     O_R   0.909140 0.398170 0.896710 -0.499531
O8    O     O_R   0.186190 0.363460 0.918830 -0.499804
O9    O     O_R   0.401670 0.173200 0.913310 -0.457090
O10   O     O_R   0.356120 0.936130 0.900470 -0.483953
O11   O     O_3   0.162740 0.163010 0.985530 -0.282532
O12   O     O_R   0.297880 0.469080 0.560050 -0.497510
O13   O     O_R   0.258650 0.745120 0.411470 -0.458099
O14   O     O_R   0.297070 0.467240 0.395960 -0.476852
O15   O     O_R   0.488830 0.252610 0.387790 -0.508827
O16   O     O_R   0.724400 0.302390 0.420980 -0.493719
O17   O     O_R   0.752100 0.501210 0.612190 -0.494698
O18   O     O_R   0.478040 0.729440 0.600970 -0.491947
O19   O     O_R   0.259530 0.747110 0.588490 -0.514971
O20   O     O_3   0.073608 0.901592 0.285913 -0.680268
O21   O     O_3   0.511054 0.497502 0.764841 -0.724860
O22   O     O_3   0.609392 0.207653 0.837694 -0.673058
O23   O     O_R   0.489720 0.254590 0.564810 -0.523287
O24   O     O_3   0.200743 0.208504 0.737073 -0.700237
O25   O     O_R   0.725220 0.304230 0.585080 -0.508407
O26   O     O_3   0.500010 0.500010 0.500020 -0.315508
O27   O     O_R   0.171830 0.913880 0.057510 -0.527695
O28   O     O_R   0.940690 0.186050 0.054730 -0.491625
O29   O     O_R   0.920470 0.405720 0.075010 -0.502931
O30   O     O_R   0.196690 0.370460 0.084120 -0.519906

loop_
_geom_bond_atom_site_label_1
_geom_bond_atom_site_label_2
_ccdc_geom_bond_type
C5    C42   S    
C11   C18   S    
Cr6   O2    S    
C28   O18   A    
C34   C37   S    
C13   C32   S    
C35   C36   T    
Cr1   O17   S    
C6    C9    S    
C7    C8    S    
Cr3   O23   S    
C15   C19   S    
C12   C23   S    
C10   O22   S    
C9    C42   S    
Cr5   O29   S    
C4    O14   A    
C3    C7    S    
C33   O25   A    
C42   H4    S    
C38   C39   S    
C30   O8    A    
C18   H14   S    
C7    O20   S    
C29   O7    A    
C18   C19   S    
C12   C37   S    
Cr2   O26   S    
Cr3   O16   S    
C4    O15   A    
C38   H17   S    
C11   O21   S    
C8    C9    S    
Cr6   O9    S    
Cr1   O4    S    
Cr2   O12   S    
Cr1   O26   S    
C29   O6    A    
C31   O5    A    
C4    C35   S    
C25   O28   A    
Cr6   O3    S    
C13   C14   S    
C6    H10   S    
C34   H16   S    
C26   O30   A    
Cr5   O8    S    
C5    H5    S    
C38   C41   S    
C10   C14   S    
C25   C41   S    
C39   C40   S    
H7    O21   S    
C39   Cl1   S    
Cr3   O25   S    
C3    C5    S    
C14   H12   S    
C21   C29   S    
C1    C3    S    
Cr5   O11   S    
C12   C40   S    
Cr2   O19   S    
C17   H13   S    
Cr3   O15   S    
H9    O24   S    
C32   O23   A    
C10   C19   S    
C23   C34   S    
C16   O16   A    
C17   C18   S    
Cr4   O27   S    
Cr6   O10   S    
Cr2   O13   S    
C16   O1    A    
C33   O17   A    
Cr4   O5    S    
C2    H3    S    
C20   C33   S    
C26   C36   S    
C40   C41   S    
C25   O29   A    
C16   C23   S    
C1    O13   A    
C22   C24   T    
C27   O27   A    
Cr4   O11   S    
C37   H15   S    
C9    C27   S    
C15   C17   S    
Cr5   O30   S    
C34   C38   S    
Cr5   O7    S    
C2    C8    S    
Cr1   O18   S    
C27   O3    A    
C12   H1    S    
C6    C7    S    
C40   H2    S    
C1    O4    A    
H8    O22   S    
C13   C17   S    
C26   O2    A    
H6    O20   S    
C2    C3    S    
C24   C31   S    
C8    H11   S    
C15   O24   S    
C30   O9    A    
C11   C13   S    
C31   O10   A    
C5    C6    S    
C2    C42   S    
C23   C39   S    
Cr4   O28   S    
Cr6   O11   S    
Cr2   O14   S    
C37   C41   S    
Cr4   O6    S    
C10   C11   S    
C32   O12   A    
Cr3   O26   S    
C20   C21   T    
C28   O19   A    
C14   C15   S    
Cr1   O1    S    
C22   C28   S    
C19   C30   S    
