data_mof_unit_2486.cif
_audit_creation_date              2012-12-10T17:09:32-0500
_audit_creation_method            fapswitch 2.2
_symmetry_space_group_name_H-M    P1
_symmetry_Int_Tables_number       1
_space_group_crystal_system       triclinic
_cell_length_a                    10.531988
_cell_length_b                    10.808075
_cell_length_c                    10.148423
_cell_angle_alpha                 89.743499
_cell_angle_beta                  89.716236
_cell_angle_gamma                 90.403945
_cell_volume                      1155.14559433

loop_
_atom_site_label
_atom_site_type_symbol
_atom_type_description
_atom_site_fract_x
_atom_site_fract_y
_atom_site_fract_z
_atom_type_partial_charge
C1    C     C_R   0.499316 0.263143 0.500217 0.897632
C2    C     C_2   0.573267 0.565731 0.068043 0.039056
C3    C     C_R   0.257953 0.501018 0.500420 0.931608
C4    C     C_R   0.504005 0.736472 0.498912 0.973387
C5    C     C_R   0.741623 0.498538 0.499560 0.911794
C6    C     C_3   0.038108 0.498129 0.625528 0.199518
C7    C     C_3   0.956818 0.396549 0.560821 0.116758
C8    C     C_3   0.875832 0.497890 0.498525 -0.090014
C9    C     C_3   0.955826 0.599351 0.562605 0.123067
C10   C     C_3   0.040638 0.601540 0.438847 -0.052023
C11   C     C_3   0.905698 0.280210 0.628234 -0.836971
C12   C     C_3   0.958699 0.500369 0.373168 -0.272929
C13   C     C_2   0.392115 0.079318 0.601234 0.914780
C14   C     C_3   0.543803 0.721749 0.879448 -0.732676
C15   C     C_2   0.693975 0.621910 0.113611 0.909373
C16   C     C_3   0.384178 0.444302 0.100935 -0.578055
C17   C     C_3   0.079561 0.497076 0.769205 -0.758346
C18   C     C_3   0.903653 0.712467 0.633119 -0.825172
C19   C     C_2   0.085370 0.716566 0.369862 0.910740
C20   C     C_2   0.092134 0.289261 0.365630 0.922287
C21   C     C_3   0.439542 0.892636 0.262861 -0.736398
C22   C     C_3   0.628621 0.116821 0.300389 -0.791544
C23   C     C_3   0.041770 0.399623 0.437146 -0.048993
C24   C     C_3   0.122891 0.500908 0.501530 -0.199794
C25   C     C_2   0.503139 0.936034 0.388271 0.240836
C26   C     C_2   0.529443 0.865806 0.494124 -0.307335
C27   C     C_2   0.532349 0.065762 0.398851 0.064598
C28   C     C_2   0.480783 0.131888 0.498866 -0.222575
C29   C     C_2   0.537421 0.590438 0.928088 0.136076
H1    H     H_    0.521973 0.413961 0.885771 0.177337
H2    H     H_    0.621936 0.732276 0.806563 0.250113
H3    H     H_    0.786482 0.726970 0.246380 0.346401
H4    H     H_    0.328735 0.406783 0.184308 0.260048
H5    H     H_    0.323580 0.512048 0.048222 0.209428
H6    H     H_    0.403632 0.360760 0.041905 0.175425
H7    H     H_    0.994492 0.495600 0.834186 0.259729
H8    H     H_    0.137148 0.413542 0.789249 0.251015
H9    H     H_    0.136656 0.581300 0.790373 0.246058
H10   H     H_    0.983416 0.771327 0.667694 0.270896
H11   H     H_    0.843589 0.766599 0.564576 0.225072
H12   H     H_    0.923207 0.500791 0.270331 0.230700
H13   H     H_    0.845768 0.682625 0.719341 0.258492
H14   H     H_    0.156684 0.888537 0.386719 0.364445
H15   H     H_    0.199818 0.136494 0.372100 0.355123
H16   H     H_    0.410718 0.972646 0.201008 0.222772
H17   H     H_    0.505875 0.836402 0.203447 0.257395
H18   H     H_    0.352586 0.838235 0.285729 0.253435
H19   H     H_    0.678625 0.040664 0.248850 0.245140
H20   H     H_    0.580592 0.173059 0.223898 0.259775
H21   H     H_    0.702050 0.173040 0.351287 0.228554
H22   H     H_    0.572999 0.906250 0.581110 0.108172
H23   H     H_    0.986074 0.222717 0.662398 0.271574
H24   H     H_    0.846151 0.306053 0.714184 0.254067
H25   H     H_    0.847408 0.226249 0.557759 0.223032
H26   H     H_    0.245255 0.965324 0.644816 0.365692
H27   H     H_    0.450840 0.748753 0.837582 0.252833
H28   H     H_    0.563804 0.786704 0.961330 0.194270
N1    N     N_2   0.501360 0.501330 0.852150 -0.195988
N2    N     N_2   0.501400 0.501360 0.147810 -0.111891
O1    O     O_R   0.499980 0.319060 0.613040 -0.587839
O2    O     O_R   0.298775 0.993161 0.566677 -0.780790
O3    O     O_2   0.789346 0.611492 0.045450 -0.635787
O4    O     O_R   0.698607 0.692337 0.228231 -0.782422
O5    O     O_2   0.071094 0.727519 0.250949 -0.614846
O6    O     O_R   0.139706 0.812186 0.442578 -0.797366
O7    O     O_2   0.065133 0.273073 0.249975 -0.622776
O8    O     O_R   0.170342 0.205958 0.431417 -0.803441
O9    O     O_R   0.500020 0.319100 0.386900 -0.611672
O10   O     O_R   0.313930 0.499950 0.613050 -0.600341
O11   O     O_R   0.313970 0.499990 0.386910 -0.634177
O12   O     O_R   0.499980 0.680900 0.613100 -0.635269
O13   O     O_R   0.500020 0.680940 0.386960 -0.564696
O14   O     O_R   0.686030 0.500010 0.613090 -0.619372
O15   O     O_R   0.686070 0.500050 0.386950 -0.598383
O16   O     O_2   0.400022 0.113259 0.715742 -0.611877
Zn1   Zn    Zn3+2 0.499970 0.499970 0.650990 0.970923
Zn2   Zn    Zn3+2 0.500030 0.500030 0.349010 0.982333

loop_
_geom_bond_atom_site_label_1
_geom_bond_atom_site_label_2
_ccdc_geom_bond_type
C22   H19   S    
C20   O8    S    
C14   H27   S    
C14   H2    S    
N2    Zn2   S    
C6    C9    S    
N1    Zn1   S    
C7    C8    S    
C7    C11   S    
C12   C23   S    
O13   Zn2   S    
C2    C29   S    
C20   O7    D    
C3    O10   A    
C18   H13   S    
C16   H6    S    
O12   Zn1   S    
H26   O2    S    
C1    O9    A    
O10   Zn1   S    
C5    O15   A    
C14   H28   S    
C18   H11   S    
C11   H23   S    
C16   H5    S    
C13   O16   D    
C8    C9    S    
O15   Zn2   S    
C1    C28   S    
C23   C24   S    
C13   C28   S    
C17   H7    S    
C9    C10   S    
C19   O5    D    
C11   H24   S    
C8    C12   S    
C22   H21   S    
O11   Zn2   S    
C3    C24   S    
C21   H16   S    
C3    O11   A    
C1    O1    A    
C2    N2    D    
C10   C24   S    
C25   C26   D    
O1    Zn1   S    
C16   N2    S    
C18   H10   S    
C12   H12   S    
C16   H4    S    
C20   C23   S    
C10   C19   S    
H14   O6    S    
C6    C24   S    
C17   H8    S    
C2    C15   S    
C11   H25   S    
C10   C12   S    
C22   H20   S    
C22   C27   S    
O14   Zn1   S    
C14   C29   S    
C4    O13   A    
C21   H17   S    
O9    Zn2   S    
C6    C17   S    
C21   C25   S    
H3    O4    S    
C5    C8    S    
C4    C26   S    
C6    C7    S    
C25   C27   S    
C26   H22   S    
C7    C23   S    
H1    N1    S    
C15   O3    D    
C19   O6    S    
C17   H9    S    
C5    O14   A    
C9    C18   S    
C13   O2    S    
C29   N1    D    
C27   C28   D    
C15   O4    S    
H15   O8    S    
C4    O12   A    
C21   H18   S    
