data_mof_unit_3683.cif
_audit_creation_date              2012-12-10T17:51:31-0500
_audit_creation_method            fapswitch 2.2
_symmetry_space_group_name_H-M    P1
_symmetry_Int_Tables_number       1
_space_group_crystal_system       triclinic
_cell_length_a                    9.968327
_cell_length_b                    10.630375
_cell_length_c                    16.600696
_cell_angle_alpha                 92.523534
_cell_angle_beta                  85.55908
_cell_angle_gamma                 89.041353
_cell_volume                      1751.78636525

loop_
_atom_site_label
_atom_site_type_symbol
_atom_type_description
_atom_site_fract_x
_atom_site_fract_y
_atom_site_fract_z
_atom_type_partial_charge
C1    C     C_R   0.499636 0.739170 0.498151 0.966710
C2    C     C_R   0.529588 0.469972 0.259365 -0.023057
C3    C     C_R   0.395711 0.861020 0.363058 -0.152919
C4    C     C_R   0.481789 0.493228 0.652876 0.928820
C5    C     C_R   0.345445 0.922589 0.298955 -0.134719
C6    C     C_R   0.346686 0.053353 0.298153 -0.140746
C7    C     C_R   0.398274 0.122896 0.361436 -0.157584
C8    C     C_R   0.448252 0.061843 0.427419 0.099806
C9    C     C_R   0.446875 0.930244 0.428423 0.014509
C10   C     C_R   0.500379 0.871819 0.494030 -0.246662
C11   C     C_R   0.557345 0.939588 0.556917 0.521243
C12   C     C_R   0.351486 0.463463 0.783854 -0.296383
C13   C     C_R   0.561743 0.069031 0.553516 -0.317664
C14   C     C_R   0.504049 0.128318 0.491523 -0.166811
C15   C     C_R   0.837897 0.633775 0.621721 -0.104062
C16   C     C_R   0.501364 0.260845 0.496874 0.883903
C17   C     C_R   0.889608 0.672147 0.693392 -0.260505
C18   C     C_R   0.026711 0.666996 0.698492 -0.296955
C19   C     C_R   0.111809 0.637117 0.628534 0.553021
C20   C     C_R   0.061423 0.566249 0.562043 0.050073
C21   C     C_R   0.917407 0.565577 0.560722 0.087154
C22   C     C_R   0.937571 0.436972 0.441639 -0.100887
C23   C     C_R   0.419831 0.426926 0.136880 -0.165872
C24   C     C_R   0.080237 0.437129 0.441561 -0.115065
C25   C     C_R   0.518503 0.496316 0.346505 0.809710
C26   C     C_R   0.472219 0.449812 0.734937 -0.114064
C27   C     C_R   0.578673 0.377118 0.759912 -0.217835
C28   C     C_R   0.566393 0.321848 0.833933 -0.252670
C29   C     C_R   0.449416 0.342349 0.885568 0.091111
C30   C     C_R   0.340385 0.412279 0.860250 0.562111
C31   C     C_3   0.581392 0.933219 0.695249 -0.355899
C32   C     C_3   0.212078 0.827044 0.617368 -0.288078
C33   C     C_3   0.214264 0.553862 0.941769 -0.363547
C34   C     C_R   0.413234 0.469379 0.217202 -0.232992
C35   C     C_R   0.653535 0.430664 0.219541 -0.192816
C36   C     C_R   0.660055 0.387936 0.139016 -0.177509
C37   C     C_R   0.543022 0.383356 0.097736 0.206520
C38   C     C_2   0.450093 0.313498 0.970837 -0.202235
C39   C     C_2   0.555404 0.349404 0.011145 -0.263419
H1    H     H_    0.395574 0.759312 0.360039 0.140811
H2    H     H_    0.649698 0.372814 0.978393 0.164487
H3    H     H_    0.328854 0.431553 0.105540 0.137944
H4    H     H_    0.266598 0.514570 0.763314 0.175979
H5    H     H_    0.355486 0.290424 0.003112 0.183704
H6    H     H_    0.650305 0.266741 0.852229 0.159639
H7    H     H_    0.670680 0.360415 0.721464 0.177313
H8    H     H_    0.756400 0.358059 0.108919 0.130906
H9    H     H_    0.476280 0.971551 0.703167 0.157777
H10   H     H_    0.654381 0.008118 0.707582 0.178539
H11   H     H_    0.590848 0.861482 0.741135 0.188209
H12   H     H_    0.400624 0.224092 0.357323 0.139351
H13   H     H_    0.306668 0.868555 0.249372 0.131749
H14   H     H_    0.308978 0.101022 0.247946 0.135943
H15   H     H_    0.148601 0.870421 0.669612 0.144420
H16   H     H_    0.168166 0.847836 0.559661 0.174086
H17   H     H_    0.309568 0.874217 0.618522 0.180211
H18   H     H_    0.140572 0.385311 0.393793 0.137153
H19   H     H_    0.305347 0.579397 0.973312 0.166093
H20   H     H_    0.126496 0.563129 0.987114 0.195766
H21   H     H_    0.197678 0.621029 0.893832 0.167157
H22   H     H_    0.607596 0.124685 0.599887 0.161236
H23   H     H_    0.891551 0.385024 0.393879 0.135204
H24   H     H_    0.736409 0.660910 0.615124 0.253254
H25   H     H_    0.824544 0.715338 0.742549 0.176870
H26   H     H_    0.316661 0.500287 0.246477 0.153648
H27   H     H_    0.067446 0.708370 0.751971 0.159453
H28   H     H_    0.744741 0.429712 0.251001 0.150945
N1    N     N_R   0.857140 0.501200 0.500750 -0.109779
N2    N     N_R   0.142740 0.501280 0.500770 -0.105585
O1    O     O_R   0.385310 0.683220 0.500000 -0.570137
O2    O     O_3   0.233851 0.695559 0.622973 -0.570645
O3    O     O_3   0.222788 0.428496 0.909948 -0.622753
O4    O     O_R   0.614640 0.683250 0.500010 -0.607079
O5    O     O_R   0.371780 0.500010 0.615800 -0.563122
O6    O     O_R   0.601110 0.500030 0.615800 -0.650858
O7    O     O_R   0.385360 0.316750 0.499990 -0.621440
O8    O     O_R   0.614690 0.316780 0.500000 -0.613010
O9    O     O_R   0.398890 0.499970 0.384200 -0.639094
O10   O     O_R   0.628220 0.499990 0.384200 -0.621069
O11   O     O_3   0.613187 0.874812 0.617882 -0.618163
Zn1   Zn    Zn3+2 0.346870 0.499980 0.499990 0.973767
Zn2   Zn    Zn3+2 0.653130 0.500020 0.500010 0.947384

loop_
_geom_bond_atom_site_label_1
_geom_bond_atom_site_label_2
_ccdc_geom_bond_type
C2    C35   A    
C33   H19   S    
C19   O2    S    
C19   C20   A    
C7    C8    A    
C39   H2    S    
C26   C27   A    
C23   H3    S    
C36   C37   A    
C18   C19   A    
C12   H4    S    
C17   H25   S    
C5    C6    A    
C36   H8    S    
C16   O8    A    
O1    Zn1   S    
C4    O6    A    
C33   O3    S    
C35   C36   A    
C8    C9    A    
C29   C38   S    
C5    H13   S    
C9    C10   A    
C32   H16   S    
C4    O5    A    
C2    C34   A    
C33   H20   S    
C25   O10   A    
C13   C14   A    
C31   H10   S    
C34   H26   S    
C32   H15   S    
C24   N2    A    
C32   O2    S    
C28   H6    S    
C25   O9    A    
C31   O11   S    
C11   O11   S    
C24   H18   S    
C23   C37   A    
C12   C26   A    
C38   H5    S    
C29   C30   A    
C3    C9    A    
C22   H23   S    
C4    C26   S    
C35   H28   S    
C23   C34   A    
C17   C18   A    
C22   N1    A    
C27   H7    S    
C3    H1    S    
C33   H21   S    
C31   H9    S    
C21   N1    A    
C14   C16   S    
C20   N2    A    
C31   H11   S    
O4    Zn2   S    
C15   C17   A    
C28   C29   A    
C8    C14   A    
C12   C30   A    
C16   O7    A    
C1    C10   S    
C3    C5    A    
O7    Zn1   S    
O10   Zn2   S    
C30   O3    S    
O6    Zn2   S    
C6    C7    A    
C18   H27   S    
C1    O1    A    
N1    Zn2   S    
C1    O4    A    
C37   C39   S    
C11   C13   A    
O9    Zn1   S    
C38   C39   D    
O8    Zn2   S    
C2    C25   S    
C22   C24   A    
N2    Zn1   S    
C10   C11   A    
C7    H12   S    
C15   C21   A    
C13   H22   S    
C20   C21   A    
C27   C28   A    
C15   H24   S    
O5    Zn1   S    
C6    H14   S    
C32   H17   S    
