data_mof_unit_3335.cif
_audit_creation_date              2012-12-10T20:27:17-0500
_audit_creation_method            fapswitch 2.2
_symmetry_space_group_name_H-M    P1
_symmetry_Int_Tables_number       1
_space_group_crystal_system       triclinic
_cell_length_a                    10.619294
_cell_length_b                    10.704398
_cell_length_c                    9.892775
_cell_angle_alpha                 90.250798
_cell_angle_beta                  103.013984
_cell_angle_gamma                 91.454037
_cell_volume                      1095.24756702

loop_
_atom_site_label
_atom_site_type_symbol
_atom_type_description
_atom_site_fract_x
_atom_site_fract_y
_atom_site_fract_z
_atom_type_partial_charge
C1    C     C_R   0.506941 0.260265 0.501394 0.867904
C2    C     C_R   0.533005 0.129952 0.506988 -0.118797
C3    C     C_R   0.544105 0.065237 0.386999 -0.225852
C4    C     C_R   0.540397 0.935969 0.386777 -0.197648
C5    C     C_R   0.524560 0.872485 0.506180 -0.120102
C6    C     C_R   0.538657 0.937698 0.631477 0.063858
C7    C     C_3   0.454342 0.936581 0.735129 -0.225506
C8    C     C_3   0.471219 0.078908 0.742003 -0.163754
C9    C     C_R   0.389940 0.472126 0.043949 0.198784
C10   C     C_R   0.599202 0.554918 0.097190 -0.045496
C11   C     C_R   0.602116 0.550282 0.953292 -0.035426
C12   C     C_R   0.258258 0.500183 0.442868 0.901052
C13   C     C_R   0.388361 0.476037 0.902442 0.211653
C14   C     C_3   0.295343 0.367042 0.873231 -0.534286
C15   C     C_3   0.302918 0.359690 0.028957 -0.499094
C16   C     C_R   0.503475 0.740301 0.501070 0.874028
C17   C     C_R   0.741886 0.493875 0.556749 0.945790
C18   C     C_2   0.118534 0.498065 0.412227 -0.058720
C19   C     C_2   0.062975 0.420317 0.489410 -0.218648
C20   C     C_2   0.879192 0.469017 0.584264 -0.359207
C21   C     C_2   0.925636 0.421191 0.480700 -0.170933
C22   C     C_R   0.545667 0.066070 0.631565 0.089755
H1    H     H_    0.863228 0.398637 0.379989 0.187326
H2    H     H_    0.198683 0.395332 0.814073 0.203912
H3    H     H_    0.332561 0.284759 0.829639 0.199866
H4    H     H_    0.209714 0.379218 0.057165 0.206087
H5    H     H_    0.353238 0.275908 0.078048 0.206151
H6    H     H_    0.120456 0.359638 0.565815 0.157638
H7    H     H_    0.941862 0.492031 0.684624 0.163130
H8    H     H_    0.544712 0.113149 0.290888 0.167047
H9    H     H_    0.540123 0.886924 0.290681 0.188449
H10   H     H_    0.353499 0.904266 0.688143 0.128892
H11   H     H_    0.377153 0.124097 0.702797 0.138486
N1    N     N_R   0.499160 0.499140 0.142600 -0.134132
N2    N     N_R   0.499160 0.499180 0.856960 -0.139670
O1    O     O_R   0.500020 0.316790 0.614700 -0.628855
O2    O     O_R   0.500000 0.316760 0.385350 -0.621791
O3    O     O_R   0.317820 0.500020 0.571850 -0.615427
O4    O     O_R   0.317800 0.499980 0.342510 -0.618474
O5    O     O_R   0.500000 0.683240 0.614650 -0.607821
O6    O     O_R   0.499980 0.683210 0.385300 -0.618175
O7    O     O_R   0.682200 0.500020 0.657490 -0.606275
O8    O     O_R   0.682180 0.499980 0.428150 -0.612582
Zn1   Zn    Zn3+2 0.500010 0.500020 0.653140 0.944219
Zn2   Zn    Zn3+2 0.499990 0.499980 0.346860 0.937883
C23   C     C_3   0.551741 0.140827 0.878566 -0.351827
C24   C     C_3   0.698291 0.117888 0.912430 -0.298665
C25   C     C_3   0.763763 0.174962 0.053237 -0.902601
H12   H     H_    0.747959 0.277182 0.054125 0.257070
H13   H     H_    0.724511 0.130400 0.136858 0.264541
H14   H     H_    0.869382 0.159498 0.074191 0.253523
H15   H     H_    0.718005 0.016659 0.914001 0.235627
H16   H     H_    0.742477 0.161883 0.831964 0.220394
H17   H     H_    0.541437 0.243315 0.870063 0.220778
H18   H     H_    0.509200 0.110986 0.966548 0.195026
C26   C     C_1   0.689177 0.635466 0.191287 0.254123
N3    N     N_1   0.758806 0.703104 0.265790 -0.233848
C27   C     C_1   0.709072 0.609846 0.908873 0.252092
N4    N     N_1   0.795041 0.658973 0.874749 -0.242563
C28   C     C_3   0.041403 0.593089 0.315257 -0.419266
C29   C     C_3   0.122827 0.685370 0.248876 -0.341527
C30   C     C_3   0.041235 0.790947 0.175612 -0.861255
H19   H     H_    0.959435 0.752529 0.094914 0.279789
H20   H     H_    0.002769 0.846887 0.251430 0.267142
H21   H     H_    0.101782 0.853443 0.125330 0.247498
H22   H     H_    0.202420 0.727990 0.329854 0.217211
H23   H     H_    0.164960 0.635229 0.171593 0.240694
H24   H     H_    0.970440 0.542788 0.231709 0.206622
H25   H     H_    0.988399 0.648516 0.378434 0.244141
C31   C     C_1   0.507562 0.873203 0.865979 0.238649
N5    N     N_1   0.547914 0.826538 0.971373 -0.248608

loop_
_geom_bond_atom_site_label_1
_geom_bond_atom_site_label_2
_ccdc_geom_bond_type
C23   H18   S    
C2    C22   A    
C3    H8    S    
C8    C22   S    
C17   O8    A    
O3    Zn1   S    
C24   H15   S    
N2    Zn1   S    
C11   C27   S    
C10   C26   S    
C29   H23   S    
C15   H5    S    
C24   C25   S    
C1    O2    A    
O4    Zn2   S    
C23   H17   S    
C7    C31   S    
C25   H13   S    
C2    C3    A    
C9    C15   S    
C7    C8    S    
C10   N1    A    
N1    Zn2   S    
C13   C14   S    
C26   N3    T    
C19   H6    S    
O8    Zn2   S    
C25   H14   S    
C30   H19   S    
O7    Zn1   S    
C28   H25   S    
C16   O5    A    
C30   H20   S    
C24   H16   S    
C16   O6    A    
C11   N2    A    
C25   H12   S    
C19   C21   S    
C9    N1    A    
C13   N2    A    
C6    C7    S    
C20   H7    S    
C21   H1    S    
C14   H3    S    
C12   O3    A    
C5    C6    A    
C8    H11   S    
C8    C23   S    
O1    Zn1   S    
C4    H9    S    
C29   C30   S    
O2    Zn2   S    
C3    C4    A    
C6    C22   A    
O5    Zn1   S    
C31   N5    T    
C20   C21   D    
C28   H24   S    
C18   C28   S    
C17   C20   S    
C1    C2    S    
C10   C11   A    
C17   O7    A    
C14   H2    S    
O6    Zn2   S    
C23   C24   S    
C18   C19   D    
C5    C16   S    
C9    C13   A    
C7    H10   S    
C30   H21   S    
C27   N4    T    
C14   C15   S    
C4    C5    A    
C29   H22   S    
C12   O4    A    
C1    O1    A    
C28   C29   S    
C15   H4    S    
C12   C18   S    
