data_mof_unit_11.cif
_audit_creation_date              2012-12-11T15:53:42-0500
_audit_creation_method            fapswitch 2.2
_symmetry_space_group_name_H-M    P1
_symmetry_Int_Tables_number       1
_space_group_crystal_system       triclinic
_cell_length_a                    6.931148
_cell_length_b                    14.529443
_cell_length_c                    15.967346
_cell_angle_alpha                 90.477043
_cell_angle_beta                  90.128514
_cell_angle_gamma                 89.818714
_cell_volume                      1607.93533824

loop_
_atom_site_label
_atom_site_type_symbol
_atom_type_description
_atom_site_fract_x
_atom_site_fract_y
_atom_site_fract_z
_atom_type_partial_charge
O1    O     O_R   0.361600 0.167310 0.164620 -0.544434
O2    O     O_R   0.638400 0.832690 0.835380 -0.545720
O3    O     O_R   0.691080 0.157570 0.338750 -0.503319
O4    O     O_R   0.308920 0.842430 0.661250 -0.503163
O5    O     O_R   0.861410 0.336420 0.339360 -0.544256
O6    O     O_R   0.138590 0.663580 0.660640 -0.545655
C1    C     C_R   0.522587 0.133148 0.365653 0.814097
C2    C     C_R   0.477461 0.866701 0.634273 0.814557
O7    O     O_R   0.691320 0.156280 0.165240 -0.540129
O8    O     O_R   0.308680 0.843720 0.834760 -0.530671
O9    O     O_R   0.861640 0.335130 0.164600 -0.549152
O10   O     O_R   0.138360 0.664870 0.835400 -0.551278
C3    C     C_R   0.522299 0.133871 0.136018 0.721878
C4    C     C_R   0.477705 0.866203 0.863922 0.726436
O11   O     O_R   0.361370 0.168600 0.339370 -0.530738
O12   O     O_R   0.638630 0.831400 0.660630 -0.535112
O13   O     O_3   0.527990 0.310540 0.251980 -0.389406
O14   O     O_3   0.472010 0.689460 0.748020 -0.391857
V1    V     V_3+5 0.802830 0.240980 0.251990 1.517292
V2    V     V_3+5 0.197170 0.759020 0.748010 1.543938
O15   O     O_R   0.191360 0.346160 0.165220 -0.550297
O16   O     O_R   0.808640 0.653840 0.834780 -0.551344
C5    C     C_R   0.022101 0.368208 0.136061 0.666289
C6    C     C_R   0.977899 0.631791 0.863939 0.660546
O17   O     O_R   0.191130 0.347440 0.338740 -0.548718
O18   O     O_R   0.808870 0.652560 0.661260 -0.549207
C7    C     C_R   0.022021 0.369627 0.367647 0.681972
C8    C     C_R   0.977979 0.630374 0.632352 0.678204
V3    V     V_3+5 0.302840 0.262750 0.251990 1.457475
V4    V     V_3+5 0.697160 0.737250 0.748010 1.457542
O19   O     O_3   0.027820 0.193180 0.251990 -0.338882
O20   O     O_3   0.972180 0.806820 0.748010 -0.330164
C9    C     C_3   0.821372 0.473059 0.478750 -0.123459
C10   C     C_3   0.178629 0.526943 0.521250 -0.122268
C11   C     C_3   0.914418 0.461381 0.566353 -0.125472
C12   C     C_3   0.085583 0.538621 0.433647 -0.126986
H1    H     H_    0.843633 0.429934 0.621404 0.125532
H2    H     H_    0.156368 0.570068 0.378595 0.123265
H3    H     H_    0.673615 0.450740 0.461051 0.115162
H4    H     H_    0.326386 0.549263 0.538949 0.114989
C13   C     C_3   0.989573 0.560768 0.562110 -0.022058
C14   C     C_3   0.010428 0.439234 0.437890 -0.024001
C15   C     C_3   0.896634 0.573245 0.475288 -0.127848
C16   C     C_3   0.103367 0.426757 0.524712 -0.126996
H5    H     H_    0.811091 0.634015 0.455384 0.132469
H6    H     H_    0.188912 0.365988 0.544618 0.133681
C17   C     C_R   0.820697 0.525220 0.966970 -0.145226
C18   C     C_R   0.179302 0.474780 0.033031 -0.144231
H7    H     H_    0.679983 0.543617 0.942617 0.115670
H8    H     H_    0.320017 0.456384 0.057384 0.115735
C19   C     C_R   0.831479 0.462147 0.032699 -0.141722
C20   C     C_R   0.168521 0.537853 0.967302 -0.143219
H9    H     H_    0.698638 0.433752 0.056771 0.116506
H10   H     H_    0.301362 0.566249 0.943230 0.115270
C21   C     C_R   0.010932 0.436041 0.066692 -0.040558
C22   C     C_R   0.989068 0.563959 0.933309 -0.040074
C23   C     C_R   0.636632 0.985055 0.435631 0.479189
C24   C     C_R   0.365596 0.015303 0.564960 0.421230
C25   C     C_R   0.621128 0.923217 0.502338 -0.300491
C26   C     C_R   0.378398 0.076254 0.497453 -0.235751
H11   H     H_    0.713956 0.863128 0.503763 0.180427
H12   H     H_    0.285212 0.136225 0.496083 0.175649
C27   C     C_R   0.486700 0.936530 0.566922 -0.216299
C28   C     C_R   0.513531 0.063212 0.433014 -0.216379
C29   C     C_R   0.679448 0.025047 0.033126 -0.141295
C30   C     C_R   0.320556 0.975084 0.966766 -0.105212
H13   H     H_    0.820164 0.043233 0.057632 0.113421
H14   H     H_    0.179846 0.956923 0.942237 0.127107
C31   C     C_R   0.668407 0.960984 0.967342 -0.127035
C32   C     C_R   0.331593 0.039113 0.032583 -0.134501
H15   H     H_    0.801185 0.931615 0.943331 0.123538
H16   H     H_    0.198813 0.068462 0.056613 0.118570
C33   C     C_R   0.488806 0.935117 0.933246 -0.035896
C34   C     C_R   0.511197 0.064984 0.066673 -0.035485
S1    S     S_3+6 0.806292 0.959364 0.355784 -0.004226
O21   O     O_2   0.977901 0.021475 0.366027 -0.335974
O22   O     O_2   0.872229 0.860924 0.361557 -0.343100
O23   O     O_3   0.705250 0.976131 0.261287 -0.515127
H17   H     H_    0.811996 0.967752 0.220759 0.352833
S2    S     S_3+6 0.203887 0.043495 0.647265 0.032104
O24   O     O_2   0.299062 0.026985 0.730473 -0.322094
O25   O     O_2   0.143746 0.142859 0.642796 -0.336433
O26   O     O_3   0.006597 0.977116 0.639305 -0.472140
H18   H     H_    0.956897 0.988399 0.582128 0.332483

loop_
_geom_bond_atom_site_label_1
_geom_bond_atom_site_label_2
_ccdc_geom_bond_type
C18   C21   A    
C30   H14   S    
O13   V3    S    
C12   C14   S    
O4    C2    A    
V1    O19   S    
C17   H7    S    
O9    V1    S    
C9    H3    S    
C10   H4    S    
C9    C14   S    
C11   H1    S    
O3    C1    A    
C23   C25   A    
O12   V4    S    
C8    C13   S    
C26   H12   S    
O9    C5    A    
C31   H15   S    
O7    C3    A    
O13   V1    S    
O5    C7    A    
O7    V1    S    
O6    C8    A    
O8    V2    S    
C29   H13   S    
C32   C34   A    
O3    V1    S    
O14   V4    S    
C19   C21   A    
C24   S2    S    
C20   H10   S    
C18   H8    S    
C2    O12   A    
C13   C15   S    
C10   C13   S    
C14   C16   S    
S2    O26   S    
O2    C4    A    
C16   H6    S    
O11   V3    S    
O17   V3    S    
C25   H11   S    
C9    C15   S    
C4    C33   S    
C10   C16   S    
S2    O25   D    
O8    C4    A    
O23   H17   S    
C17   C19   A    
C30   C33   A    
O15   V3    S    
C29   C34   A    
C19   H9    S    
S1    O21   D    
C15   H5    S    
O26   H18   S    
O10   V2    S    
O1    V3    S    
C31   C33   A    
C11   C16   S    
S1    O22   D    
O18   V4    S    
O15   C5    A    
O16   C6    A    
C6    C22   S    
C23   C28   A    
V2    O20   S    
C24   C27   A    
O16   V4    S    
C25   C27   A    
S2    O24   D    
C5    C21   S    
O5    V1    S    
O17   C7    A    
O6    V2    S    
O10   C6    A    
O18   C8    A    
C26   C28   A    
O2    V4    S    
C23   S1    S    
C12   H2    S    
V3    O19   S    
V4    O20   S    
C7    C14   S    
C30   C32   A    
C29   C31   A    
C1    O11   A    
C9    C11   S    
C10   C12   S    
O14   V2    S    
C11   C13   S    
S1    O23   S    
C1    C28   S    
C2    C27   S    
O4    V2    S    
C18   C20   A    
O1    C3    A    
C3    C34   S    
C12   C15   S    
C32   H16   S    
C24   C26   A    
C20   C22   A    
C17   C22   A    
