data_mof_unit_4404.cif
_audit_creation_date              2012-12-11T14:15:00-0500
_audit_creation_method            fapswitch 2.2
_symmetry_space_group_name_H-M    P1
_symmetry_Int_Tables_number       1
_space_group_crystal_system       triclinic
_cell_length_a                    24.484455
_cell_length_b                    17.348562
_cell_length_c                    15.563726
_cell_angle_alpha                 89.944277
_cell_angle_beta                  129.054739
_cell_angle_gamma                 89.958231
_cell_volume                      5133.72879252

loop_
_atom_site_label
_atom_site_type_symbol
_atom_type_description
_atom_site_fract_x
_atom_site_fract_y
_atom_site_fract_z
_atom_type_partial_charge
C1    C     C_R   0.344407 0.368509 0.227885 -0.121932
C2    C     C_R   0.682369 0.613902 0.498197 0.061529
C3    C     C_R   0.817142 0.111192 0.502679 0.065194
C4    C     C_R   0.183230 0.111393 0.498574 0.065762
C5    C     C_R   0.354956 0.631900 0.141267 0.150167
C6    C     C_R   0.645197 0.631164 0.859045 0.151507
C7    C     C_R   0.882834 0.182693 0.212073 0.148097
C8    C     C_R   0.144745 0.132278 0.858018 0.150691
C9    C     C_2   0.721312 0.668112 0.403598 -0.207094
C10   C     C_2   0.278462 0.667341 0.596523 -0.206063
C11   C     C_2   0.225022 0.161364 0.405557 -0.207083
C12   C     C_R   0.666559 0.392907 0.799662 -0.123411
C13   C     C_2   0.776293 0.160482 0.597524 -0.205337
C14   C     C_2   0.739455 0.630553 0.493915 -0.121791
C15   C     C_2   0.260397 0.630277 0.506048 -0.121746
C16   C     C_2   0.241093 0.123825 0.494654 -0.124361
C17   C     C_2   0.759648 0.123779 0.507598 -0.125013
C18   C     C_2   0.272357 0.217807 0.414537 -0.013817
C19   C     C_2   0.729612 0.217604 0.589365 -0.015806
C20   C     C_2   0.765047 0.728953 0.412021 -0.017242
C21   C     C_2   0.234858 0.728443 0.588170 -0.017708
C22   C     C_2   0.308485 0.265543 0.501615 -0.159463
C23   C     C_R   0.846362 0.865713 0.232941 -0.115187
C24   C     C_2   0.694497 0.266473 0.503333 -0.166044
C25   C     C_2   0.796034 0.779320 0.495984 -0.167014
C26   C     C_2   0.204120 0.779147 0.504398 -0.167105
C27   C     C_2   0.691797 0.343589 0.975630 -0.216720
C28   C     C_2   0.347599 0.258216 0.124940 -0.205630
C29   C     C_2   0.149061 0.753375 0.866767 -0.204861
C30   C     C_2   0.851053 0.753620 0.133331 -0.205392
C31   C     C_2   0.761731 0.343859 0.036467 -0.106204
C32   C     C_2   0.300670 0.215356 0.120479 -0.097386
C33   C     C_2   0.198126 0.711950 0.875063 -0.096594
C34   C     C_R   0.153764 0.865682 0.767322 -0.117521
C35   C     C_2   0.801625 0.712465 0.124252 -0.096066
C36   C     C_2   0.309787 0.661054 0.028110 -0.219704
C37   C     C_2   0.690360 0.660353 0.972082 -0.218395
C38   C     C_2   0.857618 0.255103 0.150179 -0.211622
C39   C     C_2   0.189726 0.162186 0.970505 -0.219251
C40   C     C_R   0.601527 0.370187 0.409009 -0.127546
C41   C     C_R   0.402174 0.368148 0.593845 -0.123952
C42   C     C_R   0.105266 0.876291 0.408339 -0.123188
C43   C     C_R   0.894811 0.876286 0.591812 -0.124204
C44   C     C_2   0.239965 0.658551 0.966687 -0.106583
C45   C     C_R   0.386845 0.600106 0.592680 -0.112488
C46   C     C_2   0.760181 0.658957 0.032891 -0.105094
C47   C     C_2   0.803501 0.292755 0.131744 -0.097792
C48   C     C_2   0.259482 0.160576 0.031169 -0.106288
C49   C     C_R   0.673078 0.368112 0.593989 -0.110751
C50   C     C_R   0.325714 0.369976 0.408877 -0.118348
C51   C     C_R   0.179307 0.877260 0.592752 -0.120546
C52   C     C_R   0.820760 0.877391 0.407398 -0.121088
C53   C     C_R   0.576084 0.390516 0.800060 -0.140253
C54   C     C_R   0.435434 0.366125 0.228318 -0.133119
C55   C     C_R   0.062725 0.863481 0.767008 -0.133397
C56   C     C_R   0.613120 0.600180 0.407281 -0.112914
C57   C     C_R   0.937391 0.863469 0.233227 -0.133912
C58   C     C_R   0.374585 0.328242 0.190598 0.145894
C59   C     C_R   0.646240 0.371380 0.861425 0.151287
C60   C     C_R   0.877445 0.824359 0.197861 0.144655
C61   C     C_R   0.122714 0.824320 0.802446 0.145522
C62   C     C_R   0.657712 0.332050 0.502173 0.126674
C63   C     C_R   0.344152 0.331794 0.501694 0.123062
C64   C     C_R   0.165579 0.843314 0.501339 0.131658
C65   C     C_R   0.834552 0.843390 0.498919 0.131707
C66   C     C_R   0.312462 0.601260 0.409165 -0.108138
C67   C     C_R   0.886790 0.099129 0.593107 -0.112104
C68   C     C_R   0.687474 0.601269 0.590809 -0.108154
C69   C     C_R   0.812043 0.099182 0.409961 -0.125105
C70   C     C_R   0.187831 0.100081 0.590916 -0.105689
C71   C     C_R   0.425000 0.611908 0.201413 -0.143172
C72   C     C_R   0.575122 0.611444 0.798833 -0.142314
C73   C     C_R   0.941624 0.141823 0.243116 -0.147075
C74   C     C_R   0.074828 0.112114 0.798226 -0.144097
C75   C     C_R   0.666344 0.609438 0.798129 -0.121355
C76   C     C_R   0.333725 0.609935 0.202028 -0.120204
C77   C     C_R   0.166092 0.110162 0.797489 -0.120848
C78   C     C_R   0.113864 0.098591 0.407685 -0.128116
C79   C     C_R   0.849901 0.139793 0.243480 -0.117454
C80   C     C_2   0.814857 0.612139 0.588298 1.024039
C81   C     C_2   0.184989 0.612356 0.411480 1.023796
C82   C     C_2   0.315070 0.099319 0.587318 1.022561
C83   C     C_2   0.685223 0.101019 0.414779 1.023707
C84   C     C_R   0.317535 0.613805 0.501749 0.061244
H1    H     H_    0.292813 0.359731 0.203354 0.086397
H2    H     H_    0.693451 0.258937 0.433005 0.121994
H3    H     H_    0.795136 0.771760 0.564404 0.123739
H4    H     H_    0.205143 0.771748 0.436100 0.123788
H5    H     H_    0.214885 0.629032 0.995112 0.132171
H6    H     H_    0.785393 0.630111 0.004238 0.130427
H7    H     H_    0.782246 0.275634 0.172533 0.129263
H8    H     H_    0.284717 0.130952 0.003088 0.132422
H9    H     H_    0.786926 0.370639 0.006477 0.127792
H10   H     H_    0.284244 0.229582 0.169173 0.125500
H11   H     H_    0.215875 0.727036 0.828457 0.125684
H12   H     H_    0.719420 0.395638 0.826931 0.083881
H13   H     H_    0.783538 0.727597 0.170354 0.125457
H14   H     H_    0.334143 0.691443 0.998856 0.132546
H15   H     H_    0.665871 0.690056 0.001586 0.132150
H16   H     H_    0.878062 0.272425 0.108100 0.131954
H17   H     H_    0.165239 0.192779 0.999397 0.132377
H18   H     H_    0.667288 0.316038 0.006494 0.135425
H19   H     H_    0.363392 0.243943 0.075347 0.135148
H20   H     H_    0.132045 0.738242 0.914459 0.135445
H21   H     H_    0.868442 0.738393 0.086201 0.135189
H22   H     H_    0.581022 0.360803 0.324996 0.092001
H23   H     H_    0.795725 0.855246 0.211196 0.085656
H24   H     H_    0.428252 0.355273 0.679707 0.098797
H25   H     H_    0.084330 0.868214 0.323820 0.091440
H26   H     H_    0.915741 0.868169 0.676352 0.091382
H27   H     H_    0.716362 0.356699 0.680008 0.090693
H28   H     H_    0.278501 0.361773 0.324982 0.087873
H29   H     H_    0.226803 0.871917 0.677260 0.092206
H30   H     H_    0.773259 0.872204 0.322911 0.092143
H31   H     H_    0.546358 0.391684 0.829813 0.091970
H32   H     H_    0.468290 0.353521 0.206340 0.094555
H33   H     H_    0.028771 0.849436 0.786444 0.097348
H34   H     H_    0.204437 0.855157 0.789156 0.085241
H35   H     H_    0.971357 0.849412 0.213804 0.097762
H36   H     H_    0.265311 0.598730 0.323984 0.149207
H37   H     H_    0.734624 0.598750 0.676019 0.148459
H38   H     H_    0.764553 0.094764 0.325325 0.151702
H39   H     H_    0.234983 0.096900 0.676090 0.146702
H40   H     H_    0.455057 0.612221 0.172188 0.094395
H41   H     H_    0.545092 0.611668 0.828104 0.093605
H42   H     H_    0.978743 0.158539 0.230719 0.101799
H43   H     H_    0.044740 0.112656 0.827395 0.094917
H44   H     H_    0.718998 0.608913 0.824254 0.089659
H45   H     H_    0.268711 0.227949 0.342205 0.105896
H46   H     H_    0.281052 0.609642 0.175842 0.091177
H47   H     H_    0.218692 0.110102 0.823391 0.090798
H48   H     H_    0.802197 0.153446 0.230571 0.092811
H49   H     H_    0.407541 0.593034 0.677427 0.087563
H50   H     H_    0.592497 0.593217 0.322580 0.087847
H51   H     H_    0.907710 0.091613 0.677911 0.087777
H52   H     H_    0.093772 0.090390 0.323427 0.090867
H53   H     H_    0.667076 0.671620 0.328686 0.127661
H54   H     H_    0.332646 0.670391 0.671605 0.127395
H55   H     H_    0.170835 0.168479 0.331484 0.126231
H56   H     H_    0.732420 0.226536 0.661078 0.115310
H57   H     H_    0.830523 0.166550 0.671698 0.127327
H58   H     H_    0.914760 0.604687 0.643769 0.324510
H59   H     H_    0.085040 0.605224 0.355813 0.324221
H60   H     H_    0.413888 0.082833 0.641115 0.325711
H61   H     H_    0.586641 0.085190 0.362183 0.325165
H62   H     H_    0.765039 0.737271 0.342838 0.110199
H63   H     H_    0.234735 0.736617 0.657228 0.110170
H64   H     H_    0.310650 0.257019 0.572878 0.122039
N1    N     N_R   0.389060 0.424180 0.294540 -0.043696
N2    N     N_R   0.374530 0.423490 0.443400 -0.041654
N3    N     N_R   0.125470 0.923490 0.556600 -0.041729
N4    N     N_R   0.874530 0.923490 0.443400 -0.041243
N5    N     N_R   0.555250 0.423100 0.705420 -0.041147
N6    N     N_R   0.444750 0.423100 0.294580 -0.043078
N7    N     N_R   0.055250 0.923100 0.705420 -0.044137
N8    N     N_R   0.944750 0.923100 0.294580 -0.044641
N9    N     N_R   0.375210 0.577180 0.443400 -0.048645
N10   N     N_R   0.624790 0.577180 0.556600 -0.048660
N11   N     N_R   0.875210 0.077180 0.443400 -0.047949
N12   N     N_R   0.610940 0.424180 0.705460 -0.043173
N13   N     N_R   0.124790 0.077180 0.556600 -0.047713
N14   N     N_R   0.445430 0.577570 0.294580 -0.043365
N15   N     N_R   0.554570 0.577570 0.705420 -0.042768
N16   N     N_R   0.945430 0.077570 0.294580 -0.045063
N17   N     N_R   0.054570 0.077570 0.705420 -0.043630
N18   N     N_R   0.611620 0.576500 0.705460 -0.046026
N19   N     N_R   0.388380 0.576500 0.294540 -0.046587
N20   N     N_R   0.111620 0.076500 0.705460 -0.046747
N21   N     N_R   0.888380 0.076500 0.294540 -0.047130
N22   N     N_R   0.421010 0.576890 0.556640 -0.042453
N23   N     N_R   0.889060 0.924180 0.294540 -0.044855
N24   N     N_R   0.578990 0.576890 0.443360 -0.042225
N25   N     N_R   0.921010 0.076890 0.556640 -0.041631
N26   N     N_R   0.078990 0.076890 0.443360 -0.041394
N27   N     N_R   0.110940 0.924180 0.705460 -0.044691
N28   N     N_R   0.579670 0.423790 0.443360 -0.043120
N29   N     N_R   0.420330 0.423790 0.556640 -0.043875
N30   N     N_R   0.079670 0.923790 0.443360 -0.042252
N31   N     N_R   0.920330 0.923790 0.556640 -0.042603
N32   N     N_R   0.625470 0.423490 0.556600 -0.043378
Ni1   Ni    Ni4+2 0.383200 0.500680 0.370150 0.220637
Ni2   Ni    Ni4+2 0.616800 0.500680 0.629850 0.217888
Ni3   Ni    Ni4+2 0.883200 0.000680 0.370150 0.224017
Ni4   Ni    Ni4+2 0.116800 0.000680 0.629850 0.221496
Ni5   Ni    Ni4+2 0.512440 0.500680 0.370150 0.211619
Ni6   Ni    Ni4+2 0.487560 0.500680 0.629850 0.210454
Ni7   Ni    Ni4+2 0.012440 0.000680 0.370150 0.213075
Ni8   Ni    Ni4+2 0.987560 0.000680 0.629850 0.212016
O1    O     O_2   0.832154 0.588293 0.676227 -0.682465
O2    O     O_R   0.865945 0.619235 0.574672 -0.782174
O3    O     O_2   0.167711 0.588984 0.323447 -0.682505
O4    O     O_R   0.133858 0.619401 0.425031 -0.782245
O5    O     O_2   0.330966 0.074689 0.674022 -0.680869
O6    O     O_R   0.366167 0.101402 0.573273 -0.781313
O7    O     O_2   0.668267 0.078819 0.326486 -0.681243
O8    O     O_R   0.634804 0.102248 0.430321 -0.780972

loop_
_geom_bond_atom_site_label_1
_geom_bond_atom_site_label_2
_ccdc_geom_bond_type
C34   H34   S    
C32   H10   S    
C21   C26   D    
N25   Ni8   S    
C53   N5    A    
C71   N14   A    
C80   O1    D    
C67   H51   S    
N18   Ni2   S    
N1    N6    A    
N16   Ni7   S    
C45   N22   A    
C4    C70   A    
C53   C59   A    
N11   N25   A    
C6    C75   A    
C7    C73   A    
C77   N20   A    
C6    C72   A    
C43   N31   A    
C8    C74   A    
C51   H29   S    
C30   C35   D    
C19   C24   D    
N15   Ni6   S    
C21   H63   S    
C7    C79   A    
C3    C69   A    
C42   H25   S    
C42   N30   A    
C73   N16   A    
C2    C68   A    
C10   C15   D    
C55   H33   S    
N9    N22   A    
C11   C18   S    
H60   O6    S    
C20   C25   D    
C73   H42   S    
H58   O2    S    
C5    C36   S    
C29   C33   D    
C25   H3    S    
C40   C62   A    
C76   N19   A    
C75   H44   S    
C77   H47   S    
C41   H24   S    
C83   O8    S    
C11   H55   S    
C57   H35   S    
C81   O3    D    
C82   O5    D    
C26   C64   S    
C34   N27   A    
C36   H14   S    
C22   C63   S    
C12   C59   A    
C9    H53   S    
C70   H39   S    
C7    C38   S    
N21   Ni3   S    
C19   H56   S    
N20   Ni4   S    
C54   H32   S    
H59   O4    S    
C1    N1    A    
C43   H26   S    
C14   C80   S    
C76   H46   S    
C52   N4    A    
C49   H27   S    
C49   N32   A    
C51   N3    A    
C66   H36   S    
C56   N24   A    
N1    Ni1   S    
C50   C63   A    
C32   C48   S    
N16   N21   A    
N9    Ni1   S    
N4    N31   A    
C68   N10   A    
C33   H11   S    
N12   Ni2   S    
N6    Ni5   S    
N32   Ni2   S    
C39   H17   S    
N2    Ni1   S    
H61   O8    S    
C10   C21   S    
C1    H1    S    
C23   C60   A    
C57   N8    A    
C29   C61   S    
N17   Ni8   S    
C13   C19   S    
C27   C31   D    
C71   H40   S    
N28   Ni5   S    
N15   N18   A    
C25   C65   S    
C15   C81   S    
C53   H31   S    
C40   N28   A    
N3    N30   A    
N31   Ni8   S    
C31   H9    S    
C34   C61   A    
N29   Ni6   S    
C29   H20   S    
C30   C60   S    
C17   C83   S    
C4    C16   S    
C55   N7    A    
C9    C14   D    
C81   O4    S    
C4    C78   A    
N26   Ni7   S    
C11   C16   D    
C50   N2    A    
C9    C20   S    
C74   H43   S    
C28   C32   D    
N24   Ni5   S    
C43   C65   A    
C23   H23   S    
N22   Ni6   S    
C16   C82   S    
C6    C37   S    
C12   N12   A    
N4    Ni3   S    
C52   H30   S    
N10   Ni2   S    
C38   C47   D    
N2    N29   A    
N30   Ni7   S    
C38   H16   S    
C8    C39   S    
C22   H64   S    
N17   N20   A    
C13   H57   S    
C30   H21   S    
C48   H8    S    
C8    C77   A    
C20   H62   S    
C36   C44   D    
C45   C84   A    
C41   C63   A    
C70   N13   A    
C42   C64   A    
C37   H15   S    
C40   H22   S    
C54   C58   A    
N8    Ni7   S    
N7    N27   A    
C24   C62   S    
C49   C62   A    
C27   H18   S    
C18   C22   D    
C33   C44   S    
C47   H7    S    
C3    C67   A    
C51   C64   A    
C57   C60   A    
C68   H37   S    
C54   N6    A    
N14   Ni5   S    
C56   H50   S    
C15   C84   S    
C46   H6    S    
C28   C58   S    
N8    N23   A    
C45   H49   S    
N13   Ni4   S    
C13   C17   D    
C72   H41   S    
N7    Ni8   S    
C79   N21   A    
C5    C76   A    
C50   H28   S    
C5    C71   A    
C27   C59   S    
C1    C58   A    
N13   N26   A    
C28   H19   S    
N10   N24   A    
N19   Ni1   S    
C24   H2    S    
C69   H38   S    
C67   N25   A    
C41   N29   A    
C79   H48   S    
C55   C61   A    
C69   N11   A    
C72   N15   A    
C3    C17   S    
C75   N18   A    
C66   N9    A    
C83   O7    D    
C2    C14   S    
C82   O6    S    
C44   H5    S    
C66   C84   A    
N14   N19   A    
N23   Ni3   S    
C31   C47   S    
N28   N32   A    
C23   N23   A    
C26   H4    S    
N5    Ni6   S    
C78   N26   A    
N5    N12   A    
C12   H12   S    
C18   H45   S    
C2    C56   A    
C10   H54   S    
N11   Ni3   S    
C37   C46   D    
C35   H13   S    
C35   C46   S    
C78   H52   S    
C74   N17   A    
C52   C65   A    
C80   O2    S    
C39   C48   D    
N27   Ni4   S    
N3    Ni4   S    
