data_mof_unit_2919.cif
_audit_creation_date              2012-12-11T14:43:29-0500
_audit_creation_method            fapswitch 2.2
_symmetry_space_group_name_H-M    P1
_symmetry_Int_Tables_number       1
_space_group_crystal_system       triclinic
_cell_length_a                    20.837623
_cell_length_b                    7.101239
_cell_length_c                    16.430922
_cell_angle_alpha                 89.99984
_cell_angle_beta                  92.645383
_cell_angle_gamma                 90.000146
_cell_volume                      2428.74084441

loop_
_atom_site_label
_atom_site_type_symbol
_atom_type_description
_atom_site_fract_x
_atom_site_fract_y
_atom_site_fract_z
_atom_type_partial_charge
O1    O     O_R   0.564840 0.505290 0.579830 -0.537735
O2    O     O_R   0.435160 0.005290 0.420170 -0.537735
O3    O     O_R   0.556720 0.179930 0.409350 -0.535570
O4    O     O_R   0.443280 0.679930 0.590650 -0.535570
C1    C     C_R   0.570143 0.344819 0.380979 0.689320
C2    C     C_R   0.429857 0.844818 0.619021 0.689321
O5    O     O_R   0.572280 0.175810 0.578530 -0.543670
O6    O     O_R   0.427720 0.675810 0.421470 -0.543670
O7    O     O_R   0.450830 0.001920 0.590540 -0.535022
O8    O     O_R   0.549170 0.501920 0.409460 -0.535022
C3    C     C_R   0.590040 0.342786 0.605054 0.705249
C4    C     C_R   0.409960 0.842786 0.394946 0.705250
O9    O     O_3   0.460130 0.338030 0.503750 -0.373310
O10   O     O_3   0.539870 0.838030 0.496250 -0.373310
V1    V     V_3+5 0.507400 0.064560 0.499310 1.440553
V2    V     V_3+5 0.492600 0.564560 0.500690 1.440556
C5    C     C_R   0.143944 0.927233 0.167857 -0.110375
C6    C     C_R   0.856055 0.427234 0.832144 -0.110357
C7    C     C_R   0.355480 0.839785 0.332898 -0.104483
C8    C     C_R   0.644519 0.339785 0.667102 -0.104478
C9    C     C_R   0.291018 0.659415 0.232136 -0.073507
C10   C     C_R   0.708980 0.159415 0.767866 -0.073520
C11   C     C_R   0.345356 0.677538 0.284512 -0.098532
C12   C     C_R   0.654643 0.177538 0.715489 -0.098536
C13   C     C_R   0.310350 0.986467 0.326141 -0.189346
C14   C     C_R   0.689649 0.486467 0.673860 -0.189340
C15   C     C_R   0.254648 0.968719 0.273926 0.128633
C16   C     C_R   0.745351 0.468720 0.726076 0.128637
C17   C     C_R   0.244866 0.802550 0.226890 0.081334
C18   C     C_R   0.755133 0.302551 0.773112 0.081337
C19   C     C_R   0.189569 0.782273 0.174740 -0.199075
C20   C     C_R   0.810429 0.282274 0.825262 -0.199043
C21   C     C_R   0.153598 0.090510 0.215734 -0.258466
C22   C     C_R   0.846401 0.590511 0.784267 -0.258477
C23   C     C_R   0.208309 0.112829 0.268486 0.335329
C24   C     C_R   0.791690 0.612831 0.731515 0.335332
H1    H     H_    0.183230 0.656911 0.137569 0.151523
H2    H     H_    0.816768 0.156913 0.862434 0.151505
H3    H     H_    0.118556 0.203228 0.211362 0.117286
H4    H     H_    0.881443 0.703229 0.788638 0.117286
H5    H     H_    0.284759 0.531940 0.196366 0.150867
H6    H     H_    0.715239 0.031941 0.803637 0.150859
H7    H     H_    0.379389 0.562162 0.287870 0.138881
H8    H     H_    0.620609 0.062162 0.712131 0.138879
H9    H     H_    0.317647 0.110827 0.363635 0.166356
H10   H     H_    0.682352 0.610827 0.636366 0.166355
C25   C     C_R   0.385885 0.861092 0.839512 -0.052051
C26   C     C_R   0.614113 0.361170 0.160487 -0.052055
H11   H     H_    0.411518 0.860638 0.898173 0.204882
H12   H     H_    0.588480 0.360751 0.101827 0.204881
C27   C     C_R   0.392431 0.853351 0.693031 -0.141821
C28   C     C_R   0.607569 0.353358 0.306968 -0.141821
C29   C     C_R   0.081730 0.901120 0.734941 -0.199928
C30   C     C_R   0.918271 0.401063 0.265057 -0.199926
C31   C     C_R   0.116655 0.886234 0.665573 -0.109252
C32   C     C_R   0.883346 0.386151 0.334425 -0.109254
C33   C     C_R   0.183317 0.877224 0.671454 -0.115384
C34   C     C_R   0.816684 0.377161 0.328544 -0.115386
C35   C     C_R   0.217693 0.884119 0.747897 0.033395
C36   C     C_R   0.782307 0.384108 0.252102 0.033396
C37   C     C_R   0.181655 0.899530 0.819962 -0.005561
C38   C     C_R   0.818345 0.399549 0.180038 -0.005565
C39   C     C_R   0.286525 0.875017 0.754347 0.032462
C40   C     C_R   0.713474 0.375027 0.245653 0.032462
C41   C     C_R   0.318265 0.873950 0.832771 -0.055258
C42   C     C_R   0.681733 0.374011 0.167228 -0.055264
C43   C     C_R   0.282489 0.886591 0.903408 0.192054
C44   C     C_R   0.717509 0.386686 0.096592 0.192060
C45   C     C_R   0.215096 0.907131 0.897094 0.268722
C46   C     C_R   0.784903 0.407204 0.102908 0.268710
C47   C     C_R   0.325190 0.865835 0.685148 -0.218189
C48   C     C_R   0.674810 0.365819 0.314852 -0.218189
C49   C     C_R   0.423075 0.850509 0.771357 0.344667
C50   C     C_R   0.576924 0.350561 0.228643 0.344669
C51   C     C_R   0.112721 0.907744 0.812074 -0.055016
C52   C     C_R   0.887280 0.407737 0.187926 -0.055017
H13   H     H_    0.304892 0.869571 0.623732 0.109181
H14   H     H_    0.695109 0.369524 0.376268 0.109180
H15   H     H_    0.029744 0.906454 0.728425 0.096110
H16   H     H_    0.970256 0.406376 0.271573 0.096111
H17   H     H_    0.206216 0.863114 0.614444 0.107226
H18   H     H_    0.793784 0.363024 0.385552 0.107227
H19   H     H_    0.091716 0.880418 0.606330 0.119449
H20   H     H_    0.908285 0.380295 0.393667 0.119449
O11   O     O_R   0.950790 0.256670 0.090520 -0.536272
O12   O     O_R   0.049210 0.756670 0.909480 -0.536262
O13   O     O_R   0.927720 0.590370 0.921470 -0.539911
O14   O     O_R   0.072280 0.090370 0.078530 -0.539912
C53   C     C_R   0.910486 0.423118 0.894303 0.765929
C54   C     C_R   0.089513 0.923118 0.105698 0.765927
O15   O     O_R   0.943270 0.586180 0.090640 -0.535912
O16   O     O_R   0.056730 0.086180 0.909360 -0.535919
O17   O     O_R   0.064850 0.759970 0.079840 -0.538969
O18   O     O_R   0.935150 0.259970 0.920160 -0.538979
C55   C     C_R   0.929731 0.417517 0.118305 0.783777
C56   C     C_R   0.070269 0.917518 0.881695 0.783781
O19   O     O_3   0.039850 0.428050 0.996240 -0.376240
O20   O     O_3   0.960150 0.928050 0.003760 -0.376245
V3    V     V_3+5 0.992610 0.701540 0.000700 1.460334
V4    V     V_3+5 0.007390 0.201540 0.999300 1.460325
O21   O     O_3   0.181048 0.930971 0.966339 -0.650054
H21   H     H_    0.207392 0.003723 0.006902 0.323040
O22   O     O_3   0.818951 0.431078 0.033665 -0.650050
H22   H     H_    0.792612 0.503888 0.993116 0.323040
O23   O     O_3   0.217512 0.274602 0.314355 -0.660565
H23   H     H_    0.181215 0.362235 0.302524 0.281541
O24   O     O_3   0.782488 0.774603 0.685645 -0.660564
H24   H     H_    0.818785 0.862236 0.697476 0.281541
O25   O     O_3   0.488975 0.838775 0.784965 -0.625396
H25   H     H_    0.510473 0.830724 0.732688 0.280902
O26   O     O_3   0.511023 0.338848 0.215034 -0.625397
H26   H     H_    0.489526 0.330767 0.267311 0.280899
Br1   Br    Br    0.324367 0.863777 0.010984 -0.534130
Br2   Br    Br    0.675629 0.363960 0.989013 -0.534111

loop_
_geom_bond_atom_site_label_1
_geom_bond_atom_site_label_2
_ccdc_geom_bond_type
C42   C44   A    
C39   C41   A    
O21   H21   S    
C15   C17   A    
O26   H26   S    
O1    C3    A    
O2    C4    A    
C2    O7    A    
C25   H11   S    
C37   C51   A    
O5    C3    A    
C21   H3    S    
C5    C21   A    
O12   V3    S    
C29   H15   S    
C28   C50   A    
C34   H18   S    
C52   C55   S    
C33   C35   A    
C34   C36   A    
O16   C56   A    
C11   H7    S    
C38   C46   A    
C36   C38   A    
C53   O18   A    
C48   H14   S    
C8    C12   A    
C41   C43   A    
O24   H24   S    
C1    C28   S    
C20   H2    S    
C2    C27   S    
O17   V3    S    
O13   V3    S    
C26   H12   S    
O6    V2    S    
C24   O24   S    
C38   C52   A    
C29   C51   A    
C27   C47   A    
O19   V3    S    
C51   C56   S    
C32   H20   S    
C30   H16   S    
C29   C31   A    
C30   C32   A    
C3    C8    S    
C35   C37   A    
C26   C50   A    
C25   C49   A    
O4    C2    A    
C50   O26   S    
C46   O22   S    
O5    V1    S    
C15   C23   A    
C9    C17   A    
C19   H1    S    
C43   C45   A    
C40   C42   A    
O4    V2    S    
C7    C11   A    
C28   C48   A    
O18   V4    S    
O6    C4    A    
O1    V2    S    
O2    V1    S    
C6    C22   A    
O14   V4    S    
O12   C56   A    
C9    H5    S    
O14   C54   A    
O20   V4    S    
C31   C33   A    
C12   H8    S    
C10   C12   A    
C6    C20   A    
C31   H19   S    
C13   H9    S    
C47   H13   S    
O19   V4    S    
O3    V1    S    
O16   V4    S    
C54   O17   A    
C37   C45   A    
C10   C18   A    
C30   C52   A    
C6    C53   S    
C14   C16   A    
C5    C54   S    
C27   C49   A    
C39   C47   A    
O3    C1    A    
C49   O25   S    
C45   O21   S    
C13   C15   A    
O23   H23   S    
C35   C39   A    
C36   C40   A    
O15   V3    S    
C9    C11   A    
C43   Br1   S    
C1    O8    A    
C17   C19   A    
O11   V4    S    
O8    V2    S    
O25   H25   S    
C18   C20   A    
O11   C55   A    
C10   H6    S    
C8    C14   A    
C5    C19   A    
C4    C7    S    
C16   C18   A    
C21   C23   A    
C32   C34   A    
C22   C24   A    
C40   C48   A    
O7    V1    S    
C7    C13   A    
C33   H17   S    
C14   H10   S    
O15   C55   A    
C16   C24   A    
C44   C46   A    
O20   V3    S    
O9    V2    S    
O22   H22   S    
O13   C53   A    
O10   V1    S    
C22   H4    S    
C23   O23   S    
C26   C42   A    
C25   C41   A    
C44   Br2   S    
