data_mof_unit_2411.cif
_audit_creation_date              2012-12-11T15:39:34-0500
_audit_creation_method            fapswitch 2.2
_symmetry_space_group_name_H-M    P1
_symmetry_Int_Tables_number       1
_space_group_crystal_system       triclinic
_cell_length_a                    7.121626
_cell_length_b                    15.059817
_cell_length_c                    17.429443
_cell_angle_alpha                 95.609153
_cell_angle_beta                  90.959624
_cell_angle_gamma                 87.091115
_cell_volume                      1857.83605926

loop_
_atom_site_label
_atom_site_type_symbol
_atom_type_description
_atom_site_fract_x
_atom_site_fract_y
_atom_site_fract_z
_atom_type_partial_charge
O1    O     O_R   0.633330 0.174290 0.828230 -0.545555
O2    O     O_R   0.366670 0.825710 0.171770 -0.541835
O3    O     O_R   0.301450 0.154140 0.662030 -0.517459
O4    O     O_R   0.698550 0.845860 0.337970 -0.521666
O5    O     O_R   0.133140 0.325730 0.671770 -0.533238
O6    O     O_R   0.866860 0.674270 0.328230 -0.551178
C1    C     C_R   0.473494 0.130654 0.634867 0.837277
C2    C     C_R   0.526537 0.869245 0.365160 0.804986
O7    O     O_R   0.303490 0.163670 0.827000 -0.538074
O8    O     O_R   0.696510 0.836330 0.173000 -0.525911
O9    O     O_R   0.135190 0.335320 0.837920 -0.518416
O10   O     O_R   0.864810 0.664680 0.162080 -0.508919
C3    C     C_R   0.474201 0.143253 0.853078 0.754203
C4    C     C_R   0.525637 0.857453 0.147437 0.783590
O11   O     O_R   0.631280 0.164690 0.662080 -0.523078
O12   O     O_R   0.368720 0.835310 0.337920 -0.521999
O13   O     O_3   0.467420 0.306310 0.753380 -0.365349
O14   O     O_3   0.532580 0.693690 0.246620 -0.372717
V1    V     V_3+5 0.191790 0.239560 0.749370 1.722615
V2    V     V_3+5 0.808210 0.760440 0.250630 1.711316
O15   O     O_R   0.805590 0.345870 0.837970 -0.508683
O16   O     O_R   0.194410 0.654130 0.162030 -0.521891
C5    C     C_R   0.972335 0.368607 0.866143 0.854919
C6    C     C_R   0.027599 0.631222 0.133748 0.864053
O17   O     O_R   0.803560 0.336340 0.672990 -0.534462
O18   O     O_R   0.196440 0.663660 0.327010 -0.532746
C7    C     C_R   0.969828 0.357414 0.646803 0.761339
C8    C     C_R   0.030216 0.642508 0.353139 0.746584
V3    V     V_3+5 0.692030 0.260450 0.750630 1.751949
V4    V     V_3+5 0.307970 0.739550 0.249370 1.731192
O19   O     O_3   0.966260 0.193700 0.746610 -0.374734
O20   O     O_3   0.033740 0.806300 0.253390 -0.371522
C9    C     C_1   0.979132 0.419175 0.583641 -0.055959
C10   C     C_1   0.021150 0.580611 0.416213 -0.080669
C11   C     C_1   0.991772 0.469391 0.531620 0.096131
C12   C     C_1   0.008545 0.530366 0.468217 0.097530
C13   C     C_3   0.849834 0.563212 0.000322 0.286413
C14   C     C_3   0.135146 0.438225 0.999918 0.430717
C15   C     C_3   0.000807 0.540261 0.933788 0.270399
C16   C     C_3   0.994079 0.459389 0.064939 0.190143
C17   C     C_3   0.980371 0.438978 0.937119 -0.380419
C18   C     C_3   0.018136 0.560449 0.062407 -0.406881
C19   C     C_3   0.832990 0.458888 0.003092 0.213707
C20   C     C_3   0.165558 0.538569 0.993561 0.220810
C21   C     C_3   0.656983 0.991589 0.541163 0.428496
C22   C     C_3   0.343298 0.008271 0.459444 0.452014
C23   C     C_3   0.516337 0.916569 0.521318 0.365602
C24   C     C_3   0.484231 0.083086 0.479082 0.335514
C25   C     C_3   0.505981 0.939282 0.436449 -0.312002
C26   C     C_3   0.493496 0.060202 0.563700 -0.345898
C27   C     C_3   0.646567 0.013840 0.454746 -0.372287
C28   C     C_3   0.353102 0.985309 0.544465 -0.293117
H1    H     H_    0.746977 0.024583 0.408406 0.246718
H2    H     H_    0.246816 0.972280 0.585499 0.257922
C29   C     C_1   0.485946 0.081657 0.916500 -0.070024
C30   C     C_1   0.513582 0.919677 0.084451 -0.059014
C31   C     C_1   0.494426 0.031294 0.968837 0.078927
C32   C     C_1   0.504950 0.970276 0.032272 0.083167
S1    S     S_3+6 0.004800 0.593340 0.843929 0.095907
O21   O     O_2   0.194323 0.569751 0.805324 -0.302416
O22   O     O_2   0.835346 0.559205 0.793420 -0.327202
O23   O     O_3   0.973496 0.709376 0.867743 -0.442421
H3    H     H_    0.868169 0.730973 0.831991 0.390799
S2    S     S_3+6 0.992473 0.398791 0.150912 0.103841
O24   O     O_2   0.167844 0.417328 0.198471 -0.253392
O25   O     O_2   0.816221 0.422187 0.196435 -0.330348
O26   O     O_3   0.997066 0.288392 0.116428 -0.466063
H4    H     H_    0.906424 0.256446 0.138499 0.385323
S3    S     S_3+6 0.664591 0.660999 0.009228 0.089453
O27   O     O_2   0.537670 0.643871 0.071227 -0.333345
O28   O     O_2   0.761831 0.751450 0.032565 -0.332191
O29   O     O_3   0.535346 0.668987 0.917061 -0.479099
H5    H     H_    0.469956 0.679903 0.868695 0.392597
S4    S     S_3+6 0.347564 0.353974 0.997383 0.164808
O30   O     O_2   0.286149 0.260086 0.983391 -0.331458
O31   O     O_2   0.471823 0.381380 0.924503 -0.266369
O32   O     O_3   0.456202 0.379812 0.090973 -0.421319
H6    H     H_    0.562479 0.418911 0.101281 0.396556
O33   O     O_3   0.691013 0.402216 0.002659 -0.556455
H7    H     H_    0.721944 0.346546 0.030978 0.342323
O34   O     O_3   0.338905 0.507404 0.976606 -0.580255
H8    H     H_    0.415917 0.547301 0.963526 0.418613
S5    S     S_3+6 0.535618 0.802332 0.547868 0.091974
O35   O     O_2   0.544511 0.801714 0.633731 -0.257698
O36   O     O_2   0.380330 0.748735 0.514083 -0.337070
O37   O     O_3   0.742129 0.760974 0.508381 -0.479275
H9    H     H_    0.723377 0.701254 0.483650 0.346679
S6    S     S_3+6 0.464533 0.197862 0.452902 0.110737
O38   O     O_2   0.628533 0.249649 0.479755 -0.320298
O39   O     O_2   0.436450 0.197938 0.367680 -0.247933
O40   O     O_3   0.267998 0.241911 0.500050 -0.489442
H10   H     H_    0.185778 0.271685 0.465072 0.388988
S7    S     S_3+6 0.865452 0.981105 0.599337 0.056872
O41   O     O_2   0.969659 0.063810 0.606406 -0.334135
O42   O     O_2   0.819077 0.959064 0.676713 -0.319937
O43   O     O_3   0.988042 0.893496 0.551048 -0.460846
H11   H     H_    0.031074 0.852921 0.587497 0.405010
S8    S     S_3+6 0.130072 0.023788 0.405912 0.107346
O44   O     O_2   0.172552 0.047332 0.328441 -0.289412
O45   O     O_2   0.022464 0.942146 0.398714 -0.318317
O46   O     O_3   0.020089 0.113440 0.458056 -0.453523
H12   H     H_    0.889607 0.111078 0.474790 0.369865

loop_
_geom_bond_atom_site_label_1
_geom_bond_atom_site_label_2
_ccdc_geom_bond_type
C4    C30   S    
S7    O41   D    
C13   S3    S    
C6    C18   S    
C11   C12   S    
O4    C2    A    
V1    O19   S    
O34   H8    S    
C23   C25   S    
O32   H6    S    
C7    C9    S    
C22   C25   S    
O9    V1    S    
O46   H12   S    
S4    O31   D    
O3    C1    A    
V2    O20   S    
C21   C27   S    
O12   V4    S    
C22   C28   S    
O13   V3    S    
C13   C18   S    
S3    O28   D    
O7    C3    A    
C9    C11   T    
O5    C7    A    
O7    V1    S    
C24   C27   S    
O6    C8    A    
O8    V2    S    
C25   C27   S    
S4    O32   S    
C26   C28   S    
C24   S6    S    
O3    V1    S    
O14   V4    S    
C23   S5    S    
V4    O20   S    
C10   C12   T    
C24   C26   S    
C22   S8    S    
C8    C10   S    
S1    O21   D    
C2    O12   A    
C17   C19   S    
C18   C20   S    
C28   H2    S    
O11   V3    S    
C21   C23   S    
O17   V3    S    
C13   C15   S    
C22   C24   S    
S1    O22   D    
S4    O30   D    
O26   H4    S    
S2    O26   S    
C14   C17   S    
C15   C17   S    
C20   O34   S    
O8    C4    A    
O40   H10   S    
O37   H9    S    
C1    O11   A    
O15   V3    S    
C27   H1    S    
S2    O25   D    
C13   C19   S    
S3    O29   S    
C14   C20   S    
O23   H3    S    
C16   C18   S    
S5    O35   D    
S6    O40   S    
C15   S1    S    
O43   H11   S    
O10   V2    S    
O1    V3    S    
C15   C20   S    
S5    O36   D    
S6    O39   D    
C21   S7    S    
O18   V4    S    
S7    O43   S    
S8    O45   D    
O15   C5    A    
O16   C6    A    
O1    C3    A    
C14   S4    S    
S1    O23   S    
O16   V4    S    
C1    C26   S    
O29   H5    S    
C16   S2    S    
C23   C28   S    
O5    V1    S    
O17   C7    A    
S8    O46   S    
O6    V2    S    
O10   C6    A    
O18   C8    A    
C5    C17   S    
O2    V4    S    
S2    O24   D    
C16   C19   S    
C29   C31   T    
V3    O19   S    
C14   C16   S    
C31   C32   S    
C21   C26   S    
O9    C5    A    
O13   V1    S    
C30   C32   T    
O14   V2    S    
S3    O27   D    
O2    C4    A    
O33   H7    S    
O4    V2    S    
S5    O37   S    
S6    O38   D    
S7    O42   D    
S8    O44   D    
C19   O33   S    
C2    C25   S    
C3    C29   S    
