data_mof_unit_1806.cif
_audit_creation_date              2013-03-05T15:42:26-0500
_audit_creation_method            fapswitch 2.2
_symmetry_space_group_name_H-M    P1
_symmetry_Int_Tables_number       1
_space_group_crystal_system       triclinic
_cell_length_a                    10.942608
_cell_length_b                    10.927112
_cell_length_c                    18.855655
_cell_angle_alpha                 90.655566
_cell_angle_beta                  89.97548
_cell_angle_gamma                 61.010652
_cell_volume                      1971.93823698

loop_
_atom_site_label
_atom_site_type_symbol
_atom_site_description
_atom_site_fract_x
_atom_site_fract_y
_atom_site_fract_z
_atom_type_partial_charge
O1    O     O_R   0.507340 0.255690 0.581430 -0.487461
O2    O     O_R   0.280360 0.527380 0.578910 -0.412140
C1    C     C_R   0.235209 0.644944 0.609617 0.582981
O3    O     O_R   0.260600 0.739610 0.584580 -0.542914
O4    O     O_R   0.532370 0.695050 0.573830 -0.489950
C2    C     C_R   0.629032 0.590040 0.608696 0.555558
O5    O     O_R   0.744850 0.503430 0.576380 -0.505176
O6    O     O_R   0.699080 0.276500 0.571950 -0.532076
C3    C     C_R   0.631788 0.222095 0.600297 0.525162
O7    O     O_R   0.498860 0.256520 0.419860 -0.438761
O8    O     O_R   0.272490 0.528150 0.429140 -0.476262
C4    C     C_R   0.274133 0.626595 0.391776 0.526130
O9    O     O_R   0.252110 0.740440 0.423010 -0.507369
O10   O     O_R   0.524510 0.695820 0.424050 -0.514635
C5    C     C_R   0.646456 0.621595 0.392491 0.551049
O11   O     O_R   0.736370 0.504260 0.414810 -0.515382
O12   O     O_R   0.691220 0.277270 0.422180 -0.513850
C6    C     C_R   0.614135 0.227437 0.395452 0.553574
Cr1   Cr    Cr6+3 0.392940 0.397950 0.502230 1.149394
Cr2   Cr    Cr6+3 0.398400 0.708500 0.501260 1.045597
Cr3   Cr    Cr6+3 0.708640 0.393530 0.496460 1.026466
O13   O     O_3   0.499990 0.499990 0.499980 -0.314387
C7    C     C_3   0.531135 0.740396 0.799501 -0.246444
H1    H     H_    0.492458 0.854509 0.803999 0.225454
H2    H     H_    0.469899 0.714331 0.837711 0.112281
C8    C     C_3   0.506323 0.703973 0.723143 -0.272809
H3    H     H_    0.453352 0.639293 0.725304 0.127356
H4    H     H_    0.436057 0.802298 0.695092 0.146080
H5    H     H_    0.649771 0.819980 0.679118 0.193304
C9    C     C_3   0.776364 0.700004 0.767301 0.248754
C10   C     C_3   0.738679 0.501167 0.802728 -0.303714
C11   C     C_3   0.689618 0.657884 0.817343 0.058155
H6    H     H_    0.848452 0.434314 0.819843 0.144954
H7    H     H_    0.672365 0.467776 0.832681 0.128549
C12   C     C_3   0.648599 0.620464 0.683652 -0.034281
C13   C     C_3   0.726308 0.708695 0.690290 -0.074220
C14   C     C_3   0.729878 0.478433 0.722597 -0.270331
H8    H     H_    0.676001 0.415615 0.714427 0.133789
H9    H     H_    0.837325 0.418763 0.700396 0.157718
H10   H     H_    0.888656 0.619233 0.771284 0.124155
H11   H     H_    0.507932 0.111300 0.677038 0.158516
C15   C     C_R   0.701667 0.121414 0.815734 0.034480
C16   C     C_R   0.806380 0.135900 0.777867 -0.024437
C17   C     C_R   0.802694 0.136967 0.702263 0.017906
C18   C     C_R   0.592015 0.118152 0.703870 -0.076634
C19   C     C_R   0.599852 0.105536 0.775900 0.409622
C20   C     C_R   0.914472 0.149205 0.811743 -0.111830
C21   C     C_R   0.022904 0.147920 0.772406 -0.155365
C22   C     C_R   0.025509 0.134920 0.698910 -0.144035
C23   C     C_R   0.916816 0.129263 0.664012 -0.063759
C24   C     C_R   0.683823 0.147209 0.667126 -0.045197
H12   H     H_    0.916709 0.163682 0.868190 0.136375
H13   H     H_    0.107088 0.152767 0.799594 0.107176
H14   H     H_    0.112601 0.126433 0.668246 0.128071
H15   H     H_    0.925724 0.113804 0.607116 0.154478
H16   H     H_    0.162788 0.864013 0.692233 0.153074
C25   C     C_R   0.177281 0.672145 0.833442 0.008327
C26   C     C_R   0.206158 0.545524 0.799401 -0.037100
C27   C     C_R   0.199264 0.539330 0.723991 0.011485
C28   C     C_R   0.167581 0.776517 0.720319 -0.148638
C29   C     C_R   0.164954 0.783666 0.793103 -0.136745
C30   C     C_R   0.240031 0.425546 0.839683 -0.118641
C31   C     C_R   0.250894 0.306167 0.808150 -0.145668
C32   C     C_R   0.234954 0.301095 0.735585 -0.083703
C33   C     C_R   0.205843 0.415957 0.693620 0.358757
C34   C     C_R   0.187303 0.656146 0.683998 0.026563
H17   H     H_    0.260381 0.422169 0.895965 0.144778
H18   H     H_    0.148780 0.879932 0.817982 0.155251
H19   H     H_    0.272047 0.217052 0.840514 0.175588
H20   H     H_    0.246872 0.206186 0.711381 0.136220
H21   H     H_    0.586404 0.867889 0.326728 0.166481
C35   C     C_R   0.653615 0.682548 0.170690 0.050393
C36   C     C_R   0.700855 0.548600 0.198082 0.046748
C37   C     C_R   0.739596 0.528715 0.269990 0.007184
C38   C     C_R   0.622092 0.778585 0.291067 -0.188778
C39   C     C_R   0.616404 0.797004 0.217575 -0.170517
C40   C     C_R   0.737601 0.430440 0.153231 0.051384
C41   C     C_R   0.847224 0.302308 0.173322 -0.147496
C42   C     C_R   0.903725 0.286356 0.240705 -0.164847
C43   C     C_R   0.849907 0.396520 0.288919 -0.093464
C44   C     C_R   0.674963 0.644715 0.318218 -0.012764
H22   H     H_    0.585962 0.900240 0.197430 0.146789
H23   H     H_    0.886391 0.214734 0.136911 0.106022
H24   H     H_    0.985226 0.187201 0.257950 0.128091
H25   H     H_    0.905823 0.377471 0.338168 0.164114
H26   H     H_    0.854900 0.067152 0.326011 0.138891
C45   C     C_R   0.655136 0.150477 0.178019 0.010901
C46   C     C_R   0.521045 0.218014 0.208166 -0.025179
C47   C     C_R   0.509575 0.202032 0.281202 0.028446
C48   C     C_R   0.761511 0.104088 0.294111 -0.159756
C49   C     C_R   0.771858 0.083517 0.222046 -0.157549
C50   C     C_R   0.399321 0.285936 0.166655 -0.089128
C51   C     C_R   0.271050 0.311744 0.193983 -0.185359
C52   C     C_R   0.263010 0.271154 0.262580 -0.119191
C53   C     C_R   0.380372 0.215619 0.306068 0.385329
C54   C     C_R   0.630399 0.168711 0.324411 0.024914
H27   H     H_    0.403906 0.313363 0.112098 0.162661
H28   H     H_    0.871451 0.014259 0.200447 0.126723
H29   H     H_    0.179297 0.356557 0.160753 0.137336
H30   H     H_    0.165548 0.281251 0.282074 0.127661
H31   H     H_    0.113295 0.525585 0.333170 0.154609
C55   C     C_R   0.072038 0.733453 0.193666 0.007029
C56   C     C_R   0.136804 0.811181 0.222082 0.051635
C57   C     C_R   0.223411 0.755306 0.279802 0.020791
C58   C     C_R   0.127858 0.597725 0.299978 -0.130266
C59   C     C_R   0.061905 0.633389 0.234822 -0.163919
C60   C     C_R   0.127029 0.937113 0.192872 -0.083212
C61   C     C_R   0.212600 0.990395 0.213717 -0.143474
C62   C     C_R   0.304226 0.927342 0.267360 -0.099144
C63   C     C_R   0.314901 0.807049 0.296533 -0.071634
C64   C     C_R   0.213733 0.653196 0.321267 0.002661
H32   H     H_    0.053169 0.001312 0.153928 0.138300
H33   H     H_    0.004006 0.582301 0.216231 0.129324
H34   H     H_    0.204451 0.082984 0.189125 0.115187
H35   H     H_    0.366538 0.972214 0.285955 0.170835
H36   H     H_    0.395899 0.752600 0.331465 0.161184
O14   O     O_R   0.089570 0.825450 0.930590 -0.514618
O15   O     O_R   0.818700 0.054260 0.929860 -0.529908
C65   C     C_R   0.707321 0.091126 0.892711 0.589332
O16   O     O_R   0.606310 0.077010 0.915520 -0.431256
O17   O     O_R   0.646730 0.806540 0.917560 -0.437387
C66   C     C_R   0.718829 0.682540 0.891209 0.602192
O18   O     O_R   0.837290 0.593240 0.915240 -0.537308
O19   O     O_R   0.065320 0.635310 0.931580 -0.492081
C67   C     C_R   0.118889 0.706214 0.905682 0.581860
O20   O     O_R   0.068470 0.828620 0.091850 -0.523391
O21   O     O_R   0.799150 0.057200 0.079350 -0.556983
C68   C     C_R   0.676034 0.106020 0.104364 0.514182
O22   O     O_R   0.585220 0.080180 0.076770 -0.530422
O23   O     O_R   0.627170 0.809480 0.067050 -0.502061
C69   C     C_R   0.697391 0.693889 0.098814 0.574990
O24   O     O_R   0.816200 0.596410 0.076500 -0.543142
O25   O     O_R   0.045770 0.638240 0.081070 -0.498224
C70   C     C_R   0.029557 0.747998 0.119556 0.548635
Cr4   Cr    Cr6+3 0.937880 0.938320 0.007620 0.994504
Cr5   Cr    Cr6+3 0.625560 0.937220 0.994510 1.069929
Cr6   Cr    Cr6+3 0.938080 0.625010 0.001190 1.013632
O26   O     O_3   0.833840 0.833520 0.001110 -0.270603
C71   C     C_2   0.847372 0.665928 0.639872 0.258367
H37   H     H_    0.929009 0.558348 0.637844 0.180785
O27   O     O_2   0.853393 0.751309 0.600878 -0.472846
F1    F     F_    0.511645 0.065948 0.805052 -0.652289
F2    F     F_    0.171356 0.406431 0.625623 -0.637051
C72   C     C_2   0.664431 0.436860 0.085899 0.224881
H38   H     H_    0.712055 0.351941 0.047276 0.100038
O28   O     O_2   0.548265 0.534134 0.074084 -0.512410
F3    F     F_    0.370526 0.156681 0.367328 -0.634557
F4    F     F_    0.769051 0.824850 0.787776 -0.621948

loop_
_geom_bond_atom_site_label_1
_geom_bond_atom_site_label_2
_geom_bond_distance
_ccdc_geom_bond_type
C26   C30   1.408919 A    
Cr4   O26   1.970575 S    
C57   C63   1.402268 A    
C45   C46   1.400293 A    
O25   Cr6   1.959546 S    
C51   C52   1.388638 A    
C45   C49   1.401733 A    
C6    C54   1.451619 S    
C60   H32   1.071122 S    
C12   C13   1.568507 S    
C3    C24   1.467729 S    
C35   C39   1.411493 A    
C68   O22   1.267675 A    
C48   C49   1.370390 A    
C5    C44   1.485442 S    
O4    Cr2   1.959739 S    
C40   C41   1.388289 A    
C61   C62   1.360244 A    
H5    C13   1.115064 S    
O8    Cr1   1.972173 S    
C8    H3    1.111255 S    
C43   H25   1.077726 S    
C30   H17   1.081808 S    
C12   C14   1.558088 S    
C14   H8    1.110132 S    
O21   Cr4   1.966689 S    
C27   C34   1.440595 A    
C25   C67   1.469470 S    
C42   H24   1.070851 S    
C33   F2    1.353719 S    
C15   C65   1.487054 S    
C18   C24   1.379756 A    
C22   H14   1.078778 S    
C2    C12   1.487422 S    
C36   C37   1.408278 A    
C7    C8    1.548244 S    
C61   H34   1.081612 S    
C25   C29   1.394159 A    
O15   C65   1.292140 A    
C41   H23   1.076067 S    
C46   C50   1.411952 A    
O6    C3    1.269871 A    
C7    H1    1.107775 S    
C10   H6    1.111689 S    
C32   H20   1.076493 S    
C9    C11   1.560721 S    
C51   H29   1.082328 S    
C58   C64   1.399440 A    
C28   C34   1.396334 A    
C49   H28   1.058019 S    
C37   C43   1.411782 A    
Cr3   O13   1.998550 S    
C52   C53   1.395287 A    
C45   C68   1.446968 S    
C50   H27   1.082664 S    
O6    Cr3   1.960505 S    
H31   C58   1.082336 S    
C21   H13   1.077626 S    
O1    Cr1   2.093368 S    
C5    O11   1.256572 A    
C59   H33   1.083736 S    
C31   H19   1.081412 S    
O19   Cr6   1.956462 S    
Cr1   O13   1.970857 S    
O1    C3    1.278525 A    
C42   C43   1.381927 A    
C72   O28   1.221187 D    
H26   C48   1.084124 S    
C39   H22   1.083275 S    
C41   C42   1.388607 A    
C38   C44   1.390583 A    
C26   C27   1.426500 A    
C18   C19   1.365255 A    
O12   Cr3   1.950930 S    
H16   C28   1.077176 S    
C28   C29   1.373204 A    
O16   Cr5   2.082407 S    
C47   C53   1.426578 A    
C53   F3    1.358239 S    
C38   C39   1.399620 A    
C55   C70   1.458783 S    
C30   C31   1.378825 A    
O10   Cr2   1.962481 S    
O22   Cr5   2.077622 S    
O23   C69   1.273374 A    
C20   C21   1.393218 A    
C52   H30   1.081371 S    
O7    Cr1   2.085973 S    
C60   C61   1.376144 A    
O12   C6    1.304343 A    
C10   H7    1.113405 S    
C9    H10   1.115737 S    
C4    O9    1.282568 A    
C65   O16   1.263673 A    
C48   C54   1.375317 A    
O17   C66   1.285812 A    
C2    O5    1.302576 A    
C17   C24   1.415904 A    
Cr5   O26   1.998528 S    
C21   C22   1.390330 A    
Cr2   O13   1.992787 S    
O20   Cr4   2.094398 S    
C16   C17   1.426168 A    
C15   C19   1.421470 A    
O25   C70   1.330502 A    
C1    C34   1.479890 S    
C15   C16   1.423199 A    
C37   C44   1.427563 A    
C1    O3    1.288312 A    
O14   Cr4   2.087718 S    
C63   H36   1.035240 S    
C35   C69   1.463696 S    
Cr6   O26   1.993303 S    
C17   C23   1.408084 A    
H11   C18   1.083712 S    
O9    Cr2   2.081725 S    
O2    Cr1   1.967543 S    
C11   C66   1.479831 S    
C10   C11   1.547464 S    
O23   Cr5   1.959429 S    
C35   C36   1.400165 A    
C57   C64   1.414865 A    
C71   H37   1.078165 S    
O11   Cr3   2.079527 S    
C9    F4    1.377910 S    
C20   H12   1.076281 S    
C58   C59   1.386063 A    
O18   Cr6   2.079225 S    
C8    H4    1.112616 S    
C23   H15   1.081086 S    
C9    C13   1.539803 S    
C72   H38   1.085571 S    
C7    C11   1.557392 S    
C47   C54   1.444125 A    
O2    C1    1.263785 A    
O24   Cr6   2.074938 S    
C40   C72   1.485371 S    
C14   H9    1.110414 S    
O5    Cr3   2.071312 S    
C69   O24   1.284055 A    
C32   C33   1.392235 A    
H21   C38   1.082720 S    
C71   O27   1.220904 D    
C29   H18   1.079858 S    
C25   C26   1.407809 A    
O4    C2    1.307313 A    
O14   C67   1.265610 A    
O7    C6    1.229454 A    
C50   C51   1.388371 A    
C19   F1    1.353001 S    
C55   C59   1.395311 A    
C7    H2    1.112866 S    
O17   Cr5   1.956942 S    
C55   C56   1.443646 A    
C13   C71   1.505264 S    
C62   H35   1.071725 S    
C31   C32   1.383278 A    
O3    Cr2   2.084802 S    
C10   C14   1.539014 S    
C8    C12   1.554808 S    
C46   C47   1.403349 A    
O20   C70   1.266606 A    
C22   C23   1.386532 A    
C56   C57   1.382263 A    
C36   C40   1.419662 A    
O10   C5    1.315975 A    
C56   C60   1.443295 A    
C66   O18   1.273726 A    
C62   C63   1.382672 A    
C16   C20   1.411877 A    
C4    C64   1.453365 S    
C27   C33   1.427850 A    
O15   Cr4   1.974399 S    
O21   C68   1.272439 A    
O8    C4    1.299967 A    
O19   C67   1.277103 A    
