data_mof_unit_3273.cif
_audit_creation_date              2012-10-26T17:11:10-0400
_audit_creation_method            fapswitch 2.2
_symmetry_space_group_name_H-M    P1
_symmetry_Int_Tables_number       1
_space_group_crystal_system       triclinic
_cell_length_a                    27.958642
_cell_length_b                    18.736993
_cell_length_c                    16.861206
_cell_angle_alpha                 90.02702
_cell_angle_beta                  62.57685
_cell_angle_gamma                 90.015901
_cell_volume                      7840.3638477

loop_
_atom_site_label
_atom_site_type_symbol
_atom_type_description
_atom_site_fract_x
_atom_site_fract_y
_atom_site_fract_z
_atom_type_partial_charge
C1    C     C_R   0.295009 0.728280 0.329636 0.548705
C2    C     C_R   0.465865 0.126478 0.451683 0.282766
C3    C     C_R   0.926509 0.096905 0.066571 0.550808
C4    C     C_R   0.426403 0.403227 0.066637 0.551205
C5    C     C_R   0.573597 0.596773 0.933363 0.551206
C6    C     C_R   0.573491 0.403095 0.933428 0.550809
C7    C     C_R   0.426509 0.596905 0.066571 0.550809
C8    C     C_R   0.044167 0.499979 0.518945 -0.039791
C9    C     C_R   0.955833 0.500021 0.481055 -0.039791
C10   C     C_R   0.544167 0.999979 0.518945 -0.039791
C11   C     C_R   0.455833 0.000021 0.481055 -0.039791
C12   C     C_R   0.020351 0.565387 0.514250 0.047141
C13   C     C_R   0.466166 0.873719 0.450552 0.279777
C14   C     C_R   0.979649 0.434613 0.485750 0.047141
C15   C     C_R   0.979467 0.565435 0.486389 0.052359
C16   C     C_R   0.020533 0.434565 0.513611 0.052359
C17   C     C_R   0.520351 0.065387 0.514250 0.047141
C18   C     C_R   0.479649 0.934613 0.485750 0.047141
C19   C     C_R   0.479467 0.065435 0.486389 0.052359
C20   C     C_R   0.520533 0.934565 0.513611 0.052359
C21   C     C_R   0.113134 0.434954 0.541717 -0.014868
C22   C     C_R   0.886866 0.565046 0.458283 -0.014868
C23   C     C_R   0.886930 0.435010 0.458004 -0.021206
C24   C     C_R   0.533833 0.126281 0.549448 0.279778
C25   C     C_R   0.113070 0.564990 0.541996 -0.021206
C26   C     C_R   0.613134 0.934954 0.541717 -0.014868
C27   C     C_R   0.386866 0.065046 0.458283 -0.014868
C28   C     C_R   0.386930 0.935010 0.458004 -0.021206
C29   C     C_R   0.613070 0.064990 0.541996 -0.021206
C30   C     C_R   0.165122 0.434804 0.538580 -0.014849
C31   C     C_R   0.834878 0.565196 0.461420 -0.014849
C32   C     C_R   0.834905 0.434816 0.461305 -0.015512
C33   C     C_R   0.165095 0.565184 0.538695 -0.015512
C34   C     C_R   0.665122 0.934804 0.538580 -0.014849
C35   C     C_R   0.034135 0.373522 0.548317 0.282766
C36   C     C_R   0.334878 0.065196 0.461420 -0.014849
C37   C     C_R   0.334905 0.934816 0.461305 -0.015512
C38   C     C_R   0.665095 0.065184 0.538695 -0.015512
C39   C     C_R   0.190169 0.500002 0.536144 -0.142047
C40   C     C_R   0.809831 0.499998 0.463856 -0.142047
C41   C     C_R   0.690169 0.000002 0.536144 -0.142047
C42   C     C_R   0.309831 0.999998 0.463856 -0.142047
C43   C     C_R   0.090624 0.499974 0.533068 0.013973
C44   C     C_R   0.909376 0.500026 0.466932 0.013973
C45   C     C_R   0.590624 0.999974 0.533068 0.013973
C46   C     C_R   0.965865 0.626478 0.451683 0.282765
C47   C     C_R   0.409376 0.000026 0.466932 0.013973
C48   C     C_R   0.580366 0.873743 0.560162 -0.053357
C49   C     C_R   0.419634 0.126257 0.439838 -0.053357
C50   C     C_R   0.419797 0.873873 0.439082 -0.063474
C51   C     C_R   0.580203 0.126127 0.560918 -0.063475
C52   C     C_R   0.080366 0.373743 0.560162 -0.053357
C53   C     C_R   0.919634 0.626257 0.439838 -0.053357
C54   C     C_R   0.919797 0.373873 0.439082 -0.063475
C55   C     C_R   0.080203 0.626127 0.560918 -0.063474
C56   C     C_R   0.966166 0.373719 0.450552 0.279777
C57   C     C_R   0.033833 0.626281 0.549448 0.279778
C58   C     C_R   0.220187 0.766064 0.953835 -0.008406
C59   C     C_R   0.779813 0.233936 0.046165 -0.008407
C60   C     C_R   0.777895 0.768860 0.048400 -0.015798
C61   C     C_R   0.704991 0.271720 0.670364 0.548705
C62   C     C_R   0.222105 0.231139 0.951600 -0.015798
C63   C     C_R   0.720187 0.266064 0.953835 -0.008407
C64   C     C_R   0.279813 0.733936 0.046165 -0.008406
C65   C     C_R   0.277895 0.268861 0.048400 -0.015798
C66   C     C_R   0.722105 0.731139 0.951600 -0.015798
C67   C     C_R   0.231276 0.694543 0.965355 0.252084
C68   C     C_R   0.768726 0.305457 0.034642 0.252084
C69   C     C_R   0.723216 0.787681 0.080751 0.250384
C70   C     C_R   0.276784 0.212319 0.919249 0.250384
C71   C     C_R   0.731274 0.194543 0.965357 0.252084
C72   C     C_R   0.704982 0.728302 0.670323 0.549860
C73   C     C_R   0.268724 0.805457 0.034645 0.252084
C74   C     C_R   0.223216 0.287681 0.080751 0.250384
C75   C     C_R   0.776784 0.712319 0.919249 0.250384
C76   C     C_R   0.260975 0.679073 0.011003 -0.102883
C77   C     C_R   0.739027 0.320927 0.988995 -0.102883
C78   C     C_R   0.695782 0.768438 0.032531 -0.100290
C79   C     C_R   0.304217 0.231562 0.967469 -0.100290
C80   C     C_R   0.760973 0.179073 0.011005 -0.102883
C81   C     C_R   0.239025 0.820927 0.988997 -0.102883
C82   C     C_R   0.195783 0.268438 0.032531 -0.100290
C83   C     C_R   0.295018 0.271698 0.329677 0.549860
C84   C     C_R   0.804217 0.731562 0.967469 -0.100290
C85   C     C_R   0.144345 0.828880 0.944157 -0.101891
C86   C     C_R   0.855655 0.171119 0.055843 -0.101890
C87   C     C_R   0.854522 0.830498 0.056822 -0.102556
C88   C     C_R   0.145478 0.169502 0.943178 -0.102556
C89   C     C_R   0.644345 0.328880 0.944157 -0.101889
C90   C     C_R   0.355655 0.671120 0.055843 -0.101891
C91   C     C_R   0.354522 0.330498 0.056822 -0.102556
C92   C     C_R   0.645478 0.669502 0.943178 -0.102556
C93   C     C_R   0.117758 0.851594 0.895305 -0.010011
C94   C     C_R   0.795009 0.228280 0.329636 0.548705
C95   C     C_R   0.882242 0.148406 0.104695 -0.010011
C96   C     C_R   0.881820 0.852186 0.105002 -0.009544
C97   C     C_R   0.118180 0.147814 0.894998 -0.009544
C98   C     C_R   0.617758 0.351594 0.895305 -0.010011
C99   C     C_R   0.382242 0.648406 0.104694 -0.010012
C100  C     C_R   0.381820 0.352186 0.105002 -0.009544
C101  C     C_R   0.618180 0.647814 0.894998 -0.009544
C102  C     C_R   0.136364 0.829336 0.807119 -0.129481
C103  C     C_R   0.863636 0.170664 0.192881 -0.129481
C104  C     C_R   0.863467 0.829642 0.193026 -0.130239
C105  C     C_R   0.204991 0.771720 0.670364 0.548705
C106  C     C_R   0.136533 0.170358 0.806973 -0.130239
C107  C     C_R   0.636364 0.329336 0.807119 -0.129481
C108  C     C_R   0.363636 0.670664 0.192881 -0.129481
C109  C     C_R   0.363467 0.329642 0.193026 -0.130239
C110  C     C_R   0.636533 0.670358 0.806973 -0.130239
C111  C     C_R   0.182352 0.787070 0.766062 -0.013150
C112  C     C_R   0.817648 0.212930 0.233938 -0.013150
C113  C     C_R   0.817398 0.787535 0.234254 -0.011616
C114  C     C_R   0.182602 0.212465 0.765746 -0.011616
C115  C     C_R   0.682352 0.287070 0.766062 -0.013150
C116  C     C_R   0.204982 0.228302 0.670323 0.549860
C117  C     C_R   0.317648 0.712930 0.233938 -0.013150
C118  C     C_R   0.317398 0.287535 0.234254 -0.011616
C119  C     C_R   0.682602 0.712465 0.765746 -0.011616
C120  C     C_R   0.208925 0.764516 0.815075 -0.053331
C121  C     C_R   0.791075 0.235485 0.184925 -0.053331
C122  C     C_R   0.790354 0.765691 0.185805 -0.053779
C123  C     C_R   0.209646 0.234309 0.814195 -0.053779
C124  C     C_R   0.708925 0.264515 0.815075 -0.053331
C125  C     C_R   0.291075 0.735484 0.184925 -0.053331
C126  C     C_R   0.290354 0.265691 0.185805 -0.053779
C127  C     C_R   0.795018 0.771698 0.329677 0.549860
C128  C     C_R   0.709646 0.734309 0.814195 -0.053779
C129  C     C_R   0.189904 0.785077 0.904388 0.028297
C130  C     C_R   0.810096 0.214923 0.095612 0.028297
C131  C     C_R   0.808300 0.787988 0.097478 0.021499
C132  C     C_R   0.191700 0.212012 0.902522 0.021499
C133  C     C_R   0.689904 0.285077 0.904388 0.028297
C134  C     C_R   0.310096 0.714923 0.095612 0.028297
C135  C     C_R   0.308300 0.287988 0.097478 0.021499
C136  C     C_R   0.691700 0.712012 0.902522 0.021499
C137  C     C_R   0.196854 0.631637 0.526425 0.543286
C138  C     C_R   0.534135 0.873522 0.548317 0.282766
C139  C     C_R   0.803146 0.368363 0.473575 0.543287
C140  C     C_R   0.803128 0.631628 0.473634 0.543245
C141  C     C_R   0.196872 0.368372 0.526366 0.543245
C142  C     C_R   0.696854 0.131637 0.526425 0.543286
C143  C     C_R   0.303146 0.868363 0.473575 0.543287
C144  C     C_R   0.303128 0.131628 0.473634 0.543245
C145  C     C_R   0.696872 0.868372 0.526366 0.543245
C146  C     C_R   0.926403 0.903227 0.066637 0.551205
C147  C     C_R   0.073597 0.096773 0.933363 0.551206
C148  C     C_R   0.073491 0.903094 0.933429 0.550809
Cl1   Cl    Cl    0.488279 0.802714 0.598934 -0.519616
Cl2   Cl    Cl    0.793447 0.377230 0.072622 -0.559217
Cl3   Cl    Cl    0.688330 0.838359 0.178961 -0.532086
Cl4   Cl    Cl    0.311670 0.161641 0.821039 -0.532086
Cl5   Cl    Cl    0.706553 0.122769 0.927378 -0.559217
Cl6   Cl    Cl    0.293443 0.877230 0.072628 -0.559219
Cl7   Cl    Cl    0.188330 0.338359 0.178961 -0.532086
Cl8   Cl    Cl    0.811670 0.661641 0.821039 -0.532086
Cl9   Cl    Cl    0.511721 0.197286 0.401066 -0.519615
Cl10  Cl    Cl    0.512307 0.803374 0.398902 -0.486362
Cl11  Cl    Cl    0.487693 0.196626 0.601098 -0.486363
Cl12  Cl    Cl    0.988278 0.302714 0.598934 -0.519615
Cl13  Cl    Cl    0.011721 0.697286 0.401066 -0.519616
Cl14  Cl    Cl    0.012307 0.303374 0.398902 -0.486362
Cl15  Cl    Cl    0.987693 0.696626 0.601098 -0.486362
Cl16  Cl    Cl    0.206557 0.622770 0.927372 -0.559219
Cu1   Cu    Cu3+1 0.209920 0.785290 0.495070 1.022638
Cu2   Cu    Cu3+1 0.504760 0.500000 0.075850 1.002559
Cu3   Cu    Cu3+1 0.995240 1.000000 0.924150 1.002559
Cu4   Cu    Cu3+1 0.004760 1.000000 0.075850 1.002560
Cu5   Cu    Cu3+1 0.790080 0.214710 0.504930 1.022637
Cu6   Cu    Cu3+1 0.790080 0.785290 0.504930 1.031404
Cu7   Cu    Cu3+1 0.209920 0.214710 0.495070 1.031404
Cu8   Cu    Cu3+1 0.709920 0.285290 0.495070 1.022637
Cu9   Cu    Cu3+1 0.290080 0.714710 0.504930 1.022638
Cu10  Cu    Cu3+1 0.290080 0.285290 0.504930 1.031405
Cu11  Cu    Cu3+1 0.709920 0.714710 0.495070 1.031404
Cu12  Cu    Cu3+1 0.495240 0.500000 0.924150 1.002559
H1    H     H_    0.230357 0.500013 0.530529 0.164517
H2    H     H_    0.912729 0.672742 0.408771 0.175501
H3    H     H_    0.912833 0.327450 0.407923 0.177392
H4    H     H_    0.087167 0.672550 0.592077 0.177392
H5    H     H_    0.231321 0.876162 0.979574 0.163230
H6    H     H_    0.768675 0.123837 0.020431 0.163231
H7    H     H_    0.846104 0.716439 0.942416 0.169520
H8    H     H_    0.153896 0.283561 0.057584 0.169519
H9    H     H_    0.731324 0.376163 0.979569 0.163231
H10   H     H_    0.268679 0.623838 0.020426 0.163230
H11   H     H_    0.346104 0.216439 0.942416 0.169519
H12   H     H_    0.769643 0.499987 0.469470 0.164517
H13   H     H_    0.653896 0.783561 0.057584 0.169520
H14   H     H_    0.130511 0.846340 0.012521 0.148391
H15   H     H_    0.869488 0.153659 0.987480 0.148392
H16   H     H_    0.867826 0.848643 0.988871 0.148630
H17   H     H_    0.132173 0.151357 0.011129 0.148630
H18   H     H_    0.630512 0.346341 0.012520 0.148392
H19   H     H_    0.369489 0.653660 0.987479 0.148391
H20   H     H_    0.367826 0.348643 0.988871 0.148630
H21   H     H_    0.632173 0.651357 0.011129 0.148630
H22   H     H_    0.116328 0.847515 0.769038 0.163443
H23   H     H_    0.730357 0.000013 0.530529 0.164517
H24   H     H_    0.883672 0.152485 0.230961 0.163443
H25   H     H_    0.883888 0.847232 0.230763 0.163175
H26   H     H_    0.116112 0.152768 0.769237 0.163175
H27   H     H_    0.616328 0.347515 0.769039 0.163443
H28   H     H_    0.383672 0.652485 0.230961 0.163443
H29   H     H_    0.383888 0.347232 0.230763 0.163175
H30   H     H_    0.616112 0.652768 0.769237 0.163175
H31   H     H_    0.245488 0.733109 0.783232 0.176167
H32   H     H_    0.754512 0.266892 0.216767 0.176165
H33   H     H_    0.754499 0.732873 0.217129 0.176242
H34   H     H_    0.269643 0.999987 0.469470 0.164517
H35   H     H_    0.245500 0.267127 0.782871 0.176242
H36   H     H_    0.745488 0.233108 0.783233 0.176165
H37   H     H_    0.254512 0.766891 0.216768 0.176167
H38   H     H_    0.254499 0.232873 0.217129 0.176242
H39   H     H_    0.745500 0.767127 0.782871 0.176242
H40   H     H_    0.587271 0.827258 0.591229 0.175502
H41   H     H_    0.412729 0.172742 0.408771 0.175502
H42   H     H_    0.412833 0.827450 0.407923 0.177392
H43   H     H_    0.587167 0.172550 0.592077 0.177392
H44   H     H_    0.087271 0.327258 0.591229 0.175502
O1    O     O_R   0.255040 0.869590 0.478480 -0.504374
O2    O     O_R   0.817950 0.203450 0.375560 -0.513238
O3    O     O_R   0.817950 0.796550 0.375560 -0.514938
O4    O     O_R   0.182050 0.203450 0.624440 -0.514938
O5    O     O_R   0.682050 0.296550 0.624440 -0.513238
O6    O     O_R   0.317950 0.703450 0.375560 -0.513238
O7    O     O_R   0.317950 0.296550 0.375560 -0.514938
O8    O     O_R   0.682050 0.703450 0.624440 -0.514938
O9    O     O_R   0.250530 0.763330 0.367210 -0.499591
O10   O     O_R   0.749470 0.236670 0.632790 -0.499592
O11   O     O_R   0.749470 0.763330 0.632790 -0.496199
O12   O     O_R   0.744960 0.130410 0.521520 -0.504373
O13   O     O_R   0.250530 0.236670 0.367210 -0.496199
O14   O     O_R   0.750530 0.263330 0.367210 -0.499592
O15   O     O_R   0.249470 0.736670 0.632790 -0.499591
O16   O     O_R   0.249470 0.263330 0.632790 -0.496199
O17   O     O_R   0.750530 0.736670 0.367210 -0.496199
O18   O     O_R   0.177260 0.690030 0.513710 -0.514356
O19   O     O_R   0.822740 0.309970 0.486290 -0.514356
O20   O     O_R   0.822740 0.690030 0.486290 -0.507892
O21   O     O_R   0.177260 0.309970 0.513710 -0.507892
O22   O     O_R   0.677260 0.190030 0.513710 -0.514356
O23   O     O_R   0.744960 0.869590 0.521520 -0.508664
O24   O     O_R   0.322740 0.809970 0.486290 -0.514356
O25   O     O_R   0.322740 0.190030 0.486290 -0.507892
O26   O     O_R   0.677260 0.809970 0.513710 -0.507892
O27   O     O_R   0.051640 0.926880 0.885090 -0.509191
O28   O     O_R   0.948360 0.073120 0.114910 -0.509191
O29   O     O_R   0.948360 0.926880 0.114910 -0.508794
O30   O     O_R   0.051640 0.073120 0.885090 -0.508794
O31   O     O_R   0.551640 0.426880 0.885090 -0.509191
O32   O     O_R   0.448360 0.573120 0.114910 -0.509191
O33   O     O_R   0.448360 0.426880 0.114910 -0.508794
O34   O     O_R   0.255040 0.130410 0.478480 -0.508664
O35   O     O_R   0.551640 0.573120 0.885090 -0.508795
O36   O     O_R   0.940620 0.926560 0.986760 -0.507826
O37   O     O_R   0.059380 0.073440 0.013240 -0.507826
O38   O     O_R   0.059380 0.926560 0.013240 -0.507777
O39   O     O_R   0.940620 0.073440 0.986760 -0.507777
O40   O     O_R   0.440620 0.426560 0.986760 -0.507826
O41   O     O_R   0.559380 0.573440 0.013240 -0.507826
O42   O     O_R   0.559380 0.426560 0.013240 -0.507777
O43   O     O_R   0.440620 0.573440 0.986760 -0.507777
O44   O     O_R   0.755040 0.369590 0.478480 -0.504374
O45   O     O_R   0.244960 0.630410 0.521520 -0.504373
O46   O     O_R   0.244960 0.369590 0.521520 -0.508664
O47   O     O_R   0.755040 0.630410 0.478480 -0.508664
O48   O     O_R   0.182050 0.796550 0.624440 -0.513238

loop_
_geom_bond_atom_site_label_1
_geom_bond_atom_site_label_2
_ccdc_geom_bond_type
C1    O6    A    
C125  C134  A    
Cu3   O39   S    
Cu1   O9    S    
C48   H40   S    
C28   C47   A    
C116  O4    A    
C65   C79   A    
C72   O11   A    
C56   Cl14  S    
C123  C132  A    
C120  H31   S    
C23   C54   A    
C77   H9    S    
C55   H4    S    
C105  O15   A    
C11   C47   A    
C8    C43   A    
C81   H5    S    
C121  C130  A    
C41   H23   S    
C53   H2    S    
C25   C43   A    
Cu12  O31   S    
Cu9   O45   S    
Cu7   O4    S    
C69   C78   A    
C24   Cl11  S    
Cu1   O1    S    
C11   C18   A    
C83   O7    A    
C54   H3    S    
C105  O48   A    
C99   C108  A    
C34   C41   A    
C11   C19   A    
C86   H15   S    
C33   C39   A    
C30   C141  S    
C7    C99   S    
C145  O26   A    
C106  C114  A    
C6    C98   S    
C83   C118  S    
C29   C51   A    
Cu9   O6    S    
C128  C136  A    
C16   C35   A    
Cu7   O13   S    
C144  O25   A    
C90   C134  A    
C34   C145  S    
C3    O39   A    
C75   C84   A    
Cu6   O3    S    
C89   H18   S    
C58   C129  S    
Cu1   Cu9   S    
C71   Cl5   S    
C113  C127  S    
C82   H8    S    
C140  O20   A    
Cu2   O33   S    
C142  O22   A    
C31   C40   A    
C145  O23   A    
C93   C148  S    
C13   C18   A    
Cu2   O41   S    
C20   C138  A    
C137  O18   A    
Cu4   O38   S    
C35   Cl12  S    
C126  H38   S    
C26   C45   A    
C85   C129  A    
C21   C43   A    
C85   C93   A    
C67   Cl16  S    
C26   C34   A    
Cu11  O26   S    
C22   C44   A    
C90   H19   S    
C83   O13   A    
C10   C20   A    
C46   Cl13  S    
C123  H35   S    
C29   C38   A    
C61   C115  S    
C64   C73   A    
C31   C140  S    
C7    O43   A    
Cu3   O36   S    
C147  O30   A    
C80   H6    S    
C91   C100  A    
C88   C97   A    
C42   H34   S    
C127  O3    A    
Cu10  O46   S    
C119  C128  A    
C24   C51   A    
Cu2   O42   S    
C105  C111  S    
Cu8   O22   S    
C100  C109  A    
C8    C16   A    
C139  O44   A    
Cu7   O21   S    
C5    O41   A    
C97   C147  S    
C62   C70   A    
C12   C57   A    
C102  C111  A    
C92   C136  A    
C78   H13   S    
C125  H37   S    
C4    O33   A    
C74   C82   A    
C7    O32   A    
C6    O31   A    
C75   Cl8   S    
C60   C131  S    
C73   C81   A    
C71   C80   A    
C39   H1    S    
C95   C103  A    
C109  C118  A    
C37   C42   A    
C22   C53   A    
C5    C101  S    
Cu6   Cu11  S    
C138  Cl1   S    
C64   C76   A    
C13   Cl10  S    
C66   C78   A    
Cu7   Cu10  S    
C54   C56   A    
C52   H44   S    
C17   C24   A    
C89   C133  A    
C22   C31   A    
C113  C122  A    
C146  O29   A    
C139  O19   A    
C120  C129  A    
C69   Cl3   S    
C64   C134  S    
C62   C132  S    
Cu6   O23   S    
C70   Cl4   S    
C26   C48   A    
C38   C41   A    
C110  H30   S    
C58   C81   A    
C33   C137  S    
Cu3   Cu4   S    
C28   C50   A    
C94   O14   A    
C124  H36   S    
C51   H43   S    
C85   H14   S    
Cu11  O17   S    
C144  O34   A    
Cu1   O48   S    
C148  O27   A    
C141  O21   A    
C65   C74   A    
C104  C113  A    
C29   C45   A    
C111  C120  A    
Cu8   O44   S    
C9    C14   A    
C107  H27   S    
Cu4   O29   S    
C2    C49   A    
C36   C42   A    
C59   C68   A    
C106  H26   S    
Cu8   O5    S    
Cu12  O43   S    
C142  O12   A    
Cu5   O2    S    
C57   Cl15  S    
C12   C15   A    
C8    C12   A    
Cu6   O11   S    
C116  O16   A    
C10   C45   A    
C46   C53   A    
C61   O10   A    
Cu1   O18   S    
C122  H33   S    
C6    O42   A    
C1    C117  S    
C109  H29   S    
Cu3   O30   S    
C107  C115  A    
C65   C135  S    
C79   H11   S    
C92   C101  A    
C32   C139  S    
C66   C136  S    
C114  C123  A    
C124  C133  A    
C87   C131  A    
Cu4   O28   S    
C63   C71   A    
C126  C135  A    
C127  O17   A    
C140  O47   A    
C55   C57   A    
Cu4   O37   S    
C137  O45   A    
Cu5   Cu8   S    
C14   C16   A    
C147  O37   A    
C3    O28   A    
C97   C106  A    
Cu11  O47   S    
C92   H21   S    
C63   C133  S    
C90   C99   A    
C76   H10   S    
C27   C49   A    
C59   C130  S    
C63   C77   A    
C27   C47   A    
C68   C77   A    
C96   C104  A    
Cu6   O20   S    
C9    C44   A    
C115  C124  A    
C37   C143  S    
C146  O36   A    
C2    C19   A    
C9    C15   A    
C93   C102  A    
Cu5   O19   S    
C88   H17   S    
C84   H7    S    
C86   C130  A    
C25   C55   A    
C23   C32   A    
C148  O38   A    
Cu10  O16   S    
C110  C119  A    
C143  O1    A    
C114  C116  S    
Cu5   O12   S    
C87   C96   A    
C59   C80   A    
C40   H12   S    
Cu8   O14   S    
C27   C36   A    
C68   Cl2   S    
C96   C146  S    
C21   C30   A    
Cu12  O40   S    
Cu2   Cu12  S    
C15   C46   A    
C4    C100  S    
C48   C138  A    
C89   C98   A    
C141  O46   A    
C5    O35   A    
C102  H22   S    
C101  C110  A    
C28   C37   A    
C112  C121  A    
C108  H28   S    
Cu10  O7    S    
C104  H25   S    
Cu12  O35   S    
C91   H20   S    
C60   C84   A    
Cu9   O24   S    
C61   O5    A    
C122  C131  A    
C70   C79   A    
C60   C69   A    
C2    Cl9   S    
Cu3   O27   S    
C66   C75   A    
C108  C117  A    
Cu7   O34   S    
C94   C112  S    
C17   C19   A    
C50   H42   S    
C30   C39   A    
C38   C142  S    
C18   C20   A    
C103  H24   S    
C32   C40   A    
C62   C82   A    
C118  C126  A    
Cu2   O32   S    
C72   C119  S    
C86   C95   A    
C98   C107  A    
C128  H39   S    
C13   C50   A    
C1    O9    A    
C58   C67   A    
C91   C135  A    
Cu11  O8    S    
C4    O40   A    
C72   O8    A    
C49   H41   S    
C35   C52   A    
C94   O2    A    
C88   C132  A    
C143  O24   A    
C103  C112  A    
C73   Cl6   S    
C3    C95   S    
C67   C76   A    
C10   C17   A    
C121  H32   S    
Cu5   O10   S    
C36   C144  S    
C117  C125  A    
C74   Cl7   S    
C21   C52   A    
C14   C56   A    
Cu9   O15   S    
Cu10  O25   S    
C25   C33   A    
C87   H16   S    
C23   C44   A    
