data_mof_unit_806.cif
_audit_creation_date              2012-12-11T17:08:31-0500
_audit_creation_method            fapswitch 2.2
_symmetry_space_group_name_H-M    P1
_symmetry_Int_Tables_number       1
_space_group_crystal_system       triclinic
_cell_length_a                    6.96175
_cell_length_b                    14.559467
_cell_length_c                    16.052045
_cell_angle_alpha                 90.146635
_cell_angle_beta                  89.869381
_cell_angle_gamma                 89.951726
_cell_volume                      1627.01501674

loop_
_atom_site_label
_atom_site_type_symbol
_atom_type_description
_atom_site_fract_x
_atom_site_fract_y
_atom_site_fract_z
_atom_type_partial_charge
O1    O     O_R   0.505700 0.583890 0.413310 -0.540948
O2    O     O_R   0.175960 0.594920 0.586080 -0.544956
O3    O     O_R   0.005660 0.416110 0.586690 -0.536664
C1    C     C_R   0.344403 0.616722 0.614862 0.751673
O4    O     O_R   0.175980 0.594920 0.413930 -0.549380
O5    O     O_R   0.005680 0.416110 0.413310 -0.532264
C2    C     C_R   0.344823 0.616665 0.385245 0.684152
O6    O     O_R   0.505680 0.583890 0.586690 -0.535138
O7    O     O_3   0.339200 0.441330 0.500000 -0.356693
V1    V     V_3+5 0.064350 0.510880 0.500000 1.421622
O8    O     O_R   0.675960 0.405080 0.413920 -0.540076
C3    C     C_R   0.845179 0.383104 0.385173 0.689361
O9    O     O_R   0.675940 0.405080 0.586070 -0.529127
C4    C     C_R   0.844408 0.383940 0.615448 0.701831
V2    V     V_3+5 0.564340 0.489120 0.500000 1.453414
O10   O     O_3   0.839360 0.558670 0.500000 -0.378733
C5    C     C_R   0.007784 0.317418 0.741502 -0.057729
C6    C     C_R   0.851689 0.319177 0.686540 -0.124399
C7    C     C_R   0.701800 0.256236 0.701131 -0.109657
H1    H     H_    0.579555 0.254550 0.659952 0.132927
C8    C     C_R   0.714688 0.190537 0.765315 -0.199161
H2    H     H_    0.602946 0.140099 0.772225 0.186275
C9    C     C_R   0.877875 0.184843 0.816345 -0.063817
C10   C     C_R   0.023607 0.248892 0.802212 -0.052754
C11   C     C_3   0.231142 0.232643 0.782761 0.269400
C12   C     C_3   0.218846 0.313399 0.721131 0.248884
C13   C     C_R   0.729927 0.181555 0.242919 0.041766
C14   C     C_R   0.881807 0.182354 0.185506 -0.099370
C15   C     C_R   0.032176 0.245048 0.200042 -0.179612
C16   C     C_R   0.020834 0.309539 0.265454 -0.097525
H3    H     H_    0.134120 0.359841 0.271876 0.118626
C17   C     C_R   0.859298 0.312920 0.318529 -0.141192
C18   C     C_R   0.719709 0.244775 0.308170 -0.010073
C19   C     C_3   0.505500 0.253088 0.298675 0.351577
C20   C     C_3   0.518378 0.182707 0.228371 -0.421468
H4    H     H_    0.481859 0.211373 0.166308 0.127978
H5    H     H_    0.450353 0.115516 0.242700 0.196277
C21   C     C_R   0.460351 0.667301 0.755683 0.110148
C22   C     C_R   0.350405 0.683270 0.684498 -0.163495
C23   C     C_R   0.233593 0.762435 0.684550 -0.285407
H6    H     H_    0.144171 0.776650 0.630960 0.136275
C24   C     C_R   0.244322 0.828174 0.750089 0.448281
C25   C     C_R   0.374084 0.814483 0.817136 -0.194849
C26   C     C_R   0.468909 0.729661 0.820803 0.015917
C27   C     C_3   0.670281 0.702786 0.841462 -0.418525
C28   C     C_3   0.661979 0.635815 0.768259 -0.388988
H7    H     H_    0.679538 0.667779 0.902781 0.163729
H8    H     H_    0.758277 0.655406 0.715857 0.175483
C29   C     C_R   0.513332 0.738917 0.302454 0.028684
C30   C     C_R   0.353973 0.683139 0.315988 -0.083868
C31   C     C_R   0.202398 0.692700 0.257864 -0.194589
C32   C     C_R   0.214312 0.757071 0.191585 -0.195831
H9    H     H_    0.096871 0.761392 0.147715 0.122937
C33   C     C_R   0.377996 0.813829 0.181450 -0.125313
C34   C     C_R   0.524725 0.800734 0.239055 0.077019
C35   C     C_3   0.715708 0.835756 0.266039 0.329429
C36   C     C_3   0.701522 0.766206 0.338498 -0.461803
H10   H     H_    0.828172 0.821263 0.218469 0.053805
H11   H     H_    0.808524 0.709859 0.334993 0.145415
O11   O     O_R   0.229000 0.916070 0.913330 -0.525377
O12   O     O_R   0.558770 0.905070 0.086080 -0.540354
O13   O     O_R   0.729000 0.083900 0.086690 -0.530935
C37   C     C_R   0.389756 0.883033 0.114535 0.704584
O14   O     O_R   0.558720 0.905070 0.913930 -0.553733
O15   O     O_R   0.728960 0.083900 0.913310 -0.547035
C38   C     C_R   0.389674 0.883121 0.885151 0.765393
O16   O     O_R   0.229050 0.916070 0.086710 -0.546946
O17   O     O_3   0.395460 0.058650 0.000020 -0.369132
V3    V     V_3+5 0.670340 0.989120 0.000000 1.407701
O18   O     O_R   0.058670 0.094960 0.913900 -0.517723
C39   C     C_R   0.890072 0.115796 0.884154 0.716141
O19   O     O_R   0.058720 0.094960 0.086050 -0.549864
C40   C     C_R   0.889771 0.116908 0.114817 0.703338
V4    V     V_3+5 0.170330 0.010930 0.999970 1.440135
O20   O     O_3   0.895340 0.941350 0.999980 -0.383047
O21   O     O_3   0.386060 0.224381 0.366186 -0.535933
C41   C     C_3   0.475544 0.162652 0.421793 -0.196701
H12   H     H_    0.588567 0.198157 0.458553 0.122193
H13   H     H_    0.535456 0.101743 0.388898 0.154754
H14   H     H_    0.365824 0.137375 0.466342 0.135652
O22   O     O_3   0.158694 0.913204 0.740320 -0.554143
C42   C     C_3   0.958218 0.905594 0.750018 -0.223935
H15   H     H_    0.891412 0.971187 0.730212 0.149188
H16   H     H_    0.921534 0.895920 0.816702 0.154449
H17   H     H_    0.894808 0.850165 0.710963 0.113277
H18   H     H_    0.774901 0.758897 0.832410 0.170678
H19   H     H_    0.670785 0.562682 0.787487 0.170529
H20   H     H_    0.076464 0.649517 0.262549 0.115924
O23   O     O_3   0.703079 0.927830 0.293261 -0.548284
C43   C     C_3   0.889779 0.960670 0.309504 -0.231519
H21   H     H_    0.973606 0.967073 0.250692 0.138713
H22   H     H_    0.967341 0.915997 0.354515 0.139800
H23   H     H_    0.878704 0.029979 0.337933 0.157775
H24   H     H_    0.685121 0.798456 0.400974 0.185106
O24   O     O_3   0.264569 0.141662 0.751874 -0.544670
C44   C     C_3   0.211442 0.126499 0.667932 -0.236604
H25   H     H_    0.320259 0.155493 0.624918 0.096099
H26   H     H_    0.065042 0.152150 0.653755 0.130019
H27   H     H_    0.210777 0.051839 0.655565 0.211259
H28   H     H_    0.322990 0.247400 0.837722 0.096693
H29   H     H_    0.243934 0.298007 0.654472 0.091038
O25   O     O_3   0.335055 0.389683 0.745710 -0.549550
C45   C     C_3   0.252546 0.445998 0.808219 -0.239374
H30   H     H_    0.208432 0.405762 0.863791 0.114481
H31   H     H_    0.129596 0.485752 0.782769 0.144796
H32   H     H_    0.361965 0.495847 0.829558 0.153745
H33   H     H_    0.153595 0.247745 0.158048 0.116490
H34   H     H_    0.463874 0.322376 0.276116 0.055428

loop_
_geom_bond_atom_site_label_1
_geom_bond_atom_site_label_2
_ccdc_geom_bond_type
C34   C35   S    
C4    C6    S    
O24   C44   S    
C1    O6    A    
O22   C42   S    
C41   H12   S    
C13   C18   A    
C5    C12   S    
C14   C15   A    
C20   H5    S    
C6    C7    A    
C12   H29   S    
O5    C3    A    
C21   C22   A    
C36   H11   S    
C33   C37   S    
O17   V4    S    
V2    O10   S    
C44   H27   S    
C29   C36   S    
C35   C36   S    
C19   C20   S    
C27   H7    S    
O12   C37   A    
C30   C31   A    
O8    V2    S    
C7    H1    S    
O17   V3    S    
C44   H26   S    
O18   V4    S    
C9    C10   A    
O13   C40   A    
O18   C39   A    
O1    V2    S    
O7    V1    S    
C23   C24   A    
O11   C38   A    
O9    C4    A    
C3    C17   S    
C24   O22   S    
C14   C40   S    
C32   C33   A    
C18   C19   S    
C28   H8    S    
C41   H13   S    
C37   O16   A    
C5    C10   A    
V4    O20   S    
C31   C32   A    
C9    C39   S    
C10   C11   S    
O19   V4    S    
C22   C23   A    
O4    C2    A    
C13   C20   S    
C11   C12   S    
O15   C39   A    
C42   H15   S    
O13   V3    S    
C20   H4    S    
O14   C38   A    
O2    C1    A    
C25   C26   A    
C21   C26   A    
C15   C16   A    
C11   H28   S    
C43   H22   S    
C1    C22   S    
C44   H25   S    
C5    C6    A    
C45   H31   S    
O16   V4    S    
O14   V3    S    
O21   C41   S    
O3    C4    A    
C23   H6    S    
C11   O24   S    
O6    V2    S    
C42   H16   S    
C36   H24   S    
C8    C9    A    
C24   C25   A    
O2    V1    S    
C45   H30   S    
C32   H9    S    
C43   H23   S    
C28   H19   S    
C41   H14   S    
O12   V3    S    
C33   C34   A    
C35   O23   S    
C7    C8    A    
O1    C2    A    
C26   C27   S    
C2    C30   S    
O19   C40   A    
C31   H20   S    
O5    V1    S    
O8    C3    A    
C42   H17   S    
C19   H34   S    
C17   C18   A    
O9    V2    S    
C27   H18   S    
O7    V2    S    
O4    V1    S    
O3    V1    S    
C29   C34   A    
C12   O25   S    
C16   C17   A    
C43   H21   S    
C16   H3    S    
C25   C38   S    
O15   V3    S    
O11   V4    S    
C35   H10   S    
V3    O20   S    
C45   H32   S    
O25   C45   S    
C21   C28   S    
C27   C28   S    
C29   C30   A    
C13   C14   A    
C15   H33   S    
V1    O10   S    
O23   C43   S    
C8    H2    S    
C19   O21   S    
