data_mof_unit_3354.cif
_audit_creation_date              2012-12-10T17:46:30-0500
_audit_creation_method            fapswitch 2.2
_symmetry_space_group_name_H-M    P1
_symmetry_Int_Tables_number       1
_space_group_crystal_system       triclinic
_cell_length_a                    20.738096
_cell_length_b                    21.301614
_cell_length_c                    14.756977
_cell_angle_alpha                 89.969546
_cell_angle_beta                  127.716014
_cell_angle_gamma                 90.143887
_cell_volume                      5156.82536472

loop_
_atom_site_label
_atom_site_type_symbol
_atom_type_description
_atom_site_fract_x
_atom_site_fract_y
_atom_site_fract_z
_atom_type_partial_charge
C1    C     C_R   0.601622 0.912933 0.629916 0.814228
C2    C     C_R   0.398378 0.087067 0.370085 0.814234
C3    C     C_R   0.396775 0.914061 0.368144 0.810081
C4    C     C_R   0.603225 0.085938 0.631857 0.810080
C5    C     C_R   0.102876 0.413893 0.631483 0.814049
C6    C     C_R   0.897124 0.586106 0.368517 0.814050
C7    C     C_R   0.896738 0.414104 0.368141 0.811720
C8    C     C_R   0.103262 0.585896 0.631859 0.811722
C9    C     C_R   0.314024 0.787852 0.904567 -0.026956
C10   C     C_R   0.685965 0.212152 0.095425 -0.026956
C11   C     C_R   0.663831 0.770136 0.069299 -0.041482
C12   C     C_R   0.336162 0.229856 0.930690 -0.041482
C13   C     C_R   0.843701 0.264151 0.942192 -0.028058
C14   C     C_R   0.156327 0.735820 0.057849 -0.028056
C15   C     C_R   0.195937 0.293483 0.105479 -0.039314
C16   C     C_R   0.804077 0.706525 0.894534 -0.039320
C17   C     C_R   0.320679 0.000814 0.662698 0.083849
C18   C     C_R   0.679320 0.999191 0.337301 0.083848
C19   C     C_R   0.821889 0.487316 0.663845 0.085748
C20   C     C_R   0.178113 0.512675 0.336158 0.085749
C21   C     C_R   0.352181 0.998276 0.602346 0.032459
C22   C     C_R   0.647819 0.001727 0.397653 0.032460
C23   C     C_R   0.852969 0.490768 0.603036 0.032148
C24   C     C_R   0.147032 0.509225 0.396966 0.032149
C25   C     C_R   0.486454 0.004320 0.774155 0.020419
C26   C     C_R   0.513546 0.995680 0.225845 0.020421
C27   C     C_R   0.985560 0.508004 0.773481 0.022914
C28   C     C_R   0.014439 0.492001 0.226518 0.022904
C29   C     C_R   0.460314 0.998295 0.843682 -0.049939
C30   C     C_R   0.539685 0.001707 0.156317 -0.049945
C31   C     C_R   0.961026 0.497258 0.844061 -0.050134
C32   C     C_R   0.038975 0.502743 0.155940 -0.050124
C33   C     C_R   0.374335 0.996534 0.784740 0.050506
C34   C     C_R   0.625664 0.003470 0.215259 0.050497
C35   C     C_R   0.876340 0.485650 0.785904 0.046172
C36   C     C_R   0.123663 0.514346 0.214099 0.046191
C37   C     C_R   0.515925 0.996954 0.968392 0.020450
C38   C     C_R   0.484074 0.003048 0.031607 0.020451
C39   C     C_R   0.016368 0.500114 0.968656 0.017159
C40   C     C_R   0.983634 0.499889 0.031345 0.017160
C41   C     C_R   0.397715 0.007980 0.966904 -0.096853
C42   C     C_R   0.602283 0.992022 0.033096 -0.096860
C43   C     C_R   0.897260 0.494152 0.966509 -0.088519
C44   C     C_R   0.102743 0.505849 0.033491 -0.088516
C45   C     C_R   0.345407 0.994284 0.849704 0.155604
C46   C     C_R   0.654592 0.005721 0.150294 0.155602
C47   C     C_R   0.848476 0.476650 0.851171 0.158397
C48   C     C_R   0.151529 0.523346 0.148834 0.158398
C49   C     C_R   0.664556 0.133195 0.708941 -0.056630
C50   C     C_R   0.335449 0.866799 0.291068 -0.056634
C51   C     C_R   0.344704 0.139971 0.302287 -0.061845
C52   C     C_R   0.655298 0.860030 0.697715 -0.061845
C53   C     C_R   0.160421 0.636524 0.703495 -0.057550
C54   C     C_R   0.839578 0.363475 0.296505 -0.057552
C55   C     C_R   0.837015 0.634203 0.293077 -0.061138
C56   C     C_R   0.162985 0.365797 0.706922 -0.061139
C57   C     C_R   0.780976 0.197812 0.772069 -0.159740
C58   C     C_R   0.219053 0.802161 0.227972 -0.159741
C59   C     C_R   0.246786 0.218693 0.261412 -0.163026
C60   C     C_R   0.753225 0.781314 0.738599 -0.163031
C61   C     C_R   0.259416 0.714848 0.744754 -0.163306
C62   C     C_R   0.740572 0.285159 0.255234 -0.163305
C63   C     C_R   0.727372 0.703987 0.239256 -0.162363
C64   C     C_R   0.272621 0.296007 0.760734 -0.162360
C65   C     C_R   0.722201 0.154229 0.695714 -0.174860
C66   C     C_R   0.277820 0.845751 0.304316 -0.174859
C67   C     C_R   0.295133 0.167490 0.325381 -0.174859
C68   C     C_R   0.704873 0.832515 0.674626 -0.174858
C69   C     C_R   0.208005 0.665357 0.677741 -0.175178
C70   C     C_R   0.791985 0.334649 0.322249 -0.175172
C71   C     C_R   0.784141 0.658807 0.312585 -0.174559
C72   C     C_R   0.215855 0.341188 0.687408 -0.174558
C73   C     C_R   0.666271 0.156057 0.798963 -0.214714
C74   C     C_R   0.333727 0.843942 0.201037 -0.214715
C75   C     C_R   0.345711 0.164255 0.215411 -0.194931
C76   C     C_R   0.654290 0.835744 0.784588 -0.194933
C77   C     C_R   0.165005 0.657379 0.796838 -0.209988
C78   C     C_R   0.835002 0.342613 0.203171 -0.209992
C79   C     C_R   0.832204 0.654863 0.199373 -0.197393
C80   C     C_R   0.167798 0.345138 0.800629 -0.197393
C81   C     C_R   0.727533 0.197443 0.881178 0.095183
C82   C     C_R   0.272473 0.802548 0.118834 0.095180
C83   C     C_R   0.295494 0.214437 0.146255 0.089668
C84   C     C_R   0.704510 0.785564 0.853748 0.089670
C85   C     C_R   0.212259 0.709856 0.861574 0.092420
C86   C     C_R   0.787744 0.290138 0.138433 0.092422
C87   C     C_R   0.772386 0.697809 0.119795 0.091054
C88   C     C_R   0.227616 0.302191 0.880205 0.091053
C89   C     C_R   0.784522 0.220043 0.865116 0.108637
C90   C     C_R   0.215500 0.779935 0.134915 0.108635
C91   C     C_R   0.245726 0.242491 0.171179 0.099381
C92   C     C_R   0.754283 0.757515 0.828829 0.099383
C93   C     C_R   0.262421 0.737720 0.837022 0.101979
C94   C     C_R   0.737572 0.262282 0.162973 0.101980
C95   C     C_R   0.720741 0.724180 0.142762 0.101271
C96   C     C_R   0.279255 0.275815 0.857231 0.101270
C97   C     C_R   0.732100 0.217775 0.976981 0.054380
C98   C     C_R   0.267902 0.782219 0.023026 0.054376
C99   C     C_R   0.292333 0.236266 0.052003 0.055280
C100  C     C_R   0.707669 0.763733 0.947996 0.055282
C101  C     C_R   0.211638 0.734351 0.950861 0.059412
C102  C     C_R   0.788370 0.265637 0.049154 0.059417
C103  C     C_R   0.764092 0.716010 0.019983 0.051642
C104  C     C_R   0.235913 0.283992 0.980021 0.051640
C105  C     C_R   0.316422 0.809454 0.995572 -0.215958
C106  C     C_R   0.683570 0.190548 0.004422 -0.215962
C107  C     C_R   0.657196 0.788802 0.973646 -0.214293
C108  C     C_R   0.342799 0.211193 0.026346 -0.214291
C109  C     C_R   0.845216 0.286324 0.032118 -0.218918
C110  C     C_R   0.154805 0.713653 0.967914 -0.218915
C111  C     C_R   0.190680 0.313013 0.011277 -0.215601
C112  C     C_R   0.809332 0.686993 0.988734 -0.215604
Cu1   Cu    Cu3+1 0.526640 0.000000 0.436960 0.958385
Cu2   Cu    Cu3+1 0.473360 0.000000 0.563040 0.958384
Cu3   Cu    Cu3+1 0.026640 0.500000 0.436960 0.959320
Cu4   Cu    Cu3+1 0.973360 0.500000 0.563040 0.959322
H1    H     H_    0.382416 0.858220 0.198646 0.151674
H2    H     H_    0.617571 0.141792 0.801338 0.151674
H3    H     H_    0.613576 0.857639 0.796441 0.167368
H4    H     H_    0.386422 0.142357 0.203555 0.167370
H5    H     H_    0.867963 0.369154 0.181420 0.151237
H6    H     H_    0.132052 0.630832 0.818596 0.151234
H7    H     H_    0.122702 0.362680 0.807993 0.161611
H8    H     H_    0.877304 0.637324 0.192015 0.161609
H9    H     H_    0.278210 0.862792 0.373796 0.163937
H10   H     H_    0.721817 0.137183 0.626242 0.163937
H11   H     H_    0.705865 0.850168 0.606636 0.168981
H12   H     H_    0.294144 0.149838 0.393374 0.168981
H13   H     H_    0.794336 0.350334 0.394036 0.164602
H14   H     H_    0.205648 0.649677 0.605947 0.164603
H15   H     H_    0.212960 0.356399 0.614944 0.168666
H16   H     H_    0.787032 0.643595 0.385047 0.168666
H17   H     H_    0.296042 0.735416 0.722855 0.153581
H18   H     H_    0.703937 0.264598 0.277124 0.153582
H19   H     H_    0.688313 0.722527 0.258326 0.155532
H20   H     H_    0.311676 0.277464 0.741660 0.155532
H21   H     H_    0.823907 0.213535 0.758033 0.154299
H22   H     H_    0.176133 0.786427 0.242023 0.154296
H23   H     H_    0.209440 0.238885 0.282223 0.154615
H24   H     H_    0.790574 0.761125 0.717792 0.154615
H25   H     H_    0.355005 0.849638 0.040751 0.149534
H26   H     H_    0.644981 0.150367 0.959237 0.149537
H27   H     H_    0.610684 0.823067 0.920630 0.154903
H28   H     H_    0.389308 0.176924 0.079358 0.154905
H29   H     H_    0.893874 0.318582 0.089867 0.147796
H30   H     H_    0.106152 0.681390 0.910174 0.147795
H31   H     H_    0.151101 0.352227 0.965250 0.158920
H32   H     H_    0.848915 0.647781 0.034765 0.158919
H33   H     H_    0.451976 0.984442 0.190683 0.148464
H34   H     H_    0.548024 0.015556 0.809317 0.148466
H35   H     H_    0.955311 0.474846 0.193238 0.148085
H36   H     H_    0.044686 0.525163 0.806760 0.148081
H37   H     H_    0.688290 0.000148 0.490297 0.149670
H38   H     H_    0.311710 0.999856 0.509703 0.149674
H39   H     H_    0.187817 0.510287 0.489626 0.149616
H40   H     H_    0.812184 0.489702 0.510376 0.149613
N1    N     N_R   0.433280 0.000000 0.657760 -0.199878
N2    N     N_R   0.566720 0.000000 0.342240 -0.199877
N3    N     N_R   0.933280 0.500000 0.657760 -0.200404
N4    N     N_R   0.066720 0.500000 0.342240 -0.200405
O1    O     O_R   0.600040 0.935040 0.546740 -0.587542
O2    O     O_R   0.399960 0.064960 0.453260 -0.587543
O3    O     O_R   0.399960 0.935040 0.453260 -0.587066
O4    O     O_R   0.600040 0.064960 0.546740 -0.587066
O5    O     O_R   0.100040 0.435040 0.546740 -0.585070
O6    O     O_R   0.899960 0.564960 0.453260 -0.585067
O7    O     O_R   0.899960 0.435040 0.453260 -0.590178
O8    O     O_R   0.100040 0.564960 0.546740 -0.590176
O9    O     O_R   0.555010 0.935070 0.653220 -0.577483
O10   O     O_R   0.444990 0.064930 0.346780 -0.577482
O11   O     O_R   0.444990 0.935070 0.346780 -0.589206
O12   O     O_R   0.555010 0.064930 0.653220 -0.589206
O13   O     O_R   0.055010 0.435070 0.653220 -0.576299
O14   O     O_R   0.944990 0.564930 0.346780 -0.576303
O15   O     O_R   0.944990 0.435070 0.346780 -0.589400
O16   O     O_R   0.055010 0.564930 0.653220 -0.589401
C113  C     C_1   0.365983 0.818168 0.882912 0.269825
N5    N     N_1   0.407318 0.842317 0.865207 -0.278757
C114  C     C_1   0.634001 0.181841 0.117074 0.269819
N6    N     N_1   0.592662 0.157694 0.134775 -0.278756
C115  C     C_1   0.612834 0.801030 0.091963 0.256247
N7    N     N_1   0.572523 0.825909 0.110622 -0.275023
C116  C     C_1   0.387150 0.198957 0.908018 0.256256
N8    N     N_1   0.427456 0.174074 0.889351 -0.275026
C117  C     C_1   0.902761 0.289188 0.929480 0.259522
N9    N     N_1   0.949594 0.309356 0.918737 -0.274613
C118  C     C_1   0.097282 0.710770 0.070580 0.259529
N10   N     N_1   0.050461 0.690592 0.081338 -0.274617
C119  C     C_1   0.149390 0.327354 0.132928 0.268993
N11   N     N_1   0.112432 0.354491 0.155166 -0.276362
C120  C     C_1   0.850630 0.672658 0.867092 0.268969
N12   N     N_1   0.887594 0.645524 0.844859 -0.276362
C121  C     C_1   0.358322 0.034171 0.011968 0.248719
N13   N     N_1   0.325219 0.054719 0.046006 -0.280116
C122  C     C_1   0.641676 0.965827 0.988034 0.248730
N14   N     N_1   0.674778 0.945275 0.953997 -0.280115
C123  C     C_1   0.852852 0.512922 0.008511 0.235797
N15   N     N_1   0.816245 0.527535 0.040687 -0.278417
C124  C     C_1   0.147148 0.487083 0.991483 0.235783
N16   N     N_1   0.183753 0.472473 0.959302 -0.278422
I1    I     I_    0.229539 0.954338 0.787826 -0.272759
I2    I     I_    0.770456 0.045670 0.212166 -0.272761
I3    I     I_    0.743830 0.420086 0.794329 -0.283566
I4    I     I_    0.256190 0.579895 0.205692 -0.283562
I5    I     I_    0.197069 0.031622 0.557138 -0.285632
I6    I     I_    0.802933 0.968391 0.442863 -0.285631
I7    I     I_    0.694081 0.504991 0.558498 -0.280221
I8    I     I_    0.305918 0.494985 0.441505 -0.280225

loop_
_geom_bond_atom_site_label_1
_geom_bond_atom_site_label_2
_ccdc_geom_bond_type
Cu2   O9    S    
C88   C96   A    
C27   H36   S    
C47   I3    S    
C29   C33   A    
C15   C91   A    
C33   C45   A    
C5    C56   S    
C53   C77   A    
C11   C115  S    
C6    C55   S    
C53   C69   A    
C6    O6    A    
C2    O2    A    
C64   H20   S    
Cu2   O3    S    
C61   H17   S    
Cu1   O11   S    
C115  N7    T    
Cu2   O12   S    
C99   C108  A    
C30   C38   A    
C98   C105  A    
C57   C89   A    
Cu4   O13   S    
C10   C114  S    
C32   C36   A    
C51   C75   A    
Cu3   O14   S    
C44   C124  S    
C50   C74   A    
C62   C94   A    
C105  H25   S    
C61   C93   A    
Cu2   O2    S    
C12   C116  S    
C10   C94   A    
C27   N3    A    
Cu3   Cu4   S    
C63   C95   A    
C28   N4    A    
C62   C70   A    
C42   C46   A    
C37   C42   A    
C78   H5    S    
C14   C90   A    
C41   C121  S    
C77   H6    S    
C86   C94   A    
C77   C85   A    
C59   C67   A    
C71   H16   S    
C85   C93   A    
C58   C66   A    
C40   C43   A    
C20   C24   A    
C69   H14   S    
C56   C72   A    
C21   N1    A    
C7    O15   A    
Cu3   O15   S    
C21   H38   S    
C4    O4    A    
Cu4   O7    S    
C36   C48   A    
C34   C46   A    
C5    O5    A    
Cu1   N2    S    
Cu3   O5    S    
C8    O8    A    
C97   C102  A    
C52   C68   A    
C24   H39   S    
C3    O3    A    
C81   C89   A    
C78   C86   A    
C32   C40   A    
C99   C104  A    
C15   C119  S    
C35   C47   A    
C124  N16   T    
C83   C99   A    
C23   H40   S    
C19   I7    S    
C82   C98   A    
Cu4   O6    S    
C42   C122  S    
C17   C33   A    
C74   C82   A    
C73   C81   A    
C88   C104  A    
C3    C50   S    
C106  H26   S    
C60   C92   A    
C25   C29   A    
C76   C84   A    
C76   H3    S    
C13   C117  S    
C30   C34   A    
C27   C31   A    
C120  N12   T    
C84   C100  A    
C75   C83   A    
C15   C111  A    
C28   C32   A    
C64   C96   A    
C38   C41   A    
C39   C40   A    
C12   C108  A    
Cu4   O16   S    
C51   C67   A    
C122  N14   T    
C6    O14   A    
C101  C110  A    
Cu1   O1    S    
C100  C103  A    
C17   C21   A    
C112  H32   S    
C87   C95   A    
C25   H34   S    
C63   H19   S    
C121  N13   T    
C19   C23   A    
C116  N8    T    
Cu2   N1    S    
C37   C38   A    
C16   C120  S    
C111  H31   S    
C55   C79   A    
C123  N15   T    
C54   C70   A    
C59   H23   S    
C50   C66   A    
C8    O16   A    
C57   H21   S    
C43   C123  S    
C59   C91   A    
C58   C90   A    
C68   H11   S    
C79   C87   A    
C49   C65   A    
Cu4   N3    S    
C87   C103  A    
C97   C106  A    
C45   I1    S    
C60   H24   S    
C16   C92   A    
C3    O11   A    
C11   C107  A    
C49   C73   A    
C10   C106  A    
C20   I8    S    
C107  H27   S    
C83   C91   A    
C86   C102  A    
C9    C93   A    
C108  H28   S    
C85   C101  A    
C16   C112  A    
C72   H15   S    
Cu1   Cu2   S    
C11   C95   A    
C14   C110  A    
C74   H1    S    
C7    O7    A    
C100  C107  A    
C73   H2    S    
C4    O12   A    
C13   C89   A    
C18   C22   A    
C5    O13   A    
C26   H33   S    
C109  H29   S    
C75   H4    S    
C57   C65   A    
C43   C47   A    
C52   C76   A    
C56   C80   A    
C8    C53   S    
C104  C111  A    
C24   N4    A    
C26   C30   A    
C39   C44   A    
C13   C109  A    
C98   C101  A    
C22   N2    A    
C79   H8    S    
C48   I4    S    
C82   C90   A    
C66   H9    S    
Cu3   N4    S    
C18   I6    S    
C61   C69   A    
C65   H10   S    
C62   H18   S    
C17   I5    S    
C4    C49   S    
C118  N10   T    
C2    O10   A    
C19   C35   A    
C67   H12   S    
Cu1   O4    S    
C25   N1    A    
C14   C118  S    
C58   H22   S    
C117  N9    T    
C81   C97   A    
C18   C34   A    
C31   C35   A    
C1    O9    A    
C31   C39   A    
C26   N2    A    
Cu1   O10   S    
C64   C72   A    
C119  N11   T    
C1    C52   S    
C103  C112  A    
C2    C51   S    
C1    O1    A    
C114  N6    T    
C20   C36   A    
C46   I2    S    
C60   C68   A    
C28   H35   S    
C80   C88   A    
C113  N5    T    
C70   H13   S    
C29   C37   A    
C41   C45   A    
C12   C96   A    
C102  C109  A    
C84   C92   A    
C7    C54   S    
Cu3   O8    S    
C110  H30   S    
C9    C105  A    
C63   C71   A    
C80   H7    S    
C55   C71   A    
C44   C48   A    
C9    C113  S    
C23   N3    A    
C54   C78   A    
C22   H37   S    
