data_mof_unit_2953.cif
_audit_creation_date              2012-12-11T15:18:26-0500
_audit_creation_method            fapswitch 2.2
_symmetry_space_group_name_H-M    P1
_symmetry_Int_Tables_number       1
_space_group_crystal_system       triclinic
_cell_length_a                    16.027829
_cell_length_b                    15.886777
_cell_length_c                    17.782817
_cell_angle_alpha                 107.711106
_cell_angle_beta                  105.711998
_cell_angle_gamma                 110.403494
_cell_volume                      3665.01656308

loop_
_atom_site_label
_atom_site_type_symbol
_atom_type_description
_atom_site_fract_x
_atom_site_fract_y
_atom_site_fract_z
_atom_type_partial_charge
C1    C     C_R   0.889062 0.907622 0.668205 -0.228725
C2    C     C_R   0.915756 0.708590 0.449703 -0.208149
C3    C     C_R   0.747837 0.818097 0.256378 0.574802
C4    C     C_R   0.088671 0.284075 0.500490 0.520506
C5    C     C_R   0.280595 0.012967 0.585869 0.580652
C6    C     C_R   0.692243 0.725248 0.252781 -0.089104
C7    C     C_R   0.341047 0.073515 0.560981 -0.359990
C8    C     C_R   0.996530 0.693861 0.463572 -0.116193
C9    C     C_R   0.028590 0.988268 0.238458 -0.124968
C10   C     C_1   0.632154 0.026699 0.528778 0.101145
C11   C     C_1   0.571197 0.045322 0.543150 0.021383
C12   C     C_R   0.008639 0.291588 0.454287 -0.121704
C13   C     C_1   0.496837 0.063558 0.554895 -0.013278
C14   C     C_1   0.428183 0.072495 0.560359 -0.022742
C15   C     C_1   0.006623 0.368117 0.430061 0.006436
C16   C     C_R   0.209824 0.190585 0.750574 -0.078279
C17   C     C_1   0.001234 0.436238 0.418225 0.015452
C18   C     C_1   0.994931 0.521290 0.418937 0.046102
C19   C     C_1   0.993120 0.598755 0.433448 0.106761
C20   C     C_1   0.288144 0.374481 0.839252 -0.031116
C21   C     C_2   0.392664 0.523791 0.996131 -0.351945
C22   C     C_2   0.427206 0.502439 0.061493 0.594199
C23   C     C_R   0.241004 0.286756 0.758790 0.002467
C24   C     C_1   0.517594 0.581456 0.134527 -0.190392
C25   C     C_1   0.332295 0.444662 0.909775 0.150320
C26   C     C_1   0.596255 0.647467 0.190202 0.012762
C27   C     C_1   0.032269 0.953289 0.156562 0.006945
C28   C     C_R   0.743289 0.035139 0.455289 0.536458
C29   C     C_2   0.032820 0.896275 0.002146 0.583447
C30   C     C_2   0.944737 0.855126 0.936463 -0.359539
C31   C     C_1   0.940280 0.873245 0.862355 0.168038
C32   C     C_1   0.034303 0.924940 0.087082 -0.179745
C33   C     C_1   0.946456 0.899422 0.807098 0.098454
C34   C     C_R   0.703693 0.006133 0.508570 -0.094095
C35   C     C_R   0.222022 0.281744 0.676866 -0.100513
C36   C     C_R   0.741911 0.949728 0.534878 -0.210136
C37   C     C_R   0.925905 0.204889 0.427698 -0.114669
C38   C     C_R   0.050646 0.983360 0.743322 0.514570
C39   C     C_R   0.961396 0.936523 0.746174 -0.096320
C40   C     C_3   0.407398 0.228532 0.500959 0.317868
C41   C     C_3   0.493180 0.307396 0.588825 -0.377068
C42   C     C_3   0.590462 0.341216 0.580622 -0.943257
C43   C     C_3   0.232614 0.015748 0.295573 0.139465
C44   C     C_3   0.198267 0.915410 0.301698 -0.389806
C45   C     C_R   0.739732 0.727301 0.330776 -0.215148
C46   C     C_3   0.243437 0.854055 0.261767 -0.920064
C47   C     C_3   0.658639 0.795939 0.115595 0.225440
C48   C     C_3   0.704775 0.738303 0.070160 -0.419852
C49   C     C_3   0.635343 0.668272 0.974570 -0.960066
C50   C     C_3   0.407176 0.073587 0.725825 0.400179
C51   C     C_3   0.476488 0.026681 0.728862 -0.381840
C52   C     C_3   0.469811 0.968634 0.783357 -0.743929
C53   C     C_3   0.404841 0.391816 0.125252 0.204553
C54   C     C_3   0.491066 0.369426 0.150972 -0.299942
C55   C     C_3   0.503296 0.349770 0.231113 -0.999467
C56   C     C_R   0.285750 0.100705 0.509449 0.561981
C57   C     C_3   0.224097 0.436071 0.542331 0.169073
C58   C     C_3   0.252971 0.468447 0.476483 -0.288742
C59   C     C_3   0.294311 0.581178 0.507424 -0.930960
C60   C     C_3   0.196356 0.930875 0.040165 0.291246
C61   C     C_3   0.285352 0.034670 0.097301 -0.278234
C62   C     C_3   0.373905 0.028675 0.149989 -1.030188
C63   C     C_R   0.077631 0.783326 0.527041 0.530446
C64   C     C_R   0.943186 0.971442 0.248802 -0.211655
C65   C     C_R   0.106002 0.044181 0.321112 0.606855
H1    H     H_    0.812695 0.854092 0.643206 0.133963
H2    H     H_    0.708854 0.674688 0.354822 0.138916
H3    H     H_    0.400028 0.264921 0.456918 0.127336
H4    H     H_    0.422294 0.167277 0.468328 0.075855
H5    H     H_    0.480810 0.373212 0.613216 0.211358
H6    H     H_    0.497517 0.276837 0.637381 0.211970
H7    H     H_    0.605350 0.276851 0.558304 0.282812
H8    H     H_    0.651013 0.398969 0.645007 0.268828
H9    H     H_    0.588535 0.373926 0.533535 0.265619
H10   H     H_    0.207583 0.680059 0.642744 0.361347
H11   H     H_    0.313978 0.053170 0.323411 0.135887
H12   H     H_    0.870921 0.934049 0.197582 0.188071
H13   H     H_    0.210061 0.004425 0.227510 0.123428
H14   H     H_    0.220137 0.929058 0.370644 0.201336
H15   H     H_    0.117115 0.870435 0.267032 0.194629
H16   H     H_    0.220642 0.836053 0.191712 0.253460
H17   H     H_    0.218008 0.782860 0.267796 0.270390
H18   H     H_    0.324855 0.896049 0.296239 0.278448
H19   H     H_    0.646647 0.842483 0.082454 0.144832
H20   H     H_    0.584355 0.746383 0.105928 0.111472
H21   H     H_    0.773689 0.791819 0.073224 0.205257
H22   H     H_    0.722559 0.692955 0.102239 0.204249
H23   H     H_    0.840421 0.652126 0.409165 0.142970
H24   H     H_    0.567456 0.610100 0.968876 0.268166
H25   H     H_    0.671746 0.630550 0.942902 0.269913
H26   H     H_    0.615820 0.711029 0.940054 0.261119
H27   H     H_    0.405614 0.100015 0.790484 0.143054
H28   H     H_    0.438064 0.144004 0.719258 -0.017530
H29   H     H_    0.459271 0.975059 0.662086 0.237067
H30   H     H_    0.553294 0.087175 0.757699 0.152928
H31   H     H_    0.488090 0.018453 0.851204 0.231412
H32   H     H_    0.522836 0.938422 0.785056 0.220838
H33   H     H_    0.395111 0.904992 0.754573 0.317941
H34   H     H_    0.422321 0.600280 0.003924 0.109900
H35   H     H_    0.337176 0.326616 0.112040 0.139313
H36   H     H_    0.414153 0.456871 0.180232 0.083281
H37   H     H_    0.477971 0.302353 0.095913 0.212573
H38   H     H_    0.560013 0.433680 0.165085 0.204423
H39   H     H_    0.518415 0.416628 0.287539 0.266098
H40   H     H_    0.565891 0.333261 0.247800 0.281695
H41   H     H_    0.435796 0.284474 0.217996 0.268150
H42   H     H_    0.291966 0.469713 0.602699 0.111694
H43   H     H_    0.176504 0.466715 0.561966 0.095873
H44   H     H_    0.309322 0.446610 0.466419 0.209517
H45   H     H_    0.877478 0.827276 0.945286 0.117228
H46   H     H_    0.187954 0.429373 0.412884 0.207765
H47   H     H_    0.236055 0.602872 0.509580 0.310020
H48   H     H_    0.321014 0.602453 0.461173 0.266555
H49   H     H_    0.356527 0.622337 0.573021 0.259680
H50   H     H_    0.215625 0.885023 0.993820 0.143490
H51   H     H_    0.179586 0.892070 0.080983 0.026048
H52   H     H_    0.305293 0.070317 0.055513 0.235717
H53   H     H_    0.266530 0.082632 0.142393 0.190960
H54   H     H_    0.356395 0.993470 0.192657 0.263887
H55   H     H_    0.436540 0.105233 0.191475 0.286226
H56   H     H_    0.211093 0.171443 0.803390 0.175155
H57   H     H_    0.396065 0.984131 0.105749 0.285235
H58   H     H_    0.530127 0.018721 0.299873 0.372067
H59   H     H_    0.263899 0.129576 0.941402 0.353661
H60   H     H_    0.237360 0.343718 0.660440 0.127518
H61   H     H_    0.720660 0.909920 0.571615 0.137778
H62   H     H_    0.856415 0.181954 0.377759 0.226250
N1    N     N_R   0.932430 0.938480 0.620530 -0.062393
N2    N     N_R   0.173120 0.127600 0.665820 -0.055517
N3    N     N_R   0.812300 0.005460 0.456230 -0.106364
N4    N     N_R   0.178530 0.184580 0.620530 -0.046111
N5    N     N_R   0.806890 0.948480 0.501510 -0.063571
N6    N     N_R   0.952060 0.145220 0.456230 -0.089264
N7    N     N_R   0.033360 0.987840 0.665820 -0.111443
N8    N     N_R   0.821470 0.815420 0.379470 -0.070568
N9    N     N_R   0.193110 0.051520 0.498490 -0.139828
N10   N     N_R   0.047940 0.854780 0.543770 -0.104534
N11   N     N_R   0.966640 0.012160 0.334180 -0.072057
N12   N     N_R   0.067570 0.061520 0.379470 -0.090723
N13   N     N_R   0.947010 0.805420 0.498490 -0.066227
N14   N     N_R   0.826880 0.872400 0.334180 -0.089363
N15   N     N_R   0.187700 0.994540 0.543770 -0.154034
N16   N     N_R   0.052990 0.194580 0.501510 -0.095246
Ni1   Ni    Ni4+2 0.878060 0.878060 0.500000 0.189693
Ni2   Ni    Ni4+2 0.121940 0.121940 0.500000 0.283182
Ni3   Ni    Ni4+2 0.109540 0.991270 0.603850 0.315179
Ni4   Ni    Ni4+2 0.890460 0.008730 0.396150 0.283953
O1    O     O_3   0.318811 0.195043 0.510955 -0.611966
O2    O     O_3   0.117407 0.940321 0.990787 -0.592862
O3    O     O_2   0.711220 0.170261 0.409765 -0.338940
O4    O     O_2   0.705051 0.029396 0.296385 -0.287143
O5    O     O_3   0.559770 0.995673 0.340620 -0.545993
O6    O     O_2   0.145882 0.904704 0.823492 -0.227638
O7    O     O_2   0.242159 0.033251 0.789479 -0.317936
O8    O     O_3   0.191604 0.088776 0.915841 -0.546493
O9    O     O_2   0.261563 0.809136 0.569826 -0.328754
O10   O     O_2   0.212435 0.857355 0.689655 -0.187685
O11   O     O_3   0.148833 0.671099 0.597461 -0.571410
O12   O     O_3   0.205976 0.083206 0.343435 -0.658802
O13   O     O_3   0.719748 0.862591 0.204756 -0.639842
O14   O     O_3   0.310038 0.002019 0.662086 -0.547689
O15   O     O_3   0.390618 0.402575 0.047249 -0.656249
O16   O     O_3   0.183874 0.330815 0.508532 -0.647172
S1    S     S_3+6 0.179579 0.784033 0.598238 -0.037971
S2    S     S_3+6 0.681618 0.060396 0.373358 -0.068158
S3    S     S_3+6 0.161043 0.000759 0.817307 -0.033349

loop_
_geom_bond_atom_site_label_1
_geom_bond_atom_site_label_2
_ccdc_geom_bond_type
N5    Ni1   S    
C6    C45   A    
O6    S3    D    
C58   H44   S    
C41   C42   S    
N15   Ni3   S    
C3    N14   A    
C1    N1    A    
C49   H25   S    
C65   O12   S    
C3    C6    A    
C4    N16   A    
O5    S2    S    
C5    N15   A    
C20   C23   S    
C64   N11   A    
C53   C54   S    
C43   H13   S    
C33   C39   S    
C55   H40   S    
C47   H20   S    
C24   C26   T    
C29   C32   S    
C43   O12   S    
C36   N5    A    
N8    Ni1   S    
C30   C31   S    
C21   H34   S    
C53   O15   S    
C20   C25   T    
O8    S3    S    
C9    C64   A    
C52   H32   S    
N16   Ni2   S    
C18   C19   T    
C64   H12   S    
C12   C37   A    
C35   H60   S    
N9    N15   A    
C59   H47   S    
C46   H17   S    
C7    C14   S    
C53   H36   S    
C45   H2    S    
C31   C33   T    
C2    H23   S    
N6    Ni4   S    
C4    C12   A    
C62   H55   S    
N9    Ni2   S    
O11   S1    S    
C41   H6    S    
C61   H53   S    
C28   C34   A    
C13   C14   T    
C50   O14   S    
C63   N10   A    
C7    C56   A    
C49   H26   S    
C22   O15   S    
C56   N9    A    
C44   C46   S    
C1    H1    S    
C47   O13   S    
C53   H35   S    
C63   S1    S    
N7    Ni3   S    
N10   N13   A    
C36   H61   S    
C42   H9    S    
C8    C19   S    
C45   N8    A    
C40   H4    S    
C40   O1    S    
C55   H41   S    
C61   H52   S    
C51   C52   S    
N10   Ni3   S    
C44   H15   S    
C4    O16   S    
N11   N12   A    
C5    C7    A    
C1    C39   A    
C48   H21   S    
C51   H29   S    
C50   C51   S    
C58   C59   S    
O4    S2    D    
O3    S2    D    
C55   H39   S    
C58   H46   S    
C60   C61   S    
C5    O14   S    
C56   O1    S    
N6    N16   A    
N3    N5    A    
C43   C44   S    
C29   C30   D    
N1    N7    A    
C46   H16   S    
C54   H38   S    
C47   C48   S    
C57   O16   S    
C12   C15   S    
N11   Ni4   S    
C59   H48   S    
C42   H7    S    
C17   C18   S    
C62   H54   S    
C48   H22   S    
C10   C34   S    
C47   H19   S    
C37   H62   S    
C16   N2    A    
N1    Ni1   S    
O10   S1    D    
N2    Ni3   S    
C28   S2    S    
C27   C32   T    
H10   O11   S    
C50   H27   S    
C40   C41   S    
C57   H42   S    
C30   H45   S    
C16   C23   A    
C23   C35   A    
C3    O13   S    
C22   C24   S    
C60   H51   S    
C35   N4    A    
C62   H57   S    
C9    C27   S    
C43   H11   S    
C38   S3    S    
C16   H56   S    
C21   C25   S    
C54   C55   S    
N12   Ni2   S    
C42   H8    S    
N3    Ni4   S    
C54   H37   S    
C44   H14   S    
C2    C8    A    
N13   Ni1   S    
C49   H24   S    
C50   H28   S    
C15   C17   T    
C6    C26   S    
C2    N13   A    
C11   C13   S    
C28   N3    A    
C57   C58   S    
C38   C39   A    
C59   H49   S    
C48   C49   S    
C52   H33   S    
C60   O2    S    
C52   H31   S    
C34   C36   A    
H58   O5    S    
C38   N7    A    
C61   C62   S    
C37   N6    A    
C9    C65   A    
C10   C11   T    
N14   Ni4   S    
C8    C63   A    
C29   O2    S    
C46   H18   S    
C65   N12   A    
N8    N14   A    
C57   H43   S    
O9    S1    D    
C40   H3    S    
H59   O8    S    
O7    S3    D    
C60   H50   S    
N2    N4    A    
C21   C22   D    
C51   H30   S    
C41   H5    S    
N4    Ni2   S    
