data_mof_unit_1123.cif
_audit_creation_date              2012-12-11T16:15:00-0500
_audit_creation_method            fapswitch 2.2
_symmetry_space_group_name_H-M    P1
_symmetry_Int_Tables_number       1
_space_group_crystal_system       triclinic
_cell_length_a                    7.192068
_cell_length_b                    23.44092
_cell_length_c                    25.725364
_cell_angle_alpha                 89.988804
_cell_angle_beta                  90.268856
_cell_angle_gamma                 89.779564
_cell_volume                      4336.9254882

loop_
_atom_site_label
_atom_site_type_symbol
_atom_type_description
_atom_site_fract_x
_atom_site_fract_y
_atom_site_fract_z
_atom_type_partial_charge
O1    O     O_R   0.694650 0.802620 0.195790 -0.541153
O2    O     O_R   0.305350 0.197380 0.804210 -0.541153
O3    O     O_R   0.305350 0.197380 0.695790 -0.540500
O4    O     O_R   0.694650 0.802620 0.304210 -0.540500
O5    O     O_R   0.194650 0.697380 0.304210 -0.540362
O6    O     O_R   0.805350 0.302620 0.695790 -0.540362
O7    O     O_R   0.805350 0.302620 0.804210 -0.540216
O8    O     O_R   0.194650 0.697380 0.195790 -0.540216
O9    O     O_R   0.364900 0.809540 0.303840 -0.544910
O10   O     O_R   0.635100 0.190460 0.696160 -0.544910
O11   O     O_R   0.635100 0.190460 0.803840 -0.544542
O12   O     O_R   0.364900 0.809540 0.196160 -0.544543
O13   O     O_R   0.864900 0.690460 0.196160 -0.545169
O14   O     O_R   0.135100 0.309540 0.803840 -0.545169
O15   O     O_R   0.135100 0.309540 0.696160 -0.544619
O16   O     O_R   0.864900 0.690460 0.303840 -0.544619
H1    H     H_    0.344837 0.568001 0.445773 0.173475
H2    H     H_    0.655163 0.431999 0.554227 0.173475
H3    H     H_    0.655995 0.431648 0.945116 0.173825
H4    H     H_    0.344005 0.568352 0.054884 0.173825
H5    H     H_    0.817252 0.909922 0.037783 0.163064
H6    H     H_    0.182748 0.090078 0.962217 0.163064
H7    H     H_    0.155412 0.068236 0.554731 0.173772
H8    H     H_    0.844588 0.931764 0.445269 0.173772
C1    C     C_R   0.533395 0.823577 0.320712 0.704943
C2    C     C_R   0.466605 0.176423 0.679288 0.704944
C3    C     C_R   0.467550 0.177008 0.821209 0.703745
C4    C     C_R   0.532450 0.822992 0.178791 0.703745
C5    C     C_R   0.033295 0.676449 0.179280 0.704753
C6    C     C_R   0.966705 0.323551 0.820720 0.704752
C7    C     C_R   0.966252 0.323592 0.679306 0.705127
C8    C     C_R   0.033748 0.676408 0.320694 0.705126
H9    H     H_    0.807105 0.521333 0.516579 0.174845
H10   H     H_    0.192895 0.478667 0.483421 0.174845
H11   H     H_    0.193036 0.478838 0.017086 0.174977
H12   H     H_    0.806964 0.521162 0.982914 0.174978
H13   H     H_    0.392636 0.043216 0.033230 0.149795
H14   H     H_    0.607363 0.956784 0.966770 0.149795
H15   H     H_    0.692034 0.021212 0.483040 0.174966
H16   H     H_    0.307966 0.978788 0.516960 0.174965
H17   H     H_    0.663244 0.359612 0.622480 0.144268
H18   H     H_    0.336755 0.640388 0.377520 0.144268
H19   H     H_    0.335662 0.640742 0.122991 0.144330
H20   H     H_    0.664338 0.359258 0.877009 0.144330
H21   H     H_    0.177675 0.152147 0.886047 0.140535
H22   H     H_    0.822325 0.847853 0.113953 0.140536
H23   H     H_    0.836445 0.859386 0.377119 0.144176
H24   H     H_    0.163555 0.140614 0.622881 0.144176
O17   O     O_3   0.528130 0.713200 0.250000 -0.379029
O18   O     O_3   0.471870 0.286800 0.750000 -0.379029
O19   O     O_3   0.028130 0.786800 0.250000 -0.379683
O20   O     O_3   0.971870 0.213200 0.750000 -0.379683
V1    V     V_3+5 0.253280 0.756820 0.250000 1.393319
V2    V     V_3+5 0.746720 0.243180 0.750000 1.393319
V3    V     V_3+5 0.753280 0.743180 0.250000 1.392632
V4    V     V_3+5 0.246720 0.256820 0.750000 1.392632
C9    C     C_R   0.041438 0.632011 0.361839 -0.105395
C10   C     C_R   0.958562 0.367989 0.638160 -0.105395
C11   C     C_R   0.959531 0.367861 0.861900 -0.104899
C12   C     C_R   0.040469 0.632139 0.138100 -0.104899
C13   C     C_R   0.535719 0.864333 0.135086 -0.087658
C14   C     C_R   0.464281 0.135667 0.864914 -0.087659
C15   C     C_R   0.459387 0.132091 0.638120 -0.105308
C16   C     C_R   0.540613 0.867909 0.361880 -0.105308
C17   C     C_R   0.879493 0.602223 0.375742 -0.249210
C18   C     C_R   0.120507 0.397776 0.624258 -0.249210
C19   C     C_R   0.121332 0.397746 0.876123 -0.249755
C20   C     C_R   0.878668 0.602254 0.123877 -0.249754
C21   C     C_R   0.373387 0.894676 0.121191 -0.276218
C22   C     C_R   0.626613 0.105324 0.878809 -0.276218
C23   C     C_R   0.621635 0.102244 0.623971 -0.249901
C24   C     C_R   0.378365 0.897756 0.376029 -0.249901
C25   C     C_R   0.884248 0.559599 0.413865 0.433078
C26   C     C_R   0.115752 0.440401 0.586135 0.433078
C27   C     C_R   0.116351 0.440416 0.914199 0.433539
C28   C     C_R   0.883649 0.559584 0.085801 0.433539
C29   C     C_R   0.370610 0.932016 0.078172 0.450488
C30   C     C_R   0.629390 0.067984 0.921828 0.450488
C31   C     C_R   0.616844 0.059590 0.585882 0.433539
C32   C     C_R   0.383156 0.940410 0.414118 0.433539
C33   C     C_R   0.052221 0.547877 0.440657 0.030471
C34   C     C_R   0.947779 0.452123 0.559343 0.030471
C35   C     C_R   0.948336 0.452040 0.940589 0.030886
C36   C     C_R   0.051664 0.547960 0.059411 0.030885
C37   C     C_R   0.532436 0.937396 0.047796 0.056843
C38   C     C_R   0.467564 0.062604 0.952204 0.056843
C39   C     C_R   0.448466 0.047932 0.559396 0.030828
C40   C     C_R   0.551534 0.952068 0.440604 0.030828
C41   C     C_R   0.214123 0.577007 0.426277 -0.209269
C42   C     C_R   0.785877 0.422993 0.573723 -0.209269
C43   C     C_R   0.786693 0.422749 0.925917 -0.209933
C44   C     C_R   0.213307 0.577251 0.074083 -0.209933
C45   C     C_R   0.692998 0.906501 0.061210 -0.218938
C46   C     C_R   0.307002 0.093499 0.938790 -0.218938
C47   C     C_R   0.286374 0.077168 0.574002 -0.209838
C48   C     C_R   0.713626 0.922832 0.425998 -0.209838
C49   C     C_R   0.209220 0.618537 0.387304 -0.161822
C50   C     C_R   0.790780 0.381462 0.612696 -0.161822
C51   C     C_R   0.791801 0.381201 0.887023 -0.161602
C52   C     C_R   0.208199 0.618799 0.112977 -0.161602
C53   C     C_R   0.695930 0.871125 0.104848 -0.176394
C54   C     C_R   0.304070 0.128875 0.895152 -0.176395
C55   C     C_R   0.291347 0.118706 0.612918 -0.162579
C56   C     C_R   0.708653 0.881294 0.387082 -0.162579
C57   C     C_2   0.066456 0.504024 0.482057 -0.156613
C58   C     C_2   0.933544 0.495976 0.517943 -0.156613
C59   C     C_2   0.933648 0.495924 0.981881 -0.156975
C60   C     C_2   0.066352 0.504076 0.018119 -0.156975
C61   C     C_2   0.536810 0.973605 0.000668 -0.131161
C62   C     C_2   0.463190 0.026395 0.999332 -0.131161
C63   C     C_2   0.433971 0.004060 0.518075 -0.157064
C64   C     C_2   0.566029 0.995939 0.481925 -0.157064
H25   H     H_    0.748261 0.611024 0.356466 0.144924
H26   H     H_    0.251739 0.388976 0.643534 0.144924
H27   H     H_    0.252461 0.389010 0.857115 0.144544
H28   H     H_    0.747539 0.610990 0.142885 0.144544
H29   H     H_    0.246946 0.888172 0.142957 0.128279
H30   H     H_    0.753054 0.111828 0.857043 0.128279
H31   H     H_    0.753049 0.111006 0.643042 0.144253
H32   H     H_    0.246951 0.888994 0.356958 0.144253
O21   O     O_3   0.277594 0.469375 0.574876 -0.569883
C65   C     C_3   0.284793 0.519059 0.605780 0.082803
H33   H     H_    0.293598 0.507799 0.647804 0.114454
H34   H     H_    0.160667 0.546734 0.598963 0.125556
C66   C     C_3   0.456803 0.553100 0.591525 -0.720293
H35   H     H_    0.454714 0.563408 0.549370 0.229665
H36   H     H_    0.459928 0.593467 0.614080 0.175439
H37   H     H_    0.584125 0.528106 0.600728 0.217090
O22   O     O_3   0.722406 0.530625 0.425124 -0.569883
C67   C     C_3   0.715207 0.480941 0.394220 0.082805
H38   H     H_    0.839333 0.453266 0.401037 0.125556
H39   H     H_    0.706402 0.492200 0.352196 0.114453
C68   C     C_3   0.543196 0.446900 0.408475 -0.720293
H40   H     H_    0.415875 0.471894 0.399272 0.217090
H41   H     H_    0.545286 0.436592 0.450630 0.229666
H42   H     H_    0.540072 0.406533 0.385920 0.175439
O23   O     O_3   0.722074 0.530423 0.074234 -0.569800
C69   C     C_3   0.715799 0.480726 0.105139 0.082482
H43   H     H_    0.707730 0.491959 0.147156 0.114369
H44   H     H_    0.839984 0.453137 0.098461 0.125791
C70   C     C_3   0.543751 0.446578 0.090703 -0.719445
H45   H     H_    0.544966 0.436339 0.048540 0.230504
H46   H     H_    0.541457 0.406172 0.113217 0.175483
H47   H     H_    0.416457 0.471465 0.099831 0.216443
O24   O     O_3   0.277926 0.469577 0.925766 -0.569800
C71   C     C_3   0.284201 0.519274 0.894860 0.082482
H48   H     H_    0.160016 0.546863 0.901538 0.125791
H49   H     H_    0.292271 0.508040 0.852844 0.114370
C72   C     C_3   0.456249 0.553422 0.909297 -0.719445
H50   H     H_    0.583544 0.528536 0.900169 0.216443
H51   H     H_    0.455033 0.563662 0.951460 0.230504
H52   H     H_    0.458543 0.593828 0.886783 0.175484
O25   O     O_3   0.793244 0.042354 0.939007 -0.563485
C73   C     C_3   0.885988 0.013939 0.898088 0.038305
H53   H     H_    0.975387 0.044519 0.876767 0.137080
H54   H     H_    0.787322 0.993285 0.870339 0.108475
C74   C     C_3   0.010511 0.967467 0.920849 -0.676857
H55   H     H_    0.924800 0.933960 0.939429 0.206221
H56   H     H_    0.094544 0.947664 0.889521 0.170791
H57   H     H_    0.105706 0.985684 0.950501 0.256945
O26   O     O_3   0.206756 0.957646 0.060993 -0.563485
C75   C     C_3   0.114011 0.986061 0.101912 0.038305
H58   H     H_    0.212678 0.006715 0.129661 0.108475
H59   H     H_    0.024612 0.955481 0.123233 0.137080
C76   C     C_3   0.989489 0.032533 0.079151 -0.676857
H60   H     H_    0.894294 0.014316 0.049499 0.256945
H61   H     H_    0.075200 0.066040 0.060571 0.206221
H62   H     H_    0.905456 0.052336 0.110479 0.170791
O27   O     O_3   0.221048 0.969506 0.425615 -0.569829
C77   C     C_3   0.212533 0.019233 0.394749 0.082545
H63   H     H_    0.203470 0.008035 0.352723 0.113845
H64   H     H_    0.336198 0.046831 0.401474 0.125751
C78   C     C_3   0.040036 0.053351 0.409175 -0.720180
H65   H     H_    0.042293 0.063555 0.451346 0.230385
H66   H     H_    0.035987 0.093776 0.386689 0.175381
H67   H     H_    0.913104 0.028461 0.400007 0.216470
O28   O     O_3   0.778952 0.030494 0.574385 -0.569829
C79   C     C_3   0.787467 0.980767 0.605251 0.082542
H68   H     H_    0.663802 0.953169 0.598525 0.125752
H69   H     H_    0.796529 0.991965 0.647277 0.113846
C80   C     C_3   0.959964 0.946649 0.590825 -0.720179
H70   H     H_    0.086896 0.971539 0.599993 0.216470
H71   H     H_    0.957707 0.936445 0.548654 0.230385
H72   H     H_    0.964013 0.906224 0.613311 0.175381

loop_
_geom_bond_atom_site_label_1
_geom_bond_atom_site_label_2
_ccdc_geom_bond_type
O14   V4    S    
C40   C48   A    
C76   H60   S    
C14   C54   A    
C22   C30   A    
C11   C51   A    
O27   C77   S    
C71   C72   S    
C13   C53   A    
C63   C64   D    
C10   C50   A    
C27   C35   A    
C28   C36   A    
C23   C31   A    
O4    C1    A    
O9    C1    A    
C28   O23   S    
C27   O24   S    
H4    C44   S    
C74   H55   S    
C77   H64   S    
O12   C4    A    
O8    C5    A    
C8    C9    S    
C7    C10   S    
O13   C5    A    
C38   C62   S    
C26   C34   A    
O22   C67   S    
C37   C61   S    
C70   H46   S    
O24   C71   S    
H20   C51   S    
C80   H72   S    
C39   C63   S    
C77   H63   S    
C18   C26   A    
C17   C25   A    
C14   C22   A    
C19   H27   S    
H11   C60   S    
C38   C46   A    
C11   C19   A    
C37   C45   A    
C10   C18   A    
C47   C55   A    
C39   C47   A    
C66   H37   S    
C59   C60   D    
C31   O28   S    
O2    C3    A    
C73   H54   S    
O12   V1    S    
O5    C8    A    
C33   C41   A    
C4    C13   S    
C30   C38   A    
C16   C24   A    
O6    C7    A    
C29   C37   A    
C74   H56   S    
O7    C6    A    
C78   H65   S    
C31   C39   A    
H12   C59   S    
H6    C46   S    
C72   H51   S    
C76   H61   S    
O9    V1    S    
C32   O27   S    
O6    V2    S    
C25   C33   A    
O20   V2    S    
O26   C75   S    
H16   C63   S    
C71   H49   S    
C65   H33   S    
C78   H66   S    
C29   O26   S    
H22   C53   S    
C25   O22   S    
H2    C42   S    
C79   H68   S    
H1    C41   S    
H19   C52   S    
C73   C74   S    
C15   C55   A    
H21   C54   S    
H18   C49   S    
C45   C53   A    
C80   H70   S    
H24   C55   S    
C75   H58   S    
O18   V4    S    
C41   C49   A    
O19   V1    S    
C1    C16   S    
C67   H39   S    
C2    C15   S    
C3    C14   S    
O1    C4    A    
C75   C76   S    
O3    V4    S    
C5    C12   S    
O11   C3    A    
C9    C49   A    
C6    C11   S    
C24   H32   S    
C73   H53   S    
C20   C28   A    
H14   C61   S    
C46   C54   A    
O21   C65   S    
O11   V2    S    
C69   H44   S    
C20   H28   S    
C68   H42   S    
H15   C64   S    
C15   C23   A    
C76   H62   S    
C48   C56   A    
O4    V3    S    
C68   H40   S    
C72   H52   S    
C67   C68   S    
H13   C62   S    
C65   H34   S    
C44   C52   A    
C68   H41   S    
C71   H48   S    
C57   C58   D    
C78   H67   S    
C13   C21   A    
C16   C56   A    
C33   C57   S    
H23   C56   S    
C18   H26   S    
H17   C50   S    
H10   C57   S    
C17   H25   S    
O3    C2    A    
H9    C58   S    
C9    C17   A    
C12   C52   A    
C69   C70   S    
O8    V1    S    
C79   H69   S    
C30   O25   S    
O15   C7    A    
C70   H47   S    
C74   H57   S    
O16   C8    A    
C35   C43   A    
O23   C69   S    
C34   C42   A    
C21   C29   A    
C23   H31   S    
O15   V4    S    
C65   C66   S    
H8    C48   S    
C67   H38   S    
O5    V1    S    
O16   V3    S    
O14   C6    A    
C24   C32   A    
C75   H59   S    
O17   V3    S    
C72   H50   S    
O10   C2    A    
C66   H35   S    
H5    C45   S    
C22   H30   S    
C21   H29   S    
C36   C60   S    
C35   C59   S    
C34   C58   S    
O1    V3    S    
O10   V2    S    
C70   H45   S    
C79   C80   S    
H3    C43   S    
C69   H43   S    
C40   C64   S    
C80   H71   S    
C26   O21   S    
C19   C27   A    
C12   C20   A    
C32   C40   A    
O28   C79   S    
C66   H36   S    
H7    C47   S    
O2    V4    S    
C36   C44   A    
O7    V2    S    
C43   C51   A    
O25   C73   S    
C61   C62   D    
C42   C50   A    
O13   V3    S    
C77   C78   S    
