data_mof_unit_3605.cif
_audit_creation_date              2012-12-11T17:41:44-0500
_audit_creation_method            fapswitch 2.2
_symmetry_space_group_name_H-M    P1
_symmetry_Int_Tables_number       1
_space_group_crystal_system       triclinic
_cell_length_a                    15.441527
_cell_length_b                    14.974858
_cell_length_c                    14.886228
_cell_angle_alpha                 109.788032
_cell_angle_beta                  120.478772
_cell_angle_gamma                 59.28396
_cell_volume                      2535.66688831

loop_
_atom_site_label
_atom_site_type_symbol
_atom_type_description
_atom_site_fract_x
_atom_site_fract_y
_atom_site_fract_z
_atom_type_partial_charge
C1    C     C_R   0.803671 0.935233 0.770198 -0.087174
C2    C     C_R   0.225586 0.414737 0.173880 -0.117683
C3    C     C_R   0.718742 0.853102 0.994984 -0.163492
C4    C     C_R   0.317863 0.332378 0.158232 -0.139440
C5    C     C_R   0.711385 0.955557 0.030908 0.082852
C6    C     C_R   0.304953 0.263918 0.064675 0.116862
C7    C     C_R   0.807979 0.972081 0.077778 -0.156684
C8    C     C_R   0.197278 0.280415 0.987224 -0.168252
C9    C     C_R   0.909848 0.887644 0.087803 -0.088765
C10   C     C_R   0.105304 0.363718 0.003038 -0.089517
C11   C     C_R   0.916191 0.786339 0.050611 -0.067952
C12   C     C_R   0.250215 0.003185 0.209160 -0.012259
C13   C     C_R   0.119395 0.430619 0.096183 -0.077192
C14   C     C_R   0.600957 0.091363 0.123588 -0.240101
C15   C     C_R   0.407094 0.149843 0.949334 -0.218987
C16   C     C_R   0.223342 0.287587 0.474473 -0.107859
C17   C     C_R   0.797767 0.724635 0.558605 -0.094570
C18   C     C_R   0.502938 0.129102 0.133878 0.046945
C19   C     C_R   0.504086 0.071619 0.936531 0.067636
C20   C     C_R   0.404344 0.177474 0.048544 0.038199
C21   C     C_R   0.604516 0.043669 0.027556 0.032142
C22   C     C_2   0.120541 0.393998 0.590645 -0.220250
C23   C     C_R   0.186228 0.296953 0.545675 0.153612
C24   C     C_2   0.979358 0.653632 0.545217 -0.211437
C25   C     C_2   0.120564 0.483711 0.592335 -0.117574
C26   C     C_2   0.033295 0.580882 0.609940 -0.029151
C27   C     C_2   0.983313 0.950526 0.837362 -0.267386
C28   C     C_2   0.166728 0.875438 0.099111 -0.341851
C29   C     C_R   0.133105 0.837617 0.587103 -0.098096
C30   C     C_R   0.906555 0.272388 0.763158 -0.162507
C31   C     C_R   0.241890 0.761335 0.615234 -0.137025
C32   C     C_R   0.803114 0.341250 0.699820 -0.168340
C33   C     C_R   0.280352 0.697416 0.537807 0.107957
C34   C     C_R   0.864048 0.725765 0.523636 0.137678
C35   C     C_R   0.708574 0.369331 0.713987 0.114194
C36   C     C_R   0.207056 0.706720 0.431502 -0.192971
C37   C     C_R   0.719003 0.327274 0.791937 -0.173967
C38   C     C_R   0.098542 0.783965 0.403606 -0.119370
C39   C     C_R   0.822761 0.259272 0.855713 -0.062394
C40   C     C_R   0.594763 0.230451 0.553100 -0.154071
C41   C     C_R   0.405063 0.786423 0.513295 -0.155774
C42   C     C_R   0.061975 0.849776 0.481535 -0.117073
C43   C     C_R   0.916601 0.232597 0.841994 -0.101429
C44   C     C_R   0.400608 0.515619 0.566751 -0.232976
C45   C     C_R   0.503956 0.325716 0.545244 0.064380
C46   C     C_R   0.592517 0.544297 0.654412 -0.239521
C47   C     C_R   0.503098 0.429395 0.593183 0.058031
C48   C     C_R   0.490930 0.623083 0.600963 0.056708
C49   C     C_R   0.600031 0.446993 0.651790 0.032825
C50   C     C_R   0.392660 0.612510 0.568681 0.027292
C51   C     C_2   0.039133 0.888183 0.913162 0.385137
C52   C     C_2   0.081975 0.934211 0.021810 0.362305
C53   C     C_R   0.409012 0.030740 0.734922 0.213711
C54   C     C_R   0.593648 0.022805 0.290348 0.265047
C55   C     C_R   0.410801 0.306305 0.474601 -0.123808
C56   C     C_R   0.493804 0.703014 0.567235 0.063125
C57   C     C_R   0.588129 0.710836 0.586456 -0.115956
C58   C     C_R   0.591679 0.978819 0.805820 -0.183005
C59   C     C_R   0.411085 0.093344 0.214055 -0.212562
C60   C     C_R   0.226386 0.198177 0.569696 -0.157981
C61   C     C_R   0.806379 0.815813 0.475805 -0.141899
C62   C     C_R   0.805091 0.025812 0.680207 -0.171446
C63   C     C_R   0.248929 0.910641 0.299310 -0.144282
C64   C     C_R   0.868884 0.969116 0.765284 0.205277
C65   C     C_R   0.220157 0.926638 0.199456 0.185096
C66   C     C_3   0.307843 0.025373 0.721262 -0.404635
C67   C     C_R   0.500978 0.028925 0.830322 0.034237
C68   C     C_3   0.339534 0.940531 0.780948 -0.888042
C69   C     C_3   0.710780 0.010437 0.338658 -0.389985
C70   C     C_3   0.777393 0.918074 0.279967 -0.914064
C71   C     C_R   0.503255 0.083714 0.209631 -0.000313
C72   C     C_R   0.820682 0.769102 0.004005 -0.115930
Cl1   Cl    Cl    0.008316 0.070569 0.050727 -0.759497
Cl2   Cl    Cl    0.045849 0.760721 0.885588 -0.736571
H1    H     H_    0.829509 0.881011 0.820801 0.158098
H2    H     H_    0.399453 0.322479 0.219155 0.116046
H3    H     H_    0.804437 0.050100 0.107426 0.146096
H4    H     H_    0.184040 0.228680 0.915044 0.102270
H5    H     H_    0.984033 0.900698 0.125408 0.152217
H6    H     H_    0.022828 0.376762 0.943078 0.124186
H7    H     H_    0.677770 0.082050 0.189454 0.160356
H8    H     H_    0.334869 0.188865 0.883295 0.123609
H9    H     H_    0.999117 0.582289 0.658837 0.148333
H10   H     H_    0.172054 0.485417 0.563853 0.126858
H11   H     H_    0.014374 0.650795 0.496155 0.138136
H12   H     H_    0.242568 0.031964 0.146826 0.118889
H13   H     H_    0.068866 0.392481 0.619028 0.130656
H14   H     H_    0.978396 0.909714 0.460702 0.119287
H15   H     H_    0.997353 0.182032 0.893063 0.140901
H16   H     H_    0.194700 0.347528 0.429074 0.087809
H17   H     H_    0.820167 0.673873 0.611053 0.092287
H18   H     H_    0.103659 0.886978 0.647078 0.112231
H19   H     H_    0.979249 0.251339 0.752400 0.111776
H20   H     H_    0.295711 0.750698 0.697188 0.122322
H21   H     H_    0.796629 0.372866 0.640020 0.113933
H22   H     H_    0.234494 0.655249 0.370807 0.115897
H23   H     H_    0.203686 0.790755 0.085912 0.176685
H24   H     H_    0.647157 0.348518 0.804323 0.126784
H25   H     H_    0.042818 0.792409 0.321718 0.119460
H26   H     H_    0.830191 0.228352 0.916396 0.181224
H27   H     H_    0.324879 0.507303 0.537856 0.121386
H28   H     H_    0.667748 0.555816 0.694499 0.123200
H29   H     H_    0.681248 0.213465 0.594868 0.125835
H30   H     H_    0.319973 0.816977 0.499079 0.126496
H31   H     H_    0.327487 0.362984 0.439888 0.084586
H32   H     H_    0.672744 0.666732 0.636751 0.087627
H33   H     H_    0.675765 0.966697 0.856058 0.142266
H34   H     H_    0.003500 0.014645 0.850525 0.132195
H35   H     H_    0.326051 0.143369 0.171001 0.139626
H36   H     H_    0.204333 0.178959 0.615892 0.091059
H37   H     H_    0.848449 0.848610 0.466644 0.111975
H38   H     H_    0.835113 0.052461 0.647131 0.099743
H39   H     H_    0.238644 0.854868 0.319532 0.109597
H40   H     H_    0.393185 0.863377 0.753485 0.258754
H41   H     H_    0.383837 0.957257 0.866550 0.261028
H42   H     H_    0.263492 0.937812 0.767748 0.245822
H43   H     H_    0.252201 0.100896 0.747919 0.171594
H44   H     H_    0.260680 0.005989 0.636762 0.196051
H45   H     H_    0.995239 0.721126 0.058540 0.138415
H46   H     H_    0.814266 0.842541 0.309015 0.251256
H47   H     H_    0.723876 0.906754 0.196215 0.272654
H48   H     H_    0.844085 0.932252 0.286042 0.248622
H49   H     H_    0.712570 0.084825 0.343059 0.163960
H50   H     H_    0.749484 0.000702 0.422513 0.175082
H51   H     H_    0.047980 0.494882 0.108064 0.100158
H52   H     H_    0.825828 0.690503 0.975850 0.114423
H53   H     H_    0.236523 0.466614 0.246105 0.104383
H54   H     H_    0.645639 0.838542 0.960601 0.125156
N1    N     N_R   0.705410 0.966550 0.689210 -0.055392
N2    N     N_R   0.556610 0.796750 0.548620 -0.039941
N3    N     N_R   0.556610 0.951620 0.703500 -0.052068
N4    N     N_R   0.443390 0.048380 0.296500 -0.059908
N5    N     N_R   0.294590 0.131500 0.522480 -0.045854
N6    N     N_R   0.705410 0.868500 0.477520 -0.044560
N7    N     N_R   0.705410 0.023370 0.632390 -0.045117
N8    N     N_R   0.294590 0.976630 0.367610 -0.049327
N9    N     N_R   0.294590 0.033450 0.310790 -0.053860
N10   N     N_R   0.294590 0.188320 0.465660 -0.040256
N11   N     N_R   0.705410 0.811680 0.534340 -0.046058
N12   N     N_R   0.556610 0.157790 0.497330 -0.049318
N13   N     N_R   0.443390 0.842210 0.502670 -0.043661
N14   N     N_R   0.443390 0.997080 0.657540 -0.065279
N15   N     N_R   0.556610 0.002920 0.342460 -0.067407
N16   N     N_R   0.443390 0.203250 0.451380 -0.037868
Ni1   Ni    Ni4+2 0.629830 0.882720 0.617850 0.217829
Ni2   Ni    Ni4+2 0.370170 0.117280 0.382150 0.223260
Ni3   Ni    Ni4+2 0.629830 0.013030 0.487540 0.197936
Ni4   Ni    Ni4+2 0.370170 0.986970 0.512460 0.209370

loop_
_geom_bond_atom_site_label_1
_geom_bond_atom_site_label_2
_ccdc_geom_bond_type
C28   H23   S    
C66   C68   S    
C63   C65   A    
C16   H16   S    
C26   H9    S    
C29   C42   A    
C14   C18   A    
C3    C72   A    
C17   H17   S    
C51   Cl2   S    
C11   H45   S    
C47   C49   A    
C15   C19   A    
N6    Ni3   S    
C46   H28   S    
C46   C49   A    
C43   H15   S    
C55   H31   S    
C14   C21   A    
C35   C37   A    
C24   C26   D    
C58   H33   S    
C30   H19   S    
C1    N1    A    
C69   H49   S    
C33   C36   A    
C56   C57   A    
C48   C56   S    
C53   N14   A    
C9    H5    S    
N2    N13   A    
C2    C13   A    
C70   H48   S    
C62   C64   A    
N13   Ni4   S    
N1    N7    A    
C54   C71   A    
C70   H46   S    
C22   C25   D    
C35   C49   S    
C25   H10   S    
C31   C33   A    
C19   C67   S    
C24   H11   S    
N1    Ni1   S    
C44   C47   A    
C7    H3    S    
C13   H51   S    
C2    H53   S    
N4    N15   A    
C48   C50   A    
C54   N15   A    
N5    N10   A    
N2    Ni1   S    
C8    H4    S    
C23   C60   A    
N12   Ni3   S    
C22   C23   S    
C37   H24   S    
C27   C51   D    
C61   N6    A    
C15   H8    S    
C45   C47   S    
C40   C45   A    
C46   C48   A    
C59   N4    A    
C51   C52   S    
C1    H1    S    
C32   C35   A    
N14   Ni4   S    
N9    Ni2   S    
N16   Ni2   S    
C52   Cl1   S    
N6    N11   A    
C5    C7    A    
C10   H6    S    
C11   C72   A    
C38   H25   S    
C39   C43   A    
C57   N2    A    
C69   H50   S    
C25   C26   S    
C66   H43   S    
C34   C61   A    
C24   C34   S    
C72   H52   S    
C15   C20   A    
C62   N7    A    
N3    Ni1   S    
C2    C4    A    
C41   C56   A    
C41   N13   A    
C36   H22   S    
C58   N3    A    
C62   H38   S    
C17   N11   A    
N5    Ni4   S    
C22   H13   S    
C53   C66   S    
C9    C11   A    
N8    Ni4   S    
N3    N14   A    
C68   H42   S    
C4    C6    A    
N15   Ni3   S    
C16   C23   A    
N7    Ni3   S    
C30   C43   A    
C42   H14   S    
C17   C34   A    
C61   H37   S    
C1    C64   A    
C44   C50   A    
C18   C71   S    
C7    C9    A    
N11   Ni1   S    
C55   N16   A    
C19   C21   A    
C3    H54   S    
C8    C10   A    
C16   N10   A    
N12   N16   A    
N8    N9    A    
C3    C5    A    
C10   C13   A    
C6    C8    A    
C44   H27   S    
C38   C42   A    
C31   H20   S    
C6    C20   S    
C12   C65   A    
C41   H30   S    
C12   H12   S    
N4    Ni2   S    
C63   N8    A    
C36   C38   A    
C28   C65   S    
C33   C50   S    
C29   C31   A    
C40   H29   S    
C30   C32   A    
C28   C52   D    
C70   H47   S    
C39   H26   S    
C54   C69   S    
C27   H34   S    
N10   Ni2   S    
C40   N12   A    
C59   H35   S    
C57   H32   S    
C18   C20   A    
C69   C70   S    
C53   C67   A    
C4    H2    S    
C60   H36   S    
C27   C64   S    
C68   H41   S    
C63   H39   S    
C58   C67   A    
C32   H21   S    
C5    C21   S    
C45   C55   A    
C37   C39   A    
C66   H44   S    
C68   H40   S    
C12   N9    A    
C14   H7    S    
C60   N5    A    
C29   H18   S    
C59   C71   A    
