data_mof_unit_3690.cif
_audit_creation_date              2012-12-10T17:22:08-0500
_audit_creation_method            fapswitch 2.2
_symmetry_space_group_name_H-M    P1
_symmetry_Int_Tables_number       1
_space_group_crystal_system       triclinic
_cell_length_a                    15.879069
_cell_length_b                    10.863514
_cell_length_c                    9.616463
_cell_angle_alpha                 89.667747
_cell_angle_beta                  89.49042
_cell_angle_gamma                 93.998146
_cell_volume                      1654.72692281

loop_
_atom_site_label
_atom_site_type_symbol
_atom_type_description
_atom_site_fract_x
_atom_site_fract_y
_atom_site_fract_z
_atom_type_partial_charge
C1    C     C_R   0.504411 0.262593 0.501461 0.785118
C2    C     C_3   0.947252 0.437540 0.637166 0.265866
C3    C     C_3   0.917101 0.498422 0.500794 0.263276
C4    C     C_3   0.957424 0.632482 0.492518 -0.460894
C5    C     C_3   0.055017 0.632844 0.492765 -0.394373
C6    C     C_1   0.824892 0.499508 0.499076 -0.104838
C7    C     C_1   0.174974 0.499451 0.501937 -0.096234
C8    C     C_1   0.250574 0.499507 0.501649 -0.175890
C9    C     C_R   0.522000 0.113356 0.766612 -0.165414
C10   C     C_R   0.498618 0.050595 0.889336 -0.132451
C11   C     C_R   0.456585 0.934436 0.883379 -0.140387
C12   C     C_R   0.340315 0.499443 0.500578 0.811057
C13   C     C_R   0.446041 0.875931 0.755603 -0.153648
C14   C     C_R   0.477419 0.933792 0.631200 0.092344
C15   C     C_R   0.502906 0.060543 0.634824 0.096674
C16   C     C_R   0.507637 0.127888 0.506745 -0.111467
C17   C     C_R   0.504181 0.064069 0.380488 -0.209232
C18   C     C_R   0.496330 0.936622 0.379228 -0.212833
C19   C     C_R   0.485077 0.870019 0.503654 -0.124340
C20   C     C_R   0.601652 0.693571 0.132104 0.303822
C21   C     C_R   0.633063 0.795385 0.049534 0.306973
C22   C     C_R   0.636825 0.782888 0.908209 -0.232754
C23   C     C_R   0.493127 0.736538 0.500512 0.811009
C24   C     C_R   0.601584 0.677735 0.847371 -0.242983
C25   C     C_R   0.549442 0.589537 0.922124 0.144689
C26   C     C_R   0.549176 0.592998 0.071741 0.121278
C27   C     C_R   0.453470 0.414115 0.075152 -0.069724
C28   C     C_R   0.453126 0.414631 0.927563 -0.070460
C29   C     C_R   0.659652 0.500061 0.499492 0.852226
C30   C     C_3   0.045180 0.438121 0.636745 -0.329587
C31   C     C_3   0.046328 0.425855 0.375474 -0.378197
C32   C     C_3   0.948798 0.426511 0.373995 -0.330949
C33   C     C_1   0.749343 0.499947 0.498635 -0.175176
C34   C     C_3   0.082736 0.499123 0.501751 0.250215
Cu1   Cu    Cu3+1 0.499990 0.499990 0.640660 0.929677
Cu2   Cu    Cu3+1 0.500010 0.500010 0.359340 0.979669
H1    H     H_    0.070451 0.489492 0.728955 0.118975
H2    H     H_    0.927581 0.492425 0.728318 0.076358
H3    H     H_    0.936805 0.678646 0.396207 0.190121
H4    H     H_    0.508678 0.112594 0.281669 0.164648
H5    H     H_    0.557823 0.200673 0.778063 0.172408
H6    H     H_    0.511819 0.093178 0.989044 0.139795
H7    H     H_    0.434775 0.887744 0.978148 0.128301
H8    H     H_    0.411772 0.786457 0.755787 0.162127
H9    H     H_    0.498929 0.890244 0.280058 0.164122
H10   H     H_    0.415233 0.343551 0.131081 0.132237
H11   H     H_    0.065290 0.342250 0.645900 0.195764
H12   H     H_    0.669445 0.854237 0.844713 0.194466
H13   H     H_    0.616418 0.671975 0.740219 0.230360
H14   H     H_    0.414542 0.344468 0.873655 0.139786
H15   H     H_    0.072885 0.467328 0.276993 0.165711
H16   H     H_    0.064747 0.328931 0.380359 0.174262
H17   H     H_    0.920369 0.329943 0.375565 0.203045
H18   H     H_    0.928751 0.470054 0.275726 0.156964
H19   H     H_    0.080380 0.687450 0.582591 0.170472
H20   H     H_    0.081143 0.678692 0.396334 0.179337
H21   H     H_    0.935957 0.686710 0.582410 0.170026
N1    N     N_R   0.500800 0.501210 0.147910 -0.169708
N2    N     N_R   0.500820 0.501290 0.852040 -0.181089
O1    O     O_R   0.499990 0.319640 0.618810 -0.596602
O2    O     O_R   0.500000 0.319660 0.381240 -0.586966
O3    O     O_R   0.379430 0.499990 0.618840 -0.578555
O4    O     O_R   0.379440 0.500020 0.381260 -0.579108
O5    O     O_R   0.500000 0.680340 0.618760 -0.613549
O6    O     O_R   0.500010 0.680360 0.381190 -0.525730
O7    O     O_R   0.620560 0.499980 0.618740 -0.608401
O8    O     O_R   0.620570 0.500010 0.381160 -0.501147
O9    O     O_3   0.912372 0.315293 0.650310 -0.731316
H22   H     H_    0.855363 0.318984 0.692651 0.324779
O10   O     O_3   0.632749 0.688014 0.263626 -0.695528
H23   H     H_    0.690189 0.730144 0.267661 0.314127
O11   O     O_3   0.668760 0.903400 0.105367 -0.732536
H24   H     H_    0.648009 0.910837 0.202191 0.329986

loop_
_geom_bond_atom_site_label_1
_geom_bond_atom_site_label_2
_ccdc_geom_bond_type
C4    H21   S    
C19   C23   S    
C6    C33   T    
C11   H7    S    
O10   H23   S    
C10   H6    S    
Cu2   O4    S    
C12   O3    A    
C9    C10   A    
C2    H2    S    
C5    H20   S    
C9    H5    S    
Cu1   Cu2   S    
C14   C15   A    
C4    H3    S    
C2    C30   S    
C31   H16   S    
C8    C12   S    
C3    C6    S    
C17   H4    S    
C5    C34   S    
C23   O6    A    
C17   C18   A    
C9    C15   A    
Cu2   O8    S    
C7    C8    T    
C1    C16   S    
C31   C32   S    
C13   C14   A    
C24   C25   A    
C11   C13   A    
C20   O10   S    
Cu1   O5    S    
C20   C26   A    
C27   H10   S    
C21   C22   A    
C23   O5    A    
C28   N2    A    
C5    H19   S    
C22   H12   S    
C2    C3    S    
Cu1   O3    S    
Cu2   N1    S    
Cu2   O2    S    
C3    C32   S    
O9    H22   S    
C7    C34   S    
C22   C24   A    
C31   C34   S    
C10   C11   A    
C30   C34   S    
C21   O11   S    
C29   O7    A    
Cu1   O1    S    
C18   H9    S    
C29   C33   S    
C30   H11   S    
C27   C28   A    
C20   C21   A    
O11   H24   S    
Cu1   N2    S    
C18   C19   A    
C1    O1    A    
C32   H18   S    
C24   H13   S    
C12   O4    A    
Cu2   O6    S    
C4    C5    S    
C25   N2    A    
Cu1   O7    S    
C32   H17   S    
C25   C26   A    
C29   O8    A    
C2    O9    S    
C28   H14   S    
C14   C19   A    
C26   N1    A    
C13   H8    S    
C3    C4    S    
C15   C16   A    
C30   H1    S    
C31   H15   S    
C16   C17   A    
C27   N1    A    
C1    O2    A    
